@<TRIPOS>MOLECULE
tmp/4q6rA00.pdb
 85 81 0 0 0
SMALL
GASTEIGER

@<TRIPOS>ATOM
      1  N         27.6860   44.3990   -6.0260 N.3    36  SER36      -0.1202
      2  CA        26.4520   43.6620   -5.7270 C.3    36  SER36       0.2020
      3  C         26.7630   42.6640   -4.6210 C.2    36  SER36       0.2619
      4  O         27.7870   41.9800   -4.6880 O.2    36  SER36      -0.2717
      5  CB        25.9730   42.9130   -6.9660 C.3    36  SER36       0.2103
      6  OG        24.7870   42.1870   -6.7010 O.3    36  SER36      -0.2182
      7  N         25.8950   42.6170   -3.6160 N.am   37  GLY37      -0.1942
      8  CA        26.0640   41.7530   -2.4570 C.3    37  GLY37       0.2014
      9  C         27.4480   41.9210   -1.8650 C.2    37  GLY37       0.2639
     10  O         27.8580   43.0410   -1.5560 O.2    37  GLY37      -0.2714
     11  N         28.1940   40.8110   -1.7370 N.am   38  THR38      -0.1950
     12  CA        29.5880   40.7920   -1.2610 C.3    38  THR38       0.1897
     13  C         29.8280   41.2680    0.1880 C.2    38  THR38       0.2313
     14  O         30.3070   40.4750    1.0170 O.2    38  THR38      -0.2863
     15  CB        30.5110   41.4180   -2.3320 C.3    38  THR38       0.1794
     16  OG1       30.2180   40.7570   -3.5610 O.3    38  THR38      -0.2208
     17  CG2       31.9850   41.2690   -2.0020 C.3    38  THR38       0.0378
     18  N         27.8670   43.0980    3.2980 N.3    40  TYR40      -0.1241
     19  CA        26.5290   43.3150    3.8130 C.3    40  TYR40       0.1605
     20  C         26.2900   44.5780    4.6330 C.2    40  TYR40       0.2264
     21  O         25.2270   45.1930    4.5100 O.2    40  TYR40      -0.2867
     22  CB        25.9590   42.0110    4.3900 C.3    40  TYR40       0.0534
     23  CG        25.6740   41.0340    3.2760 C.ar   40  TYR40      -0.0201
     24  CD1       26.7040   40.3060    2.6780 C.ar   40  TYR40      -0.0009
     25  CD2       24.3940   40.8970    2.7580 C.ar   40  TYR40      -0.0009
     26  CE1       26.4690   39.5050    1.5680 C.ar   40  TYR40       0.0417
     27  CE2       24.1410   40.0680    1.6670 C.ar   40  TYR40       0.0417
     28  CZ        25.1810   39.3750    1.0770 C.ar   40  TYR40       0.1957
     29  OH        24.9350   38.5730   -0.0010 O.3    40  TYR40      -0.2866
     30  N         20.5570   26.8910   -5.2840 N.3   132  HIS132     -0.1241
     31  CA        21.9860   27.2190   -5.2650 C.3   132  HIS132      0.1621
     32  C         22.8810   26.1360   -5.8630 C.2   132  HIS132      0.2264
     33  O         22.5650   24.9430   -5.7550 O.2   132  HIS132     -0.2867
     34  CB        22.4480   27.5740   -3.8400 C.3   132  HIS132      0.0745
     35  CG        23.7420   28.3360   -3.8050 C.ar  132  HIS132      0.0817
     36  ND1       24.9510   27.6900   -3.7090 N.ar  132  HIS132     -0.2268
     37  CD2       23.9650   29.6620   -3.8870 C.ar  132  HIS132      0.1154
     38  CE1       25.8700   28.6330   -3.7170 C.ar  132  HIS132      0.1986
     39  NE2       25.3290   29.8340   -3.8220 N.ar  132  HIS132     -0.2212
     40  N         18.7240   32.9050   -5.4130 N.3   180  PHE180     -0.1241
     41  CA        19.7250   33.9270   -5.6930 C.3   180  PHE180      0.1605
     42  C         19.5850   34.5820   -7.0800 C.2   180  PHE180      0.2264
     43  O         19.6520   35.8150   -7.1360 O.2   180  PHE180     -0.2867
     44  CB        21.1550   33.3670   -5.4450 C.3   180  PHE180      0.0534
     45  CG        22.2910   34.2040   -5.9950 C.ar  180  PHE180     -0.0203
     46  CD1       22.9040   35.1770   -5.2120 C.ar  180  PHE180     -0.0042
     47  CD2       22.7460   34.0220   -7.3040 C.ar  180  PHE180     -0.0042
     48  CE1       23.9800   35.9300   -5.7170 C.ar  180  PHE180     -0.0003
     49  CE2       23.8100   34.7830   -7.8070 C.ar  180  PHE180     -0.0003
     50  CZ        24.4140   35.7390   -7.0120 C.ar  180  PHE180     -0.0000
     51  N         20.2600   33.3410    1.6830 N.3   208  LEU208     -0.1245
     52  CA        20.2110   34.7490    1.3310 C.3   208  LEU208      0.1561
     53  C         19.1320   35.5340    2.1130 C.2   208  LEU208      0.2260
     54  O         19.4780   36.4910    2.7950 O.2   208  LEU208     -0.2867
     55  CB        20.0350   34.9060   -0.1970 C.3   208  LEU208      0.0270
     56  CG        19.9840   36.3130   -0.7700 C.3   208  LEU208      0.0019
     57  CD1       21.3130   37.0410   -0.5820 C.3   208  LEU208      0.0001
     58  CD2       19.6520   36.2550   -2.2420 C.3   208  LEU208      0.0001
     59  N         26.2530   35.4580    8.1170 N.3   242  HIS242     -0.1241
     60  CA        27.2740   36.2540    7.4170 C.3   242  HIS242      0.1621
     61  C         26.6780   37.1640    6.3370 C.2   242  HIS242      0.2264
     62  O         27.3770   38.0220    5.8260 O.2   242  HIS242     -0.2867
     63  CB        28.4510   35.3850    6.8990 C.3   242  HIS242      0.0745
     64  CG        28.1840   34.6780    5.6070 C.ar  242  HIS242      0.0817
     65  ND1       27.8590   33.3450    5.5810 N.ar  242  HIS242     -0.2268
     66  CD2       28.2420   35.1400    4.3330 C.ar  242  HIS242      0.1154
     67  CE1       27.7030   33.0380    4.3050 C.ar  242  HIS242      0.1986
     68  NE2       27.9250   34.0880    3.5170 N.ar  242  HIS242     -0.2212
     69  N         32.2410   36.8740    7.9560 N.3   248  LYS248     -0.1245
     70  CA        32.2800   35.7750    6.9820 C.3   248  LYS248      0.1561
     71  C         32.7460   34.5280    7.7380 C.2   248  LYS248      0.2260
     72  O         33.5360   34.6590    8.6790 O.2   248  LYS248     -0.2867
     73  CB        33.2470   36.0940    5.8250 C.3   248  LYS248      0.0271
     74  CG        32.9380   37.3780    5.0620 C.3   248  LYS248      0.0035
     75  CD        31.7640   37.2120    4.0980 C.3   248  LYS248      0.0206
     76  CE        30.4790   37.7960    4.6300 C.3   248  LYS248      0.1093
     77  NZ        29.4300   37.8330    3.5890 N.3   248  LYS248     -0.1314
     78  N         26.0670   41.0090  -11.0140 N.3   364  ASN364     -0.1240
     79  CA        26.2120   39.5850  -11.2850 C.3   364  ASN364      0.1653
     80  C         25.6620   39.2680  -12.6720 C.2   364  ASN364      0.2266
     81  O         24.5800   39.7270  -13.0310 O.2   364  ASN364     -0.2867
     82  CB        25.4850   38.7580  -10.2250 C.3   364  ASN364      0.1155
     83  CG        26.1440   38.7990   -8.8820 C.2   364  ASN364      0.2627
     84  OD1       26.9770   37.9500   -8.5510 O.2   364  ASN364     -0.2716
     85  ND2       25.7420   39.7520   -8.0680 N.am  364  ASN364     -0.0877
@<TRIPOS>BOND
     1    81    80    2
     2    80    79    1
     3    79    78    1
     4    79    82    1
     5    82    83    1
     6    83    84    2
     7    83    85   am
     8    49    47   ar
     9    49    50   ar
    10    47    45   ar
    11    43    42    2
    12    42    41    1
    13    50    48   ar
    14     5     6    1
    15     5     2    1
    16     1     2    1
    17    45    44    1
    18    45    46   ar
    19    32    33    2
    20    32    31    1
    21     2     3    1
    22    48    46   ar
    23    41    44    1
    24    41    40    1
    25    30    31    1
    26    31    34    1
    27     4     3    2
    28     3     7   am
    29    37    39   ar
    30    37    35   ar
    31    34    35    1
    32    39    38   ar
    33    35    36   ar
    34    38    36   ar
    35     7     8    1
    36    16    15    1
    37     8     9    1
    38    15    17    1
    39    15    12    1
    40    58    56    1
    41     9    11   am
    42     9    10    2
    43    11    12    1
    44    12    13    1
    45    56    57    1
    46    56    55    1
    47    55    52    1
    48    29    28    1
    49    13    14    2
    50    28    26   ar
    51    28    27   ar
    52    52    51    1
    53    52    53    1
    54    26    24   ar
    55    27    25   ar
    56    53    54    2
    57    24    23   ar
    58    25    23   ar
    59    23    22    1
    60    18    19    1
    61    68    67   ar
    62    68    66   ar
    63    77    76    1
    64    19    22    1
    65    19    20    1
    66    75    76    1
    67    75    74    1
    68    67    65   ar
    69    66    64   ar
    70    21    20    2
    71    74    73    1
    72    65    64   ar
    73    64    63    1
    74    73    70    1
    75    62    61    2
    76    61    60    1
    77    63    60    1
    78    70    71    1
    79    70    69    1
    80    60    59    1
    81    71    72    2
