@<TRIPOS>MOLECULE
tmp/4q6rB02.pdb
 87 88 0 0 0
SMALL
GASTEIGER

@<TRIPOS>ATOM
      1  N         35.6150   34.1800   -2.5350 N.3    64  LEU64      -0.1231
      2  CA        34.6100   33.7510   -3.5130 C.3    64  LEU64       0.1693
      3  C         34.5420   34.8320   -4.6370 C.2    64  LEU64       0.2592
      4  O         34.0970   34.5470   -5.7460 O.2    64  LEU64      -0.2718
      5  CB        33.2350   33.6020   -2.8150 C.3    64  LEU64       0.0284
      6  CG        32.0240   33.1550   -3.6700 C.3    64  LEU64       0.0019
      7  CD1       32.1440   31.6860   -4.0930 C.3    64  LEU64       0.0001
      8  CD2       30.7120   33.3990   -2.9310 C.3    64  LEU64       0.0001
      9  N         35.0070   36.0580   -4.3270 N.am   65  HIS65      -0.1962
     10  CA        35.0470   37.2180   -5.2150 C.3    65  HIS65       0.1772
     11  C         36.4960   37.6830   -5.4330 C.2    65  HIS65       0.2462
     12  O         36.8940   38.6980   -4.8570 O.2    65  HIS65      -0.2730
     13  CB        34.1870   38.3530   -4.6280 C.3    65  HIS65       0.0785
     14  CG        32.7990   37.9260   -4.2790 C.ar   65  HIS65       0.0821
     15  ND1       31.7940   37.9200   -5.2230 N.ar   65  HIS65      -0.2267
     16  CD2       32.3020   37.4770   -3.1040 C.ar   65  HIS65       0.1154
     17  CE1       30.7170   37.4760   -4.5980 C.ar   65  HIS65       0.1986
     18  NE2       30.9730   37.2010   -3.3200 N.ar   65  HIS65      -0.2212
     19  N         37.3080   36.9680   -6.2540 N.am   66  PRO66      -0.2716
     20  CA        38.7150   37.3850   -6.4430 C.3    66  PRO66       0.1536
     21  C         38.8730   38.7200   -7.1740 C.2    66  PRO66       0.2598
     22  O         39.8760   39.4120   -6.9920 O.2    66  PRO66      -0.2715
     23  CB        39.3310   36.2090   -7.2060 C.3    66  PRO66       0.0310
     24  CG        38.2020   35.5610   -7.8880 C.3    66  PRO66       0.0237
     25  CD        37.0170   35.7270   -7.0030 C.3    66  PRO66       0.0939
     26  N         37.8450   39.0980   -7.9630 N.am   67  ASP67      -0.1972
     27  CA        37.7720   40.3650   -8.7020 C.3    67  ASP67       0.1709
     28  C         37.5900   41.5590   -7.7500 C.2    67  ASP67       0.2293
     29  O         38.1350   42.6220   -8.0110 O.2    67  ASP67      -0.2864
     30  CB        36.6390   40.3040   -9.7470 C.3    67  ASP67       0.1436
     31  CG        35.2220   40.0310   -9.2290 C.2    67  ASP67       0.3671
     32  OD1       35.0830   39.3310   -8.2120 O.co2  67  ASP67      -0.2456
     33  OD2       34.2590   40.4800   -9.8770 O.co2  67  ASP67      -0.2456
     34  N         28.7080   24.6130  -14.4580 N.3   270  THR270     -0.1218
     35  CA        28.7180   25.4360  -15.6720 C.3   270  THR270      0.1862
     36  C         27.3630   26.0090  -16.0410 C.2   270  THR270      0.2287
     37  O         27.3120   27.0330  -16.7270 O.2   270  THR270     -0.2866
     38  CB        29.2610   24.6370  -16.8790 C.3   270  THR270      0.1770
     39  OG1       28.4330   23.5000  -17.1280 O.3   270  THR270     -0.2211
     40  CG2       30.6990   24.2130  -16.7070 C.3   270  THR270      0.0375
     41  N         24.6110   26.7620  -13.8250 N.3   272  TRP272     -0.1241
     42  CA        23.8040   27.4230  -12.7920 C.3   272  TRP272      0.1605
     43  C         23.2160   28.7420  -13.2440 C.2   272  TRP272      0.2264
     44  O         23.9440   29.5790  -13.7830 O.2   272  TRP272     -0.2867
     45  CB        24.5720   27.5920  -11.4600 C.3   272  TRP272      0.0550
     46  CG        23.7240   28.1570  -10.3510 C.ar  272  TRP272      0.0003
     47  CD1       22.4480   27.7970  -10.0280 C.ar  272  TRP272      0.0946
     48  CD2       24.0970   29.1830   -9.4240 C.ar  272  TRP272      0.0152
     49  NE1       21.9880   28.5660   -8.9860 N.ar  272  TRP272     -0.2442
     50  CE2       22.9860   29.4140   -8.5840 C.ar  272  TRP272      0.0810
     51  CE3       25.2780   29.9170   -9.2010 C.ar  272  TRP272      0.0012
     52  CZ2       23.0220   30.3390   -7.5310 C.ar  272  TRP272      0.0191
     53  CZ3       25.3080   30.8410   -8.1720 C.ar  272  TRP272      0.0001
     54  CH2       24.2020   31.0270   -7.3330 C.ar  272  TRP272      0.0015
     55  N         22.4950   31.2720  -11.5470 N.3   274  GLY274     -0.1210
     56  CA        23.1850   32.3530  -10.8520 C.3   274  GLY274      0.1956
     57  C         24.5540   32.6960  -11.4160 C.2   274  GLY274      0.2612
     58  O         25.2620   33.5440  -10.8560 O.2   274  GLY274     -0.2717
     59  N         24.9110   32.0410  -12.5300 N.am  275  GLY275     -0.1942
     60  CA        26.1690   32.2130  -13.2480 C.3   275  GLY275      0.2014
     61  C         27.0580   30.9900  -13.2060 C.2   275  GLY275      0.2639
     62  O         26.8640   30.1140  -12.3610 O.2   275  GLY275     -0.2714
     63  N         28.0650   30.9300  -14.1070 N.am  276  ILE276     -0.1963
     64  CA        29.0650   29.8540  -14.1170 C.3   276  ILE276      0.1727
     65  C         29.7040   29.8740  -12.7270 C.2   276  ILE276      0.2616
     66  O         30.1750   30.9170  -12.2680 O.2   276  ILE276     -0.2715
     67  CB        30.1190   30.0090  -15.2420 C.3   276  ILE276      0.0290
     68  CG1       29.4510   30.1130  -16.6360 C.3   276  ILE276      0.0022
     69  CG2       31.1460   28.8510  -15.1890 C.3   276  ILE276      0.0023
     70  CD1       30.3200   30.7740  -17.6920 C.3   276  ILE276      0.0001
     71  N         29.6070   28.7490  -12.0260 N.am  277  TYR277     -0.1960
     72  CA        30.0920   28.6350  -10.6570 C.3   277  TYR277      0.1771
     73  C         31.2280   27.6370  -10.5370 C.2   277  TYR277      0.2619
     74  O         31.0710   26.4630  -10.8630 O.2   277  TYR277     -0.2715
     75  CB        28.9290   28.2570   -9.7290 C.3   277  TYR277      0.0574
     76  CG        29.2450   28.3880   -8.2590 C.ar  277  TYR277     -0.0198
     77  CD1       29.8200   27.3340   -7.5530 C.ar  277  TYR277     -0.0009
     78  CD2       28.9020   29.5340   -7.5540 C.ar  277  TYR277     -0.0009
     79  CE1       30.1030   27.4450   -6.1940 C.ar  277  TYR277      0.0417
     80  CE2       29.1620   29.6460   -6.1910 C.ar  277  TYR277      0.0417
     81  CZ        29.7710   28.6030   -5.5160 C.ar  277  TYR277      0.1957
     82  OH        29.9790   28.6850   -4.1630 O.3   277  TYR277     -0.2866
     83  N         32.3540   28.1030  -10.0120 N.am  278  ALA278     -0.1977
     84  CA        33.5300   27.2830   -9.7870 C.3   278  ALA278      0.1597
     85  C         34.0380   27.5560   -8.3800 C.2   278  ALA278      0.2287
     86  O         34.1250   28.7180   -7.9740 O.2   278  ALA278     -0.2864
     87  CB        34.6140   27.6160  -10.8120 C.3   278  ALA278      0.0319
@<TRIPOS>BOND
     1    70    68    1
     2    39    38    1
     3    38    40    1
     4    38    35    1
     5    37    36    2
     6    68    67    1
     7    36    35    1
     8    35    34    1
     9    67    69    1
    10    67    64    1
    11    64    63    1
    12    64    65    1
    13    63    61   am
    14    41    42    1
    15    44    43    2
    16    60    61    1
    17    60    59    1
    18    43    42    1
    19    61    62    2
    20    42    45    1
    21    65    66    2
    22    65    71   am
    23    59    57   am
    24    71    72    1
    25    55    56    1
    26    45    46    1
    27    57    58    2
    28    57    56    1
    29    74    73    2
    30    87    84    1
    31    72    73    1
    32    72    75    1
    33    73    83   am
    34    46    47   ar
    35    46    48   ar
    36    47    49   ar
    37    83    84    1
    38    33    31   ar
    39    84    85    1
    40    30    31    1
    41    30    27    1
    42    75    76    1
    43    48    51   ar
    44    48    50   ar
    45    31    32   ar
    46    51    53   ar
    47    49    50   ar
    48    27    26    1
    49    27    28    1
    50    50    52   ar
    51    85    86    2
    52    76    78   ar
    53    76    77   ar
    54    53    54   ar
    55    29    28    2
    56    26    21   am
    57    24    23    1
    58    24    25    1
    59    78    80   ar
    60    77    79   ar
    61    52    54   ar
    62    23    20    1
    63    21    22    2
    64    21    20    1
    65    25    19    1
    66    20    19    1
    67    19    11   am
    68    79    81   ar
    69    80    81   ar
    70     4     3    2
    71    81    82    1
    72    11    10    1
    73    11    12    2
    74    15    17   ar
    75    15    14   ar
    76    10    13    1
    77    10     9    1
    78     3     9   am
    79     3     2    1
    80    13    14    1
    81    17    18   ar
    82    14    16   ar
    83     7     6    1
    84     6     8    1
    85     6     5    1
    86     2     5    1
    87     2     1    1
    88    18    16   ar
