@<TRIPOS>MOLECULE
tmp/4q6sA00.pdb
 73 71 0 0 0
SMALL
GASTEIGER

@<TRIPOS>ATOM
      1  N         10.7010   23.0780   45.2540 N.3    21  THR21      -0.1218
      2  CA        12.0180   23.6810   45.2760 C.3    21  THR21       0.1862
      3  C         12.4910   23.9900   43.8530 C.2    21  THR21       0.2287
      4  O         11.7980   23.6610   42.8900 O.2    21  THR21      -0.2866
      5  CB        12.9930   22.7970   46.0680 C.3    21  THR21       0.1770
      6  OG1       14.2090   23.5120   46.3180 O.3    21  THR21      -0.2211
      7  CG2       13.2540   21.4970   45.3380 C.3    21  THR21       0.0375
      8  N         18.2070   29.0850   39.9770 N.3    26  HIS26      -0.1226
      9  CA        19.0400   27.9770   40.4420 C.3    26  HIS26       0.1752
     10  C         19.4570   27.0530   39.3110 C.2    26  HIS26       0.2597
     11  O         20.1770   26.0720   39.5290 O.2    26  HIS26      -0.2718
     12  CB        18.3070   27.1950   41.5300 C.3    26  HIS26       0.0759
     13  CG        17.8660   28.0520   42.6700 C.ar   26  HIS26       0.0818
     14  ND1       18.7600   28.6960   43.4970 N.ar   26  HIS26      -0.2268
     15  CD2       16.6310   28.4030   43.0980 C.ar   26  HIS26       0.1154
     16  CE1       18.0920   29.3970   44.3950 C.ar   26  HIS26       0.1986
     17  NE2       16.8000   29.2380   44.1740 N.ar   26  HIS26      -0.2212
     18  N         19.0190   27.3660   38.0970 N.am   27  GLY27      -0.1942
     19  CA        19.3000   26.5070   36.9610 C.3    27  GLY27       0.2014
     20  C         18.7010   25.1130   37.0420 C.2    27  GLY27       0.2639
     21  O         19.2570   24.1560   36.5050 O.2    27  GLY27      -0.2714
     22  N         17.5850   24.9820   37.7490 N.am   28  VAL28      -0.1963
     23  CA        16.8910   23.7030   37.8050 C.3    28  VAL28       0.1712
     24  C         15.3980   23.9320   37.6500 C.2    28  VAL28       0.2462
     25  O         14.9030   25.0440   37.8440 O.2    28  VAL28      -0.2730
     26  CB        17.1870   22.9140   39.1030 C.3    28  VAL28       0.0289
     27  CG1       18.6480   22.5120   39.1670 C.3    28  VAL28       0.0023
     28  CG2       16.8130   23.7410   40.3150 C.3    28  VAL28       0.0023
     29  N         14.6640   22.8790   37.2890 N.am   29  PRO29      -0.2651
     30  CA        13.2220   23.0510   37.1580 C.3    29  PRO29       0.1628
     31  C         12.5660   23.3250   38.4970 C.2    29  PRO29       0.2315
     32  O         13.1860   23.2190   39.5590 O.2    29  PRO29      -0.2861
     33  CB        12.7270   21.7100   36.5990 C.2    29  PRO29      -0.0016
     34  CG        13.8970   20.8620   36.4210 C.2    29  PRO29      -0.0072
     35  CD        15.1420   21.5920   36.7590 C.3    29  PRO29       0.1203
     36  N         10.5530   21.7830   41.1670 N.3    31  LEU31      -0.1245
     37  CA        10.5350   20.3700   41.5410 C.3    31  LEU31       0.1561
     38  C          9.7140   20.0890   42.7720 C.2    31  LEU31       0.2260
     39  O          9.7300   20.8650   43.7210 O.2    31  LEU31      -0.2867
     40  CB        11.9500   19.8540   41.7890 C.3    31  LEU31       0.0270
     41  CG        12.9060   20.0380   40.6270 C.3    31  LEU31       0.0019
     42  CD1       14.2680   20.4180   41.1370 C.3    31  LEU31       0.0001
     43  CD2       12.9200   18.7410   39.7950 C.3    31  LEU31       0.0001
     44  N          7.5660   12.6540   44.3940 N.3    49  VAL49      -0.1231
     45  CA         8.7000   13.4610   44.8000 C.3    49  VAL49       0.1692
     46  C          9.7740   13.2250   43.7460 C.2    49  VAL49       0.2592
     47  O         10.0240   12.0850   43.3400 O.2    49  VAL49      -0.2718
     48  CB         9.1920   13.0680   46.1920 C.3    49  VAL49       0.0266
     49  CG1       10.5480   13.6950   46.4900 C.3    49  VAL49       0.0020
     50  CG2        8.1630   13.4900   47.2380 C.3    49  VAL49       0.0020
     51  N         10.3820   14.3070   43.2780 N.am   50  GLY50      -0.1957
     52  CA        11.3410   14.2190   42.1900 C.3    50  GLY50       0.1869
     53  C         10.7860   14.6400   40.8400 C.2    50  GLY50       0.2309
     54  O         11.5530   14.8080   39.8940 O.2    50  GLY50      -0.2863
     55  N          9.5110   13.0210   35.3250 N.3    86  TYR86      -0.1227
     56  CA        10.3750   12.5990   36.4120 C.3    86  TYR86       0.1736
     57  C         11.8610   12.7840   36.1150 C.2    86  TYR86       0.2595
     58  O         12.3700   12.2750   35.1330 O.2    86  TYR86      -0.2718
     59  CB         9.9900   11.1970   36.8840 C.3    86  TYR86       0.0548
     60  CG        10.7720   10.6980   38.0650 C.ar   86  TYR86      -0.0200
     61  CD1       10.3950   11.0110   39.3570 C.ar   86  TYR86      -0.0009
     62  CD2       11.9350    9.9510   37.8710 C.ar   86  TYR86      -0.0009
     63  CE1       11.1370   10.5640   40.4370 C.ar   86  TYR86       0.0417
     64  CE2       12.6720    9.4980   38.9350 C.ar   86  TYR86       0.0417
     65  CZ        12.2680    9.8060   40.2120 C.ar   86  TYR86       0.1957
     66  OH        13.0170    9.3450   41.2740 O.3    86  TYR86      -0.2866
     67  N         12.5410   13.5290   36.9900 N.am   87  VAL87      -0.1980
     68  CA        13.9030   14.0040   36.7220 C.3    87  VAL87       0.1595
     69  C         15.0040   13.0100   37.0950 C.2    87  VAL87       0.2287
     70  O         14.9710   12.4040   38.1630 O.2    87  VAL87      -0.2864
     71  CB        14.1730   15.3710   37.4000 C.3    87  VAL87       0.0276
     72  CG1       15.6630   15.5510   37.6550 C.3    87  VAL87       0.0022
     73  CG2       13.6330   16.5090   36.5430 C.3    87  VAL87       0.0022
@<TRIPOS>BOND
     1    58    57    2
     2    55    56    1
     3    57    56    1
     4    57    67   am
     5    56    59    1
     6    34    33    2
     7    34    35    1
     8    21    20    2
     9    73    71    1
    10    33    30    1
    11    68    67    1
    12    68    69    1
    13    68    71    1
    14    35    29    1
    15    59    60    1
    16    19    20    1
    17    19    18    1
    18    20    22   am
    19    69    70    2
    20    30    29    1
    21    30    31    1
    22    29    24   am
    23    71    72    1
    24    24    23    1
    25    24    25    2
    26    22    23    1
    27    23    26    1
    28    62    60   ar
    29    62    64   ar
    30    60    61   ar
    31    18    10   am
    32    31    32    2
    33    64    65   ar
    34    26    27    1
    35    26    28    1
    36    10    11    2
    37    10     9    1
    38    61    63   ar
    39    43    41    1
    40    54    53    2
    41     8     9    1
    42    65    63   ar
    43    65    66    1
    44     9    12    1
    45    41    42    1
    46    41    40    1
    47    53    52    1
    48    36    37    1
    49    12    13    1
    50    37    40    1
    51    37    38    1
    52    52    51    1
    53    13    15   ar
    54    13    14   ar
    55    38    39    2
    56     4     3    2
    57    15    17   ar
    58    51    46   am
    59    47    46    2
    60    14    16   ar
    61    46    45    1
    62     3     2    1
    63    17    16   ar
    64    44    45    1
    65    45    48    1
    66     1     2    1
    67     2     5    1
    68     7     5    1
    69     5     6    1
    70    48    49    1
    71    48    50    1
