@<TRIPOS>MOLECULE
tmp/4q6uA00.pdb
 216 201 0 0 0
SMALL
GASTEIGER

@<TRIPOS>ATOM
      1  N         62.4580   16.1710   32.9900 N.3   106  LEU106     -0.1245
      2  CA        63.8100   16.4430   33.4490 C.3   106  LEU106      0.1561
      3  C         63.9760   17.9460   33.4970 C.2   106  LEU106      0.2260
      4  O         63.1370   18.6910   32.9870 O.2   106  LEU106     -0.2867
      5  CB        64.8560   15.7940   32.5230 C.3   106  LEU106      0.0270
      6  CG        64.8850   16.4360   31.1290 C.3   106  LEU106      0.0019
      7  CD1       66.2940   16.4310   30.5440 C.3   106  LEU106      0.0001
      8  CD2       63.9290   15.6790   30.2070 C.3   106  LEU106      0.0001
      9  N         67.1890   21.2190   33.5160 N.3   108  TRP108     -0.1241
     10  CA        68.5720   21.7120   33.5300 C.3   108  TRP108      0.1605
     11  C         68.6040   23.0190   34.2600 C.2   108  TRP108      0.2264
     12  O         67.9520   23.9760   33.8320 O.2   108  TRP108     -0.2867
     13  CB        69.1110   21.9420   32.1180 C.3   108  TRP108      0.0550
     14  CG        69.4890   20.7330   31.3550 C.ar  108  TRP108      0.0003
     15  CD1       69.1800   19.4320   31.6400 C.ar  108  TRP108      0.0946
     16  CD2       70.2680   20.7120   30.1610 C.ar  108  TRP108      0.0152
     17  NE1       69.7210   18.6020   30.6810 N.ar  108  TRP108     -0.2442
     18  CE2       70.4010   19.3640   29.7690 C.ar  108  TRP108      0.0810
     19  CE3       70.8910   21.7050   29.3980 C.ar  108  TRP108      0.0012
     20  CZ2       71.1190   18.9800   28.6320 C.ar  108  TRP108      0.0191
     21  CZ3       71.6030   21.3220   28.2480 C.ar  108  TRP108      0.0001
     22  CH2       71.7220   19.9740   27.8930 C.ar  108  TRP108      0.0015
     23  N         70.4570   25.9920   34.4960 N.3   110  LEU110     -0.1245
     24  CA        71.4880   26.6130   33.6700 C.3   110  LEU110      0.1561
     25  C         72.4140   27.4890   34.4990 C.2   110  LEU110      0.2260
     26  O         73.5830   27.6680   34.1600 O.2   110  LEU110     -0.2867
     27  CB        70.8380   27.4370   32.5620 C.3   110  LEU110      0.0270
     28  CG        69.8200   26.5720   31.8150 C.3   110  LEU110      0.0019
     29  CD1       68.8510   27.4470   31.0350 C.3   110  LEU110      0.0001
     30  CD2       70.5680   25.5830   30.9030 C.3   110  LEU110      0.0001
     31  N         67.5500   14.4240   36.1490 N.3   117  ASP117     -0.1239
     32  CA        66.7000   13.5700   35.3250 C.3   117  ASP117      0.1674
     33  C         65.7820   12.7170   36.1900 C.2   117  ASP117      0.2266
     34  O         65.8230   12.8010   37.4250 O.2   117  ASP117     -0.2867
     35  CB        67.5630   12.6880   34.4340 C.3   117  ASP117      0.1410
     36  CG        68.0650   13.4320   33.2240 C.2   117  ASP117      0.3668
     37  OD1       68.8580   14.3700   33.4330 O.co2 117  ASP117     -0.2456
     38  OD2       67.6350   13.1090   32.0870 O.co2 117  ASP117     -0.2456
     39  N         62.9380    9.7400   32.1700 N.3   121  SER121     -0.1202
     40  CA        63.6530   10.4510   31.0910 C.3   121  SER121      0.2020
     41  C         64.9020    9.6670   30.6940 C.2   121  SER121      0.2618
     42  O         65.2570    9.6270   29.5100 O.2   121  SER121     -0.2717
     43  CB        64.0220   11.8930   31.4990 C.3   121  SER121      0.2103
     44  OG        65.0290   11.9410   32.5190 O.3   121  SER121     -0.2182
     45  N         65.5870    9.0700   31.6760 N.am  122  LEU122     -0.1979
     46  CA        66.7720    8.2530   31.3850 C.3   122  LEU122      0.1596
     47  C         66.4300    7.0400   30.5220 C.2   122  LEU122      0.2287
     48  O         67.1000    6.7560   29.5290 O.2   122  LEU122     -0.2864
     49  CB        67.4440    7.7840   32.6910 C.3   122  LEU122      0.0297
     50  CG        68.0650    8.9020   33.5200 C.3   122  LEU122      0.0022
     51  CD1       68.5130    8.3690   34.9110 C.3   122  LEU122      0.0001
     52  CD2       69.2330    9.5320   32.7600 C.3   122  LEU122      0.0001
     53  N         65.5850    7.9800   26.9020 N.3   125  SER125     -0.1217
     54  CA        66.7660    8.3420   26.1220 C.3   125  SER125      0.1889
     55  C         67.8130    7.2220   26.0920 C.2   125  SER125      0.2288
     56  O         68.9410    7.4150   25.6280 O.2   125  SER125     -0.2866
     57  CB        67.3560    9.6690   26.6530 C.3   125  SER125      0.2089
     58  OG        67.7660    9.5630   28.0090 O.3   125  SER125     -0.2183
     59  N         69.3740    5.4010   28.4620 N.3   127  LYS127     -0.1245
     60  CA        70.3920    5.2530   29.5000 C.3   127  LYS127      0.1561
     61  C         69.9720    4.1540   30.4700 C.2   127  LYS127      0.2260
     62  O         68.8040    3.8070   30.5430 O.2   127  LYS127     -0.2867
     63  CB        70.6060    6.5670   30.2530 C.3   127  LYS127      0.0271
     64  CG        70.8720    7.7770   29.3550 C.3   127  LYS127      0.0035
     65  CD        72.1720    7.6160   28.5780 C.3   127  LYS127      0.0206
     66  CE        72.4750    8.8560   27.7400 C.3   127  LYS127      0.1093
     67  NZ        72.9170   10.0240   28.5580 N.3   127  LYS127     -0.1314
     68  N         73.7660   15.9060   37.6690 N.3   137  ARG137     -0.1245
     69  CA        74.3100   15.4730   36.3800 C.3   137  ARG137      0.1563
     70  C         74.9370   16.6200   35.5980 C.2   137  ARG137      0.2260
     71  O         74.4380   17.7480   35.6170 O.2   137  ARG137     -0.2867
     72  CB        73.2030   14.8090   35.5430 C.3   137  ARG137      0.0307
     73  CG        72.5850   13.5680   36.2040 C.3   137  ARG137      0.0489
     74  CD        71.3250   13.0580   35.4520 C.3   137  ARG137      0.2205
     75  NE        71.6230   12.6130   34.0910 N.pl3 137  ARG137     -0.0865
     76  CZ        72.1690   11.4360   33.7680 C.cat 137  ARG137      0.5346
     77  NH1       72.4970   10.5440   34.6960 N.pl3 137  ARG137      0.1354
     78  NH2       72.3730   11.1410   32.4920 N.pl3 137  ARG137      0.1354
     79  N         73.6610   14.1280   29.5860 N.3   142  ASP142     -0.1225
     80  CA        72.3200   14.1100   29.0400 C.3   142  ASP142      0.1805
     81  C         72.3280   14.2120   27.5140 C.2   142  ASP142      0.2598
     82  O         71.5460   13.5480   26.8410 O.2   142  ASP142     -0.2718
     83  CB        71.4910   15.2430   29.6380 C.3   142  ASP142      0.1424
     84  CG        70.8630   14.8500   30.9610 C.2   142  ASP142      0.3668
     85  OD1       71.2730   13.8040   31.5040 O.co2 142  ASP142     -0.2456
     86  OD2       69.9790   15.5840   31.4400 O.co2 142  ASP142     -0.2456
     87  N         73.2020   15.0490   26.9770 N.am  143  LEU143     -0.1966
     88  CA        73.3740   15.0980   25.5230 C.3   143  LEU143      0.1713
     89  C         74.0830   13.8370   25.0550 C.2   143  LEU143      0.2458
     90  O         74.9710   13.3440   25.7400 O.2   143  LEU143     -0.2730
     91  CB        74.1610   16.3440   25.1120 C.3   143  LEU143      0.0310
     92  CG        73.4700   17.6780   25.3770 C.3   143  LEU143      0.0022
     93  CD1       74.3090   18.8140   24.8270 C.3   143  LEU143      0.0001
     94  CD2       72.0530   17.6930   24.7660 C.3   143  LEU143      0.0001
     95  N         73.6900   13.3000   23.8850 N.am  144  PRO144     -0.2727
     96  CA        74.3710   12.1260   23.3520 C.3   144  PRO144      0.1402
     97  C         75.8570   12.4040   23.1330 C.2   144  PRO144      0.2269
     98  O         76.2330   13.5550   22.8880 O.2   144  PRO144     -0.2865
     99  CB        73.6580   11.8820   22.0140 C.3   144  PRO144      0.0296
    100  CG        72.3570   12.5740   22.1450 C.3   144  PRO144      0.0237
    101  CD        72.6260   13.7710   22.9810 C.3   144  PRO144      0.0939
    102  N         71.2650   25.1630   19.4470 N.3   154  GLN154     -0.1231
    103  CA        70.4300   26.0140   20.3080 C.3   154  GLN154      0.1698
    104  C         70.3900   25.5240   21.7500 C.2   154  GLN154      0.2592
    105  O         70.3210   26.3260   22.6800 O.2   154  GLN154     -0.2718
    106  CB        68.9950   26.0930   19.7730 C.3   154  GLN154      0.0381
    107  CG        68.8200   27.0090   18.5500 C.3   154  GLN154      0.0905
    108  CD        69.7020   26.6020   17.3830 C.2   154  GLN154      0.2608
    109  OE1       69.6050   25.4810   16.8800 O.2   154  GLN154     -0.2717
    110  NE2       70.5870   27.5100   16.9580 N.am  154  GLN154     -0.0878
    111  N         70.4130   24.2090   21.9340 N.am  155  VAL155     -0.1980
    112  CA        70.5020   23.6470   23.2790 C.3   155  VAL155      0.1595
    113  C         71.8380   24.0570   23.8920 C.2   155  VAL155      0.2287
    114  O         71.8870   24.4980   25.0330 O.2   155  VAL155     -0.2864
    115  CB        70.3520   22.1100   23.2710 C.3   155  VAL155      0.0276
    116  CG1       70.6110   21.5260   24.6610 C.3   155  VAL155      0.0022
    117  CG2       68.9490   21.7080   22.7600 C.3   155  VAL155      0.0022
    118  N         72.8350   26.6590   27.2590 N.3   158  ALA158     -0.1245
    119  CA        73.7340   26.3580   28.3760 C.3   158  ALA158      0.1562
    120  C         74.7980   27.4440   28.5940 C.2   158  ALA158      0.2260
    121  O         75.0650   27.8200   29.7290 O.2   158  ALA158     -0.2867
    122  CB        74.4020   24.9940   28.1730 C.3   158  ALA158      0.0290
    123  N         62.4790   30.7890   26.1520 N.3   165  LYS165     -0.1231
    124  CA        62.7540   30.0590   24.9080 C.3   165  LYS165      0.1693
    125  C         62.1620   28.6610   24.9720 C.2   165  LYS165      0.2593
    126  O         62.1660   28.0320   26.0260 O.2   165  LYS165     -0.2718
    127  CB        64.2620   29.9580   24.6400 C.3   165  LYS165      0.0285
    128  CG        65.0060   31.2810   24.6460 C.3   165  LYS165      0.0035
    129  CD        64.5470   32.2020   23.5330 C.3   165  LYS165      0.0206
    130  CE        65.5120   33.3660   23.3690 C.3   165  LYS165      0.1093
    131  NZ        66.8980   32.8780   23.1330 N.3   165  LYS165     -0.1314
    132  N         61.6350   28.1720   23.8500 N.am  166  THR166     -0.1939
    133  CA        61.1420   26.8020   23.7910 C.3   166  THR166      0.2028
    134  C         61.8620   26.0470   22.6710 C.2   166  THR166      0.2642
    135  O         62.3580   26.6550   21.7170 O.2   166  THR166     -0.2714
    136  CB        59.6040   26.7410   23.5610 C.3   166  THR166      0.1808
    137  OG1       59.2660   27.4660   22.3680 O.3   166  THR166     -0.2208
    138  CG2       58.8440   27.3470   24.7440 C.3   166  THR166      0.0379
    139  N         61.9390   24.7300   22.8000 N.am  167  LEU167     -0.1977
    140  CA        62.4050   23.8800   21.6990 C.3   167  LEU167      0.1596
    141  C         61.6360   22.5690   21.6870 C.2   167  LEU167      0.2287
    142  O         61.5140   21.9220   22.7160 O.2   167  LEU167     -0.2864
    143  CB        63.9020   23.6070   21.8160 C.3   167  LEU167      0.0297
    144  CG        64.4490   22.6250   20.7730 C.3   167  LEU167      0.0022
    145  CD1       64.1330   23.1010   19.3310 C.3   167  LEU167      0.0001
    146  CD2       65.9410   22.4830   20.9890 C.3   167  LEU167      0.0001
    147  N         64.8870   13.5430   18.1260 N.3   171  TRP171     -0.1241
    148  CA        66.3210   13.2720   18.0320 C.3   171  TRP171      0.1605
    149  C         66.6180   11.7850   17.8100 C.2   171  TRP171      0.2264
    150  O         65.8880   10.9210   18.2910 O.2   171  TRP171     -0.2867
    151  CB        67.0200   13.7550   19.3070 C.3   171  TRP171      0.0550
    152  CG        67.3290   15.2190   19.3180 C.ar  171  TRP171      0.0003
    153  CD1       66.8070   16.1770   18.4960 C.ar  171  TRP171      0.0946
    154  CD2       68.2430   15.8910   20.1900 C.ar  171  TRP171      0.0152
    155  NE1       67.3320   17.3980   18.8030 N.ar  171  TRP171     -0.2442
    156  CE2       68.2190   17.2550   19.8430 C.ar  171  TRP171      0.0810
    157  CE3       69.0780   15.4700   21.2230 C.ar  171  TRP171      0.0012
    158  CZ2       69.0060   18.2060   20.4820 C.ar  171  TRP171      0.0191
    159  CZ3       69.8580   16.4190   21.8690 C.ar  171  TRP171      0.0001
    160  CH2       69.8140   17.7700   21.5020 C.ar  171  TRP171      0.0015
    161  N         69.2220    8.7700   18.5620 N.3   173  LEU173     -0.1245
    162  CA        70.2200    8.3910   19.5660 C.3   173  LEU173      0.1561
    163  C         70.5050    6.9120   19.4590 C.2   173  LEU173      0.2260
    164  O         69.8420    6.1900   18.7270 O.2   173  LEU173     -0.2867
    165  CB        69.7150    8.6630   20.9950 C.3   173  LEU173      0.0270
    166  CG        69.5750   10.0660   21.5720 C.3   173  LEU173      0.0019
    167  CD1       68.3690   10.7550   20.9860 C.3   173  LEU173      0.0001
    168  CD2       69.4620    9.9830   23.0930 C.3   173  LEU173      0.0001
    169  N         63.8870    9.8180   20.2270 N.3   183  ILE183     -0.1245
    170  CA        63.0440   10.4600   21.2490 C.3   183  ILE183      0.1561
    171  C         62.4560   11.7770   20.7530 C.2   183  ILE183      0.2260
    172  O         63.0600   12.4720   19.9270 O.2   183  ILE183     -0.2867
    173  CB        63.8220   10.7650   22.5410 C.3   183  ILE183      0.0252
    174  CG1       65.0110   11.6940   22.2440 C.3   183  ILE183      0.0019
    175  CG2       64.3070    9.4940   23.1920 C.3   183  ILE183      0.0019
    176  CD1       65.6530   12.2900   23.5070 C.3   183  ILE183      0.0001
    177  N         61.0730   15.5180   22.4140 N.3   185  PHE185     -0.1241
    178  CA        61.0730   16.2870   23.6490 C.3   185  PHE185      0.1605
    179  C         60.5580   17.6950   23.4270 C.2   185  PHE185      0.2264
    180  O         60.5710   18.2260   22.3070 O.2   185  PHE185     -0.2867
    181  CB        62.4870   16.3250   24.2860 C.3   185  PHE185      0.0534
    182  CG        63.4870   17.1570   23.5080 C.ar  185  PHE185     -0.0203
    183  CD1       63.6340   18.5190   23.7660 C.ar  185  PHE185     -0.0042
    184  CD2       64.2770   16.5780   22.5310 C.ar  185  PHE185     -0.0042
    185  CE1       64.5480   19.2940   23.0520 C.ar  185  PHE185     -0.0003
    186  CE2       65.2140   17.3530   21.7980 C.ar  185  PHE185     -0.0003
    187  CZ        65.3440   18.7060   22.0590 C.ar  185  PHE185     -0.0000
    188  N         61.1860   21.4660   25.5940 N.3   187  ALA187     -0.1245
    189  CA        61.9270   22.1580   26.6480 C.3   187  ALA187      0.1562
    190  C         61.5480   23.6280   26.6720 C.2   187  ALA187      0.2260
    191  O         61.2790   24.2220   25.6290 O.2   187  ALA187     -0.2867
    192  CB        63.4640   22.0080   26.4530 C.3   187  ALA187      0.0290
    193  N         62.6670   27.3370   28.8360 N.3   189  SER189     -0.1217
    194  CA        63.4810   27.9730   29.8790 C.3   189  SER189      0.1889
    195  C         62.6950   29.0480   30.6120 C.2   189  SER189      0.2288
    196  O         61.8120   29.6820   30.0340 O.2   189  SER189     -0.2866
    197  CB        64.7560   28.5780   29.2800 C.3   189  SER189      0.2089
    198  OG        64.4300   29.5860   28.3450 O.3   189  SER189     -0.2183
    199  N         65.6810   25.2440   32.7200 N.3   203  ALA203     -0.1245
    200  CA        64.9230   24.7070   31.5740 C.3   203  ALA203      0.1562
    201  C         64.2390   23.4170   31.9990 C.2   203  ALA203      0.2260
    202  O         64.8880   22.4940   32.5070 O.2   203  ALA203     -0.2867
    203  CB        65.8510   24.4710   30.3590 C.3   203  ALA203      0.0290
    204  N         61.7250   20.1980   30.9400 N.3   205  ALA205     -0.1245
    205  CA        61.4870   19.4540   29.7160 C.3   205  ALA205      0.1562
    206  C         60.7510   18.1470   29.9840 C.2   205  ALA205      0.2260
    207  O         60.6670   17.6800   31.1290 O.2   205  ALA205     -0.2867
    208  CB        62.8430   19.1800   29.0030 C.3   205  ALA205      0.0290
    209  N         60.6440   14.2580   27.8070 N.3   206  ASN206     -0.1240
    210  CA        60.8720   13.4720   26.5960 C.3   206  ASN206      0.1653
    211  C         59.9210   12.2860   26.5380 C.2   206  ASN206      0.2266
    212  O         59.1210   12.0650   27.4670 O.2   206  ASN206     -0.2867
    213  CB        62.3500   13.0230   26.4720 C.3   206  ASN206      0.1155
    214  CG        62.7760   12.0070   27.5320 C.2   206  ASN206      0.2627
    215  OD1       61.9550   11.3710   28.1840 O.2   206  ASN206     -0.2716
    216  ND2       64.0960   11.8250   27.6660 N.am  206  ASN206     -0.0877
@<TRIPOS>BOND
     1   109   108    2
     2   110   108   am
     3   108   107    1
     4   149   148    1
     5   149   150    2
     6   148   147    1
     7   148   151    1
     8   153   155   ar
     9   153   152   ar
    10   107   106    1
    11   161   162    1
    12   164   163    2
    13   155   156   ar
    14   151   152    1
    15   152   154   ar
    16   145   144    1
    17   102   103    1
    18   163   162    1
    19   162   165    1
    20   106   103    1
    21   156   154   ar
    22   156   158   ar
    23   172   171    2
    24   154   157   ar
    25   169   170    1
    26   103   104    1
    27   158   160   ar
    28   171   170    1
    29   144   146    1
    30   144   143    1
    31   167   166    1
    32   165   166    1
    33   157   159   ar
    34   170   173    1
    35   160   159   ar
    36   166   168    1
    37   141   140    1
    38   141   142    2
    39   140   143    1
    40   140   139    1
    41   135   134    2
    42   104   111   am
    43   104   105    2
    44   186   187   ar
    45   186   184   ar
    46   111   112    1
    47    99   100    1
    48    99    96    1
    49   187   185   ar
    50   100   101    1
    51   174   173    1
    52   174   176    1
    53   180   179    2
    54   137   136    1
    55   177   178    1
    56   184   182   ar
    57   173   175    1
    58   134   139   am
    59   134   133    1
    60   117   115    1
    61    98    97    2
    62   101    95    1
    63   185   183   ar
    64   131   130    1
    65    97    96    1
    66   115   112    1
    67   115   116    1
    68   112   113    1
    69    96    95    1
    70   130   129    1
    71   179   178    1
    72   182   183   ar
    73   182   181    1
    74   129   128    1
    75   136   133    1
    76   136   138    1
    77   178   181    1
    78   133   132    1
    79   132   125   am
    80    95    89   am
    81   113   114    2
    82   127   128    1
    83   127   124    1
    84    94    92    1
    85    93    92    1
    86   124   125    1
    87   124   123    1
    88   125   126    2
    89    89    88    1
    90    89    90    2
    91    91    92    1
    92    91    88    1
    93    88    87    1
    94   188   189    1
    95    56    55    2
    96   191   190    2
    97    55    54    1
    98    54    57    1
    99    54    53    1
   100   192   189    1
   101   213   210    1
   102   213   214    1
   103   211   210    1
   104   211   212    2
   105   210   209    1
   106   189   190    1
   107    57    58    1
   108    82    81    2
   109    87    81   am
   110   118   119    1
   111    81    80    1
   112   214   216   am
   113   214   215    2
   114    66    67    1
   115    66    65    1
   116    22    21   ar
   117    22    20   ar
   118   122   119    1
   119    21    19   ar
   120   198   197    1
   121   119   120    1
   122    59    60    1
   123    65    64    1
   124   120   121    2
   125    20    18   ar
   126   193   194    1
   127   208   205    1
   128    80    79    1
   129    80    83    1
   130   197   194    1
   131    64    63    1
   132    19    16   ar
   133    60    63    1
   134    60    61    1
   135    42    41    2
   136    48    47    2
   137    83    84    1
   138   205   206    1
   139   205   204    1
   140    18    16   ar
   141    18    17   ar
   142   194   195    1
   143   206   207    2
   144   196   195    2
   145    16    14   ar
   146     8     6    1
   147   203   200    1
   148    61    62    2
   149    47    46    1
   150     7     6    1
   151    17    15   ar
   152    41    40    1
   153    41    45   am
   154    30    28    1
   155    84    86   ar
   156    84    85   ar
   157    29    28    1
   158    40    43    1
   159    40    39    1
   160     6     5    1
   161    14    15   ar
   162    14    13    1
   163    46    45    1
   164    46    49    1
   165    43    44    1
   166   200   201    1
   167   200   199    1
   168    28    27    1
   169   201   202    2
   170    38    36   ar
   171    13    10    1
   172    78    76    1
   173     5     2    1
   174    27    24    1
   175    49    50    1
   176    52    50    1
   177     4     3    2
   178     1     2    1
   179    36    37   ar
   180    36    35    1
   181     2     3    1
   182     9    10    1
   183    50    51    1
   184    10    11    1
   185    24    23    1
   186    24    25    1
   187    76    75    2
   188    76    77    1
   189    12    11    2
   190    75    74    1
   191    26    25    2
   192    35    32    1
   193    32    31    1
   194    32    33    1
   195    74    73    1
   196    72    73    1
   197    72    69    1
   198    70    71    2
   199    70    69    1
   200    33    34    2
   201    69    68    1
