@<TRIPOS>MOLECULE
tmp/4q6wB00.pdb
 104 96 0 0 0
SMALL
GASTEIGER

@<TRIPOS>ATOM
      1  N         77.0120   15.5590   15.2930 N.3    19  PHE19      -0.1241
      2  CA        77.9240   16.2370   16.2190 C.3    19  PHE19       0.1605
      3  C         79.3120   15.6150   16.3100 C.2    19  PHE19       0.2264
      4  O         80.3070   16.3230   16.2230 O.2    19  PHE19      -0.2867
      5  CB        77.2920   16.3890   17.5980 C.3    19  PHE19       0.0534
      6  CG        76.0170   17.1930   17.5800 C.ar   19  PHE19      -0.0203
      7  CD1       76.0610   18.5850   17.4780 C.ar   19  PHE19      -0.0042
      8  CD2       74.7890   16.5670   17.6480 C.ar   19  PHE19      -0.0042
      9  CE1       74.8860   19.3380   17.4360 C.ar   19  PHE19      -0.0003
     10  CE2       73.6040   17.3040   17.6270 C.ar   19  PHE19      -0.0003
     11  CZ        73.6510   18.6920   17.5210 C.ar   19  PHE19      -0.0000
     12  N         76.9430    9.4570   21.5770 N.3    54  LEU54      -0.1245
     13  CA        76.2270   10.3640   22.4880 C.3    54  LEU54       0.1561
     14  C         75.6590    9.6190   23.6990 C.2    54  LEU54       0.2260
     15  O         74.7770   10.1310   24.3960 O.2    54  LEU54      -0.2867
     16  CB        75.0950   11.1450   21.7800 C.3    54  LEU54       0.0270
     17  CG        74.7860   12.5560   22.3120 C.3    54  LEU54       0.0019
     18  CD1       75.7300   13.6010   21.6930 C.3    54  LEU54       0.0001
     19  CD2       73.2930   12.9630   22.1280 C.3    54  LEU54       0.0001
     20  N         80.4250   15.2000   22.3950 N.3    79  ALA79      -0.1231
     21  CA        79.1900   15.9650   22.3580 C.3    79  ALA79       0.1694
     22  C         78.2290   15.4450   23.4360 C.2    79  ALA79       0.2593
     23  O         78.3100   14.2750   23.8670 O.2    79  ALA79      -0.2718
     24  CB        78.5540   15.8680   20.9750 C.3    79  ALA79       0.0304
     25  N         77.3050   16.3040   23.8640 N.am   80  GLY80      -0.1942
     26  CA        76.2280   15.8400   24.7090 C.3    80  GLY80       0.2014
     27  C         76.4510   16.1280   26.1780 C.2    80  GLY80       0.2639
     28  O         77.4950   15.7920   26.7540 O.2    80  GLY80      -0.2714
     29  N         75.4570   16.7470   26.8010 N.am   81  SER81      -0.1949
     30  CA        75.4890   16.9770   28.2300 C.3    81  SER81       0.1924
     31  C         75.4780   15.6610   28.9930 C.2    81  SER81       0.2314
     32  O         76.0900   15.5630   30.0610 O.2    81  SER81      -0.2863
     33  CB        74.3150   17.8500   28.6660 C.3    81  SER81       0.2116
     34  OG        74.5980   19.2160   28.3990 O.3    81  SER81      -0.2180
     35  N         80.7410   21.1020   22.7450 N.3    99  ILE99      -0.1231
     36  CA        79.3180   21.3260   22.4700 C.3    99  ILE99       0.1692
     37  C         78.3910   21.4210   23.6850 C.2    99  ILE99       0.2592
     38  O         77.5320   22.3070   23.7300 O.2    99  ILE99      -0.2718
     39  CB        78.7710   20.2430   21.5420 C.3    99  ILE99       0.0266
     40  CG1       79.6260   20.1650   20.2700 C.3    99  ILE99       0.0019
     41  CG2       77.3330   20.5720   21.1530 C.3    99  ILE99       0.0020
     42  CD1       79.3570   18.9510   19.3930 C.3    99  ILE99       0.0001
     43  N         78.5520   20.5110   24.6470 N.am  100  ALA100     -0.1966
     44  CA        77.5730   20.3570   25.7420 C.3   100  ALA100      0.1728
     45  C         77.2690   21.6730   26.4460 C.2   100  ALA100      0.2616
     46  O         78.1810   22.3660   26.9120 O.2   100  ALA100     -0.2715
     47  CB        78.0310   19.3140   26.7170 C.3   100  ALA100      0.0334
     48  N         75.9760   22.0120   26.5180 N.am  101  GLN101     -0.1977
     49  CA        75.5540   23.3630   26.8910 C.3   101  GLN101      0.1601
     50  C         75.0920   23.5070   28.3220 C.2   101  GLN101      0.2287
     51  O         74.7270   24.6170   28.7350 O.2   101  GLN101     -0.2864
     52  CB        74.4190   23.8480   25.9760 C.3   101  GLN101      0.0394
     53  CG        74.7570   23.8280   24.4990 C.3   101  GLN101      0.0908
     54  CD        73.7450   24.6040   23.6540 C.2   101  GLN101      0.2608
     55  OE1       72.8070   25.2110   24.1780 O.2   101  GLN101     -0.2717
     56  NE2       73.9410   24.5920   22.3450 N.am  101  GLN101     -0.0878
     57  N         63.9290   17.3730   25.7510 N.3   149  GLU149     -0.1245
     58  CA        64.4650   16.0230   25.9290 C.3   149  GLU149      0.1567
     59  C         64.8410   15.8640   27.4080 C.2   149  GLU149      0.2260
     60  O         65.1020   16.8530   28.1030 O.2   149  GLU149     -0.2867
     61  CB        65.6860   15.7710   25.0360 C.3   149  GLU149      0.0388
     62  CG        66.9250   16.5520   25.4580 C.3   149  GLU149      0.1160
     63  CD        68.1910   16.1400   24.7090 C.2   149  GLU149      0.3649
     64  OE1       69.2930   16.3160   25.2800 O.co2 149  GLU149     -0.2457
     65  OE2       68.1040   15.6560   23.5500 O.co2 149  GLU149     -0.2457
     66  N         67.3490   15.3070   29.4250 N.3   151  THR151     -0.1218
     67  CA        68.7550   15.3940   29.7670 C.3   151  THR151      0.1862
     68  C         68.9350   16.7160   30.4930 C.2   151  THR151      0.2287
     69  O         68.0260   17.5550   30.5180 O.2   151  THR151     -0.2866
     70  CB        69.6700   15.4220   28.5080 C.3   151  THR151      0.1770
     71  OG1       69.4170   16.6250   27.7690 O.3   151  THR151     -0.2211
     72  CG2       69.4190   14.2090   27.6040 C.3   151  THR151      0.0375
     73  N         70.6930   18.9530   29.4160 N.3   153  TYR153     -0.1241
     74  CA        70.5560   19.9150   28.3260 C.3   153  TYR153      0.1605
     75  C         69.1240   20.4410   28.2690 C.2   153  TYR153      0.2264
     76  O         68.8940   21.6640   28.3070 O.2   153  TYR153     -0.2867
     77  CB        70.9800   19.2740   27.0000 C.3   153  TYR153      0.0534
     78  CG        70.7310   20.1180   25.7760 C.ar  153  TYR153     -0.0201
     79  CD1       71.0280   21.4800   25.7590 C.ar  153  TYR153     -0.0009
     80  CD2       70.2210   19.5420   24.6180 C.ar  153  TYR153     -0.0009
     81  CE1       70.8060   22.2480   24.6080 C.ar  153  TYR153      0.0417
     82  CE2       70.0110   20.2890   23.4750 C.ar  153  TYR153      0.0417
     83  CZ        70.3040   21.6360   23.4720 C.ar  153  TYR153      0.1957
     84  OH        70.1000   22.3520   22.3130 O.3   153  TYR153     -0.2866
     85  N         67.3960   17.8130   20.1240 N.3   204  LEU204     -0.1245
     86  CA        68.2040   17.6720   18.9240 C.3   204  LEU204      0.1561
     87  C         67.3330   17.3590   17.7090 C.2   204  LEU204      0.2260
     88  O         66.1570   17.0030   17.8340 O.2   204  LEU204     -0.2867
     89  CB        69.2990   16.6080   19.1310 C.3   204  LEU204      0.0270
     90  CG        70.0540   16.8690   20.4440 C.3   204  LEU204      0.0019
     91  CD1       71.0600   15.7580   20.7700 C.3   204  LEU204      0.0001
     92  CD2       70.7560   18.2190   20.4040 C.3   204  LEU204      0.0001
     93  N         70.9770   23.6210   18.7580 N.3   228  GLY228     -0.1285
     94  CA        71.4380   22.2800   18.5820 C.3   228  GLY228      0.1447
     95  C         70.3320   21.5490   17.7650 C.3   228  GLY228      0.2025
     96  O         70.6650   20.4580   17.3260 O.3   228  GLY228     -0.2188
     97  N         77.5680   24.8190   15.1690 N.3   288  ILE288     -0.1245
     98  CA        77.3150   24.0450   16.3600 C.3   288  ILE288      0.1561
     99  C         77.6030   22.5610   16.1520 C.2   288  ILE288      0.2260
    100  O         77.6810   21.7930   17.1090 O.2   288  ILE288     -0.2867
    101  CB        75.8840   24.3120   16.8780 C.3   288  ILE288      0.0252
    102  CG1       75.8160   24.0890   18.3890 C.3   288  ILE288      0.0019
    103  CG2       74.8840   23.4800   16.0940 C.3   288  ILE288      0.0019
    104  CD1       74.5310   24.6060   19.0370 C.3   288  ILE288      0.0001
@<TRIPOS>BOND
     1    97    98    1
     2     1     2    1
     3   103   101    1
     4    99    98    1
     5    99   100    2
     6     2     3    1
     7     2     5    1
     8     4     3    2
     9    98   101    1
    10   101   102    1
    11    96    95    1
    12     9     7   ar
    13     9    11   ar
    14     7     6   ar
    15    11    10   ar
    16     6     5    1
    17     6     8   ar
    18    10     8   ar
    19    87    88    2
    20    87    86    1
    21    95    94    1
    22   102   104    1
    23    94    93    1
    24    86    89    1
    25    86    85    1
    26    89    90    1
    27    42    40    1
    28    40    39    1
    29    92    90    1
    30    90    91    1
    31    24    21    1
    32    41    39    1
    33    39    36    1
    34    12    13    1
    35    18    17    1
    36    16    17    1
    37    16    13    1
    38    19    17    1
    39    84    83    1
    40    56    54   am
    41    21    20    1
    42    21    22    1
    43    36    35    1
    44    36    37    1
    45    13    14    1
    46    22    25   am
    47    22    23    2
    48    83    82   ar
    49    83    81   ar
    50    82    80   ar
    51    65    63   ar
    52    54    55    2
    53    54    53    1
    54    37    38    2
    55    37    43   am
    56    14    15    2
    57    25    26    1
    58    53    52    1
    59    81    79   ar
    60    80    78   ar
    61    43    44    1
    62    63    64   ar
    63    63    62    1
    64    26    27    1
    65    61    62    1
    66    61    58    1
    67    44    45    1
    68    44    47    1
    69    57    58    1
    70    79    78   ar
    71    78    77    1
    72    58    59    1
    73    52    49    1
    74    27    28    2
    75    27    29   am
    76    45    48   am
    77    45    46    2
    78    48    49    1
    79    29    30    1
    80    49    50    1
    81    77    74    1
    82    59    60    2
    83    72    70    1
    84    71    70    1
    85    30    33    1
    86    30    31    1
    87    75    76    2
    88    75    74    1
    89    50    51    2
    90    74    73    1
    91    34    33    1
    92    70    67    1
    93    31    32    2
    94    66    67    1
    95    67    68    1
    96    68    69    2
