@<TRIPOS>MOLECULE
tmp/4q6yA01.pdb
 92 85 0 0 0
SMALL
GASTEIGER

@<TRIPOS>ATOM
      1  N        -12.4970  -47.7090   20.0450 N.3     4  SER4       -0.1217
      2  CA       -13.1150  -46.7530   19.1570 C.3     4  SER4        0.1889
      3  C        -14.0600  -47.4730   18.1970 C.2     4  SER4        0.2288
      4  O        -13.8480  -48.6370   17.8670 O.2     4  SER4       -0.2866
      5  CB       -12.0480  -46.0100   18.3880 C.3     4  SER4        0.2089
      6  OG       -11.1380  -45.4290   19.2880 O.3     4  SER4       -0.2183
      7  N        -16.1200  -47.3550   14.4200 N.3     6  PHE6       -0.1241
      8  CA       -16.2540  -46.7580   13.1060 C.3     6  PHE6        0.1605
      9  C        -17.3560  -47.4290   12.3340 C.2     6  PHE6        0.2264
     10  O        -17.4700  -48.6320   12.3600 O.2     6  PHE6       -0.2867
     11  CB       -14.9450  -46.8550   12.3590 C.3     6  PHE6        0.0534
     12  CG       -13.7910  -46.2490   13.0890 C.ar    6  PHE6       -0.0203
     13  CD1      -13.9900  -45.3470   14.1070 C.ar    6  PHE6       -0.0042
     14  CD2      -12.5050  -46.5860   12.7510 C.ar    6  PHE6       -0.0042
     15  CE1      -12.9250  -44.7950   14.7720 C.ar    6  PHE6       -0.0003
     16  CE2      -11.4320  -46.0360   13.4070 C.ar    6  PHE6       -0.0003
     17  CZ       -11.6400  -45.1390   14.4220 C.ar    6  PHE6       -0.0000
     18  N        -19.4300  -47.8400    8.6350 N.3     8  PHE8       -0.1228
     19  CA       -19.1720  -47.7480    7.1970 C.3     8  PHE8        0.1721
     20  C        -20.3940  -47.9020    6.3270 C.2     8  PHE8        0.2437
     21  O        -21.2990  -48.6720    6.6260 O.2     8  PHE8       -0.2733
     22  CB       -18.1460  -48.7750    6.7700 C.3     8  PHE8        0.0547
     23  CG       -16.8030  -48.5350    7.3290 C.ar    8  PHE8       -0.0202
     24  CD1      -16.4030  -49.1690    8.4870 C.ar    8  PHE8       -0.0042
     25  CD2      -15.9330  -47.6710    6.7010 C.ar    8  PHE8       -0.0042
     26  CE1      -15.1350  -48.9450    9.0100 C.ar    8  PHE8       -0.0003
     27  CE2      -14.6860  -47.4420    7.2070 C.ar    8  PHE8       -0.0003
     28  CZ       -14.2780  -48.0770    8.3660 C.ar    8  PHE8       -0.0000
     29  N        -20.4380  -47.1270    5.2470 N.am    9  PRO9       -0.2729
     30  CA       -21.5850  -47.2190    4.3500 C.3     9  PRO9        0.1401
     31  C        -21.4650  -48.3920    3.4140 C.2     9  PRO9        0.2269
     32  O        -20.3560  -48.8810    3.1550 O.2     9  PRO9       -0.2865
     33  CB       -21.5220  -45.9050    3.5680 C.3     9  PRO9        0.0296
     34  CG       -20.0500  -45.6050    3.5090 C.3     9  PRO9        0.0237
     35  CD       -19.4660  -46.0990    4.8140 C.3     9  PRO9        0.0939
     36  N        -21.2140  -50.4750   -0.0680 N.3    11  LYS11      -0.1245
     37  CA       -20.4890  -50.2250   -1.2900 C.3    11  LYS11       0.1561
     38  C        -21.4410  -49.7010   -2.3340 C.2    11  LYS11       0.2260
     39  O        -22.5830  -50.1420   -2.4280 O.2    11  LYS11      -0.2867
     40  CB       -19.8220  -51.5010   -1.7750 C.3    11  LYS11       0.0271
     41  CG       -18.9090  -51.3070   -2.9520 C.3    11  LYS11       0.0035
     42  CD       -18.3400  -52.6340   -3.4660 C.3    11  LYS11       0.0206
     43  CE       -17.3940  -52.3540   -4.6320 C.3    11  LYS11       0.1093
     44  NZ       -16.7160  -53.5660   -5.1250 N.3    11  LYS11      -0.1314
     45  N        -24.2540  -53.5330    2.4190 N.3    23  GLU23      -0.1245
     46  CA       -24.1180  -53.7960    3.8350 C.3    23  GLU23       0.1567
     47  C        -23.4680  -52.6280    4.5740 C.2    23  GLU23       0.2260
     48  O        -22.3850  -52.1540    4.1720 O.2    23  GLU23      -0.2867
     49  CB       -23.3100  -55.0880    4.0480 C.3    23  GLU23       0.0388
     50  CG       -21.9660  -55.1560    3.3230 C.3    23  GLU23       0.1160
     51  CD       -21.4650  -56.5950    3.1700 C.2    23  GLU23       0.3649
     52  OE1      -22.2180  -57.5600    3.3080 O.co2  23  GLU23      -0.2457
     53  OE2      -20.2410  -56.5960    2.9000 O.co2  23  GLU23      -0.2457
     54  N        -21.6240  -51.4940    7.9390 N.3    25  THR25      -0.1218
     55  CA       -20.7280  -52.2030    8.8180 C.3    25  THR25       0.1862
     56  C        -20.2270  -51.4040    9.9980 C.2    25  THR25       0.2287
     57  O        -19.6410  -50.3350    9.8300 O.2    25  THR25      -0.2866
     58  CB       -19.5320  -52.7030    8.0360 C.3    25  THR25       0.1770
     59  OG1      -19.9880  -53.7120    7.1340 O.3    25  THR25      -0.2211
     60  CG2      -18.5050  -53.3090    8.9640 C.3    25  THR25       0.0375
     61  N        -17.5320  -51.3390   12.8180 N.3    27  VAL27      -0.1245
     62  CA       -16.2330  -51.9240   13.1020 C.3    27  VAL27       0.1561
     63  C        -15.6800  -51.4010   14.4160 C.2    27  VAL27       0.2260
     64  O        -15.4230  -50.2120   14.5340 O.2    27  VAL27      -0.2867
     65  CB       -15.2440  -51.5920   11.9880 C.3    27  VAL27       0.0252
     66  CG1      -13.8580  -52.0730   12.3440 C.3    27  VAL27       0.0019
     67  CG2      -15.7310  -52.1650   10.6790 C.3    27  VAL27       0.0019
     68  N        -12.5640  -51.4290   17.0890 N.3    29  VAL29      -0.1245
     69  CA       -11.1440  -51.7450   17.0740 C.3    29  VAL29       0.1561
     70  C        -10.4920  -51.3840   18.3870 C.2    29  VAL29       0.2260
     71  O        -11.0880  -50.6800   19.1900 O.2    29  VAL29      -0.2867
     72  CB       -10.4220  -51.0070   15.9200 C.3    29  VAL29       0.0252
     73  CG1      -10.9040  -51.5100   14.5530 C.3    29  VAL29       0.0019
     74  CG2      -10.6010  -49.4900   16.0400 C.3    29  VAL29       0.0019
     75  N        -10.2320  -56.8630   16.8000 N.3    66  ARG66      -0.1245
     76  CA       -11.2260  -56.0840   16.1120 C.3    66  ARG66       0.1563
     77  C        -12.4710  -56.9240   15.9270 C.2    66  ARG66       0.2260
     78  O        -12.4370  -57.9330   15.2450 O.2    66  ARG66      -0.2867
     79  CB       -10.6950  -55.6390   14.7590 C.3    66  ARG66       0.0307
     80  CG        -9.4450  -54.7850   14.9030 C.3    66  ARG66       0.0489
     81  CD        -8.8160  -54.4280   13.5930 C.3    66  ARG66       0.2205
     82  NE        -8.2960  -55.7030   13.0140 N.pl3  66  ARG66      -0.0865
     83  CZ        -7.7200  -55.7690   11.8170 C.cat  66  ARG66       0.5346
     84  NH1       -7.6470  -54.7250   11.0320 N.pl3  66  ARG66       0.1354
     85  NH2       -7.1520  -56.9510   11.4290 N.pl3  66  ARG66       0.1354
     86  N        -16.1920  -57.0590   14.2180 N.3    68  VAL68      -0.1245
     87  CA       -16.9500  -56.4180   13.1470 C.3    68  VAL68       0.1561
     88  C        -18.4010  -56.9180   13.0680 C.2    68  VAL68       0.2260
     89  O        -18.6520  -58.1060   12.9050 O.2    68  VAL68      -0.2867
     90  CB       -16.2410  -56.6240   11.7720 C.3    68  VAL68       0.0252
     91  CG1      -17.1470  -56.2270   10.6010 C.3    68  VAL68       0.0019
     92  CG2      -14.8800  -55.9130   11.7390 C.3    68  VAL68       0.0019
@<TRIPOS>BOND
     1    44    43    1
     2    43    42    1
     3    42    41    1
     4    41    40    1
     5    39    38    2
     6    38    37    1
     7    40    37    1
     8    37    36    1
     9    45    46    1
    10    53    51   ar
    11    32    31    2
    12    51    52   ar
    13    51    50    1
    14    50    49    1
    15    31    30    1
    16    34    33    1
    17    34    35    1
    18    33    30    1
    19    46    49    1
    20    46    47    1
    21    48    47    2
    22    30    29    1
    23    35    29    1
    24    29    20   am
    25    20    21    2
    26    20    19    1
    27    25    27   ar
    28    25    23   ar
    29    22    19    1
    30    22    23    1
    31    59    58    1
    32    19    18    1
    33    27    28   ar
    34    23    24   ar
    35    54    55    1
    36    58    55    1
    37    58    60    1
    38    28    26   ar
    39    24    26   ar
    40    55    56    1
    41    57    56    2
    42    91    90    1
    43    67    65    1
    44    84    83    1
    45    85    83    1
    46    92    90    1
    47    90    87    1
    48    83    82    2
    49    65    66    1
    50    65    62    1
    51     9    10    2
    52     9     8    1
    53    11    12    1
    54    11     8    1
    55    14    12   ar
    56    14    16   ar
    57    61    62    1
    58    89    88    2
    59    82    81    1
    60    88    87    1
    61    12    13   ar
    62    62    63    1
    63     8     7    1
    64    87    86    1
    65    16    17   ar
    66    81    80    1
    67    13    15   ar
    68    63    64    2
    69    17    15   ar
    70    73    72    1
    71    79    80    1
    72    79    76    1
    73    78    77    2
    74    72    74    1
    75    72    69    1
    76    77    76    1
    77    76    75    1
    78    69    68    1
    79    69    70    1
    80     4     3    2
    81     3     2    1
    82    70    71    2
    83     5     2    1
    84     5     6    1
    85     2     1    1
