@<TRIPOS>MOLECULE
tmp/4q6yB00.pdb
 153 143 0 0 0
SMALL
GASTEIGER

@<TRIPOS>ATOM
      1  N         -4.5910  -39.4910   25.0090 N.3     2  SER2       -0.1217
      2  CA        -3.8960  -39.9350   23.8100 C.3     2  SER2        0.1889
      3  C         -3.2140  -38.7570   23.1440 C.2     2  SER2        0.2288
      4  O         -3.7210  -37.6360   23.2000 O.2     2  SER2       -0.2866
      5  CB        -4.8660  -40.6200   22.8480 C.3     2  SER2        0.2089
      6  OG        -5.5210  -41.7110   23.4800 O.3     2  SER2       -0.2183
      7  N         -1.5920  -36.9700   19.7120 N.3     4  PHE4       -0.1241
      8  CA        -1.5390  -36.8700   18.2590 C.3     4  PHE4        0.1605
      9  C         -0.7450  -35.6830   17.7660 C.2     4  PHE4        0.2264
     10  O         -0.9540  -34.5740   18.2090 O.2     4  PHE4       -0.2867
     11  CB        -2.9390  -36.7700   17.7010 C.3     4  PHE4        0.0534
     12  CG        -3.7570  -37.9870   17.9390 C.ar    4  PHE4       -0.0203
     13  CD1       -3.5200  -38.7760   19.0320 C.ar    4  PHE4       -0.0042
     14  CD2       -4.7520  -38.3440   17.0610 C.ar    4  PHE4       -0.0042
     15  CE1       -4.2690  -39.8990   19.2500 C.ar    4  PHE4       -0.0003
     16  CE2       -5.5100  -39.4660   17.2710 C.ar    4  PHE4       -0.0003
     17  CZ        -5.2660  -40.2450   18.3700 C.ar    4  PHE4       -0.0000
     18  N          0.6130  -33.4380   14.4360 N.3     6  PHE6       -0.1228
     19  CA         0.2330  -33.1580   13.0630 C.3     6  PHE6        0.1721
     20  C          1.2880  -32.3330   12.3910 C.2     6  PHE6        0.2437
     21  O          1.8760  -31.4450   13.0190 O.2     6  PHE6       -0.2733
     22  CB        -1.1160  -32.4490   12.9860 C.3     6  PHE6        0.0547
     23  CG        -2.2550  -33.2850   13.4700 C.ar    6  PHE6       -0.0202
     24  CD1       -2.9660  -34.0800   12.5980 C.ar    6  PHE6       -0.0042
     25  CD2       -2.6160  -33.2830   14.8030 C.ar    6  PHE6       -0.0042
     26  CE1       -4.0190  -34.8620   13.0490 C.ar    6  PHE6       -0.0003
     27  CE2       -3.6680  -34.0650   15.2580 C.ar    6  PHE6       -0.0003
     28  CZ        -4.3680  -34.8540   14.3750 C.ar    6  PHE6       -0.0000
     29  N          1.5560  -32.6560   11.1120 N.am    7  PRO7       -0.2729
     30  CA         2.5240  -31.9860   10.2410 C.3     7  PRO7        0.1401
     31  C          1.9560  -30.6880    9.6460 C.2     7  PRO7        0.2269
     32  O          0.7460  -30.5170    9.5580 O.2     7  PRO7       -0.2865
     33  CB         2.7920  -33.0370    9.1620 C.3     7  PRO7        0.0296
     34  CG         1.5120  -33.7590    9.0440 C.3     7  PRO7        0.0237
     35  CD         0.9250  -33.8040   10.4310 C.3     7  PRO7        0.0939
     36  N          0.9510  -27.7250    6.8550 N.3     9  LYS9       -0.1245
     37  CA         0.3110  -27.7860    5.5680 C.3     9  LYS9        0.1561
     38  C          1.3840  -27.5380    4.4890 C.2     9  LYS9        0.2260
     39  O          2.2410  -26.6610    4.6500 O.2     9  LYS9       -0.2867
     40  CB        -0.8520  -26.7850    5.5110 C.3     9  LYS9        0.0271
     41  CG        -2.0370  -27.1560    6.4060 C.3     9  LYS9        0.0035
     42  CD        -3.1090  -26.0660    6.4350 C.3     9  LYS9        0.0206
     43  CE        -3.7990  -25.8390    5.0770 C.3     9  LYS9        0.1093
     44  NZ        -4.9280  -24.8390    5.2000 N.3     9  LYS9       -0.1314
     45  N          1.9950  -24.1160    3.4450 N.3    12  ASP12      -0.1239
     46  CA         2.7850  -23.3090    4.3770 C.3    12  ASP12       0.1674
     47  C          4.2920  -23.6260    4.2630 C.2    12  ASP12       0.2266
     48  O          5.1190  -22.7140    4.3330 O.2    12  ASP12      -0.2867
     49  CB         2.3490  -23.5130    5.8490 C.3    12  ASP12       0.1410
     50  CG         0.8760  -23.1360    6.1450 C.2    12  ASP12       0.3668
     51  OD1        0.2660  -22.3130    5.4250 O.co2  12  ASP12      -0.2456
     52  OD2        0.3510  -23.6690    7.1550 O.co2  12  ASP12      -0.2456
     53  N          3.6140  -25.0580   10.5570 N.3    21  GLU21      -0.1245
     54  CA         3.5340  -25.4170   11.9550 C.3    21  GLU21       0.1567
     55  C          3.1830  -26.8670   12.2170 C.2    21  GLU21       0.2260
     56  O          2.1550  -27.3620   11.7370 O.2    21  GLU21      -0.2867
     57  CB         2.4740  -24.5610   12.6570 C.3    21  GLU21       0.0388
     58  CG         2.7650  -23.0680   12.7530 C.3    21  GLU21       0.1160
     59  CD         1.5830  -22.2750   13.2950 C.2    21  GLU21       0.3649
     60  OE1        0.4450  -22.7920   13.2780 O.co2  21  GLU21      -0.2457
     61  OE2        1.8070  -21.1410   13.7690 O.co2  21  GLU21      -0.2457
     62  N          1.7140  -29.4240   14.9910 N.3    23  THR23      -0.1218
     63  CA         0.6920  -29.2970   16.0390 C.3    23  THR23       0.1862
     64  C          0.6120  -30.5290   16.9710 C.2    23  THR23       0.2287
     65  O          0.4500  -31.6520   16.5050 O.2    23  THR23      -0.2866
     66  CB        -0.6800  -29.0220   15.3580 C.3    23  THR23       0.1770
     67  OG1       -0.8010  -27.6160   15.0900 O.3    23  THR23      -0.2211
     68  CG2       -1.8340  -29.4550   16.2110 C.3    23  THR23       0.0375
     69  N         -1.5740  -32.4800   19.7350 N.3    25  VAL25      -0.1245
     70  CA        -2.9140  -32.4500   20.3280 C.3    25  VAL25       0.1561
     71  C         -3.1740  -33.5180   21.3950 C.2    25  VAL25       0.2260
     72  O         -3.0270  -34.7090   21.1550 O.2    25  VAL25      -0.2867
     73  CB        -3.9950  -32.5230   19.2330 C.3    25  VAL25       0.0252
     74  CG1       -5.3750  -32.7190   19.8520 C.3    25  VAL25       0.0019
     75  CG2       -3.9370  -31.2770   18.3790 C.3    25  VAL25       0.0019
     76  N         -5.7730  -35.3660   23.9600 N.3    27  VAL27      -0.1231
     77  CA        -7.1790  -35.6900   24.0670 C.3    27  VAL27       0.1692
     78  C         -7.3660  -36.6160   25.2480 C.2    27  VAL27       0.2592
     79  O         -6.4090  -37.2520   25.7110 O.2    27  VAL27      -0.2718
     80  CB        -7.7060  -36.3780   22.8160 C.3    27  VAL27       0.0266
     81  CG1       -7.4990  -35.4830   21.6280 C.3    27  VAL27       0.0020
     82  CG2       -6.9700  -37.6890   22.6020 C.3    27  VAL27       0.0020
     83  N         -8.6050  -36.6850   25.7200 N.am   28  ASP28      -0.1974
     84  CA        -8.9750  -37.5690   26.8050 C.3    28  ASP28       0.1709
     85  C         -8.2360  -37.1970   28.0770 C.2    28  ASP28       0.2293
     86  O         -7.5780  -38.0510   28.6820 O.2    28  ASP28      -0.2864
     87  CB        -8.7050  -39.0400   26.4450 C.3    28  ASP28       0.1436
     88  CG        -9.5610  -39.5310   25.2950 C.2    28  ASP28       0.3671
     89  OD1      -10.7400  -39.1180   25.2120 O.co2  28  ASP28      -0.2456
     90  OD2       -9.0440  -40.3270   24.4740 O.co2  28  ASP28      -0.2456
     91  N         -2.0540  -23.2470   22.9960 N.3    53  LYS53      -0.1245
     92  CA        -3.4290  -22.8400   22.8300 C.3    53  LYS53       0.1561
     93  C         -4.1710  -23.3030   24.0880 C.2    53  LYS53       0.2260
     94  O         -3.7910  -24.2920   24.7060 O.2    53  LYS53      -0.2867
     95  CB        -4.0120  -23.4000   21.5290 C.3    53  LYS53       0.0271
     96  CG        -3.3660  -22.7610   20.2740 C.3    53  LYS53       0.0035
     97  CD        -3.8990  -23.3190   18.9530 C.3    53  LYS53       0.0206
     98  CE        -5.3840  -23.0710   18.7840 C.3    53  LYS53       0.1093
     99  NZ        -5.9590  -23.9030   17.7040 N.3    53  LYS53      -0.1314
    100  N        -13.9710  -30.1560   24.7200 N.3    58  GLN58      -0.1245
    101  CA       -14.5790  -30.9860   23.6920 C.3    58  GLN58       0.1566
    102  C        -15.9020  -31.6420   24.0650 C.2    58  GLN58       0.2260
    103  O        -16.2150  -32.7310   23.5860 O.2    58  GLN58      -0.2867
    104  CB       -13.5790  -32.0470   23.2490 C.3    58  GLN58       0.0367
    105  CG       -12.3770  -31.4400   22.5480 C.3    58  GLN58       0.0905
    106  CD       -12.7540  -30.6630   21.3040 C.2    58  GLN58       0.2608
    107  OE1      -13.6230  -31.0810   20.5400 O.2    58  GLN58      -0.2717
    108  NE2      -12.0970  -29.5270   21.0900 N.am   58  GLN58      -0.0878
    109  N        -17.3390  -33.3930   26.3870 N.3    60  ASN60      -0.1240
    110  CA       -17.4800  -34.6900   27.0000 C.3    60  ASN60       0.1653
    111  C        -16.8660  -34.4580   28.3510 C.2    60  ASN60       0.2266
    112  O        -16.7970  -33.3250   28.8270 O.2    60  ASN60      -0.2867
    113  CB       -16.7730  -35.8240   26.2470 C.3    60  ASN60       0.1155
    114  CG       -15.9600  -35.3400   25.0720 C.2    60  ASN60       0.2627
    115  OD1      -15.8390  -34.1370   24.8500 O.2    60  ASN60      -0.2716
    116  ND2      -15.3940  -36.2740   24.3100 N.am   60  ASN60      -0.0877
    117  N        -13.8580  -34.8560   28.7680 N.3    62  THR62      -0.1203
    118  CA       -12.4840  -34.4530   28.5290 C.3    62  THR62       0.1994
    119  C        -12.2760  -33.0180   28.0190 C.2    62  THR62       0.2618
    120  O        -13.1910  -32.3690   27.5050 O.2    62  THR62      -0.2717
    121  CB       -11.8430  -35.4140   27.5280 C.3    62  THR62       0.1784
    122  OG1      -12.3440  -35.1320   26.2150 O.3    62  THR62      -0.2211
    123  CG2      -12.1840  -36.8460   27.8990 C.3    62  THR62       0.0376
    124  N        -11.0380  -32.5530   28.1480 N.am   63  TYR63      -0.1961
    125  CA       -10.5790  -31.3310   27.5060 C.3    63  TYR63       0.1771
    126  C         -9.7990  -31.6860   26.2490 C.2    63  TYR63       0.2619
    127  O         -9.7520  -32.8460   25.8200 O.2    63  TYR63      -0.2715
    128  CB        -9.6860  -30.5010   28.4280 C.3    63  TYR63       0.0574
    129  CG       -10.3690  -29.8840   29.6200 C.ar   63  TYR63      -0.0198
    130  CD1      -11.2460  -28.8200   29.4660 C.ar   63  TYR63      -0.0009
    131  CD2      -10.1120  -30.3430   30.9020 C.ar   63  TYR63      -0.0009
    132  CE1      -11.8670  -28.2400   30.5490 C.ar   63  TYR63       0.0417
    133  CE2      -10.7280  -29.7660   31.9990 C.ar   63  TYR63       0.0417
    134  CZ       -11.6050  -28.7110   31.8150 C.ar   63  TYR63       0.1957
    135  OH       -12.2260  -28.1220   32.8970 O.3    63  TYR63      -0.2866
    136  N         -9.1680  -30.6750   25.6720 N.am   64  ARG64      -0.1977
    137  CA        -8.3350  -30.8880   24.5070 C.3    64  ARG64       0.1597
    138  C         -7.2350  -29.8350   24.4170 C.2    64  ARG64       0.2287
    139  O         -7.4590  -28.7290   23.9320 O.2    64  ARG64      -0.2864
    140  CB        -9.1870  -30.8880   23.2530 C.3    64  ARG64       0.0334
    141  CG        -8.4560  -31.3790   22.0700 C.3    64  ARG64       0.0492
    142  CD        -9.3010  -31.1590   20.8530 C.3    64  ARG64       0.2205
    143  NE        -8.5340  -31.3510   19.6310 N.pl3  64  ARG64      -0.0865
    144  CZ        -8.0340  -30.3600   18.9140 C.cat  64  ARG64       0.5346
    145  NH1       -8.2260  -29.1070   19.2960 N.pl3  64  ARG64       0.1354
    146  NH2       -7.3470  -30.6290   17.8180 N.pl3  64  ARG64       0.1354
    147  N         -3.7900  -28.1690   23.0470 N.3    66  VAL66      -0.1245
    148  CA        -3.0480  -28.0900   21.7900 C.3    66  VAL66       0.1561
    149  C         -1.7720  -27.2320   21.8660 C.2    66  VAL66       0.2260
    150  O         -1.8470  -26.0330   22.0700 O.2    66  VAL66      -0.2867
    151  CB        -3.9230  -27.4950   20.6870 C.3    66  VAL66       0.0252
    152  CG1       -3.1510  -27.4870   19.3720 C.3    66  VAL66       0.0019
    153  CG2       -5.1840  -28.3090   20.5080 C.3    66  VAL66       0.0019
@<TRIPOS>BOND
     1    45    46    1
     2    47    48    2
     3    47    46    1
     4    46    49    1
     5    38    39    2
     6    38    37    1
     7    43    44    1
     8    43    42    1
     9    51    50   ar
    10    40    37    1
    11    40    41    1
    12    37    36    1
    13    49    50    1
    14    50    52   ar
    15    41    42    1
    16    34    33    1
    17    34    35    1
    18    33    30    1
    19    32    31    2
    20    31    30    1
    21    30    29    1
    22    35    29    1
    23    53    54    1
    24    29    20   am
    25    56    55    2
    26    54    55    1
    27    54    57    1
    28    20    21    2
    29    20    19    1
    30    24    26   ar
    31    24    23   ar
    32    57    58    1
    33    58    59    1
    34    22    19    1
    35    22    23    1
    36    26    28   ar
    37    19    18    1
    38    60    59   ar
    39    59    61   ar
    40    23    25   ar
    41    28    27   ar
    42    25    27   ar
    43    62    63    1
    44    67    66    1
    45    66    63    1
    46    66    68    1
    47    63    64    1
    48    65    64    2
    49    14    16   ar
    50    14    12   ar
    51    16    17   ar
    52    11    12    1
    53    11     8    1
    54    99    98    1
    55     9    10    2
    56     9     8    1
    57   146   144    1
    58    12    13   ar
    59     8     7    1
    60    17    15   ar
    61    75    73    1
    62    98    97    1
    63   144   145    1
    64   144   143    2
    65    97    96    1
    66    13    15   ar
    67    73    74    1
    68    73    70    1
    69   152   151    1
    70   143   142    1
    71    69    70    1
    72    96    95    1
    73    70    71    1
    74   153   151    1
    75   107   106    2
    76   151   148    1
    77   142   141    1
    78   108   106   am
    79    72    71    2
    80   106   105    1
    81    95    92    1
    82    81    80    1
    83   148   149    1
    84   148   147    1
    85   149   150    2
    86   141   140    1
    87   105   104    1
    88    82    80    1
    89    80    77    1
    90    92    91    1
    91    92    93    1
    92     5     6    1
    93     5     2    1
    94     3     4    2
    95     3     2    1
    96   104   101    1
    97   140   137    1
    98   103   102    2
    99   101   102    1
   100   101   100    1
   101     2     1    1
   102   139   138    2
   103    76    77    1
   104    77    78    1
   105    93    94    2
   106   116   114   am
   107   138   137    1
   108    90    88   ar
   109   137   136    1
   110   115   114    2
   111   114   113    1
   112    89    88   ar
   113    78    79    2
   114    78    83   am
   115    88    87    1
   116   136   126   am
   117    83    84    1
   118   127   126    2
   119   122   121    1
   120   113   110    1
   121   126   125    1
   122   109   110    1
   123    87    84    1
   124    84    85    1
   125   110   111    1
   126   120   119    2
   127   125   124    1
   128   125   128    1
   129   121   123    1
   130   121   118    1
   131   119   124   am
   132   119   118    1
   133    85    86    2
   134   111   112    2
   135   128   129    1
   136   118   117    1
   137   130   129   ar
   138   130   132   ar
   139   129   131   ar
   140   132   134   ar
   141   131   133   ar
   142   134   133   ar
   143   134   135    1
