@<TRIPOS>MOLECULE
tmp/4q74A00.pdb
 102 96 0 0 0
SMALL
GASTEIGER

@<TRIPOS>ATOM
      1  N          7.4360   73.2400   -2.9020 N.3     5  LEU5       -0.1231
      2  CA         7.9660   74.3180   -3.7710 C.3     5  LEU5        0.1693
      3  C          9.4450   74.6170   -3.4530 C.2     5  LEU5        0.2591
      4  O          9.9820   74.1070   -2.4730 O.2     5  LEU5       -0.2718
      5  CB         7.0950   75.5810   -3.6980 C.3     5  LEU5        0.0284
      6  CG         7.3670   76.7850   -4.6330 C.3     5  LEU5        0.0019
      7  CD1        7.7950   76.5000   -6.0730 C.3     5  LEU5        0.0001
      8  CD2        6.0980   77.6240   -4.6720 C.3     5  LEU5        0.0001
      9  N         10.0800   75.4890   -4.2430 N.am    6  LEU6       -0.1980
     10  CA        11.5220   75.4090   -4.4840 C.3     6  LEU6        0.1596
     11  C         12.0670   76.4520   -5.4690 C.2     6  LEU6        0.2287
     12  O         11.3290   77.2480   -6.0420 O.2     6  LEU6       -0.2864
     13  CB        11.8840   74.0290   -5.0280 C.3     6  LEU6        0.0297
     14  CG        12.9820   73.2580   -4.3020 C.3     6  LEU6        0.0022
     15  CD1       12.6420   73.0570   -2.8200 C.3     6  LEU6        0.0001
     16  CD2       13.1670   71.9380   -5.0200 C.3     6  LEU6        0.0001
     17  N         20.5480   73.8830   -2.7360 N.3    10  SER10      -0.1217
     18  CA        21.3370   74.7590   -1.8730 C.3    10  SER10       0.1889
     19  C         22.4750   73.9620   -1.2170 C.2    10  SER10       0.2288
     20  O         22.2420   72.9010   -0.6350 O.2    10  SER10      -0.2866
     21  CB        20.4340   75.3880   -0.8120 C.3    10  SER10       0.2089
     22  OG        21.1600   76.2590    0.0320 O.3    10  SER10      -0.2183
     23  N         31.1040   72.4250    5.1180 N.3    14  PHE14      -0.1241
     24  CA        31.4920   72.4740    6.5230 C.3    14  PHE14       0.1605
     25  C         32.9240   72.0110    6.7330 C.2    14  PHE14       0.2264
     26  O         33.3750   71.0600    6.0940 O.2    14  PHE14      -0.2867
     27  CB        30.5540   71.6000    7.3470 C.3    14  PHE14       0.0534
     28  CG        29.1250   72.0380    7.2910 C.ar   14  PHE14      -0.0203
     29  CD1       28.3140   71.6580    6.2340 C.ar   14  PHE14      -0.0042
     30  CD2       28.5910   72.8360    8.2870 C.ar   14  PHE14      -0.0042
     31  CE1       26.9900   72.0590    6.1750 C.ar   14  PHE14      -0.0003
     32  CE2       27.2670   73.2410    8.2360 C.ar   14  PHE14      -0.0003
     33  CZ        26.4670   72.8540    7.1760 C.ar   14  PHE14      -0.0000
     34  N         27.3160   69.5310    1.9970 N.3    33  VAL33      -0.1245
     35  CA        25.9220   69.1580    2.2180 C.3    33  VAL33       0.1561
     36  C         25.0240   69.8410    1.1940 C.2    33  VAL33       0.2260
     37  O         25.1320   71.0460    0.9830 O.2    33  VAL33      -0.2867
     38  CB        25.4560   69.5860    3.6340 C.3    33  VAL33       0.0252
     39  CG1       24.0020   69.1950    3.8730 C.3    33  VAL33       0.0019
     40  CG2       26.3550   68.9810    4.7040 C.3    33  VAL33       0.0019
     41  N         21.0190   70.5260    0.3040 N.3    35  VAL35      -0.1231
     42  CA        19.5880   70.4850    0.6450 C.3    35  VAL35       0.1692
     43  C         18.7220   71.0740   -0.4750 C.2    35  VAL35       0.2592
     44  O         19.2380   71.6260   -1.4470 O.2    35  VAL35      -0.2718
     45  CB        19.2640   71.2320    1.9690 C.3    35  VAL35       0.0266
     46  CG1       19.6060   70.3660    3.1840 C.3    35  VAL35       0.0020
     47  CG2       19.9720   72.5800    2.0300 C.3    35  VAL35       0.0020
     48  N         17.4040   70.9510   -0.3150 N.am   36  ASP36      -0.1974
     49  CA        16.4170   71.3940   -1.3100 C.3    36  ASP36       0.1709
     50  C         16.5840   70.7110   -2.6710 C.2    36  ASP36       0.2293
     51  O         16.2300   71.2730   -3.7050 O.2    36  ASP36      -0.2864
     52  CB        16.4310   72.9180   -1.4660 C.3    36  ASP36       0.1436
     53  CG        15.9060   73.6310   -0.2360 C.2    36  ASP36       0.3671
     54  OD1       15.1670   72.9990    0.5480 O.co2  36  ASP36      -0.2456
     55  OD2       16.2300   74.8230   -0.0520 O.co2  36  ASP36      -0.2456
     56  N         13.4960   64.1960    3.4750 N.3    66  GLN66      -0.1231
     57  CA        13.1720   65.0690    4.5950 C.3    66  GLN66       0.1698
     58  C         11.6500   65.2000    4.6540 C.2    66  GLN66       0.2592
     59  O         10.9610   64.6850    3.7700 O.2    66  GLN66      -0.2718
     60  CB        13.8400   66.4350    4.3990 C.3    66  GLN66       0.0381
     61  CG        15.2920   66.3730    3.9010 C.3    66  GLN66       0.0905
     62  CD        16.2770   65.9950    4.9930 C.2    66  GLN66       0.2608
     63  OE1       16.5180   66.7710    5.9140 O.2    66  GLN66      -0.2717
     64  NE2       16.8560   64.8020    4.8950 N.am   66  GLN66      -0.0878
     65  N         11.1010   65.8430    5.6780 N.am   67  TYR67      -0.1962
     66  CA         9.6570   65.7850    5.9090 C.3    67  TYR67       0.1771
     67  C          8.9220   66.3850    4.7160 C.2    67  TYR67       0.2619
     68  O          7.8970   65.8940    4.2820 O.2    67  TYR67      -0.2715
     69  CB         9.2350   66.4340    7.2360 C.3    67  TYR67       0.0574
     70  CG         7.7500   66.2650    7.5360 C.ar   67  TYR67      -0.0198
     71  CD1        6.9960   65.3350    6.8470 C.ar   67  TYR67      -0.0009
     72  CD2        7.1010   67.0400    8.4880 C.ar   67  TYR67      -0.0009
     73  CE1        5.6490   65.1710    7.0880 C.ar   67  TYR67       0.0417
     74  CE2        5.7470   66.8780    8.7370 C.ar   67  TYR67       0.0417
     75  CZ         5.0270   65.9370    8.0290 C.ar   67  TYR67       0.1957
     76  OH         3.6790   65.7470    8.2230 O.3    67  TYR67      -0.2866
     77  N          9.4770   67.4340    4.1560 N.am   68  ASN68      -0.1972
     78  CA         9.1180   67.8450    2.8150 C.3    68  ASN68       0.1688
     79  C          9.7390   66.7830    1.9140 C.2    68  ASN68       0.2292
     80  O         10.5310   65.9740    2.3820 O.2    68  ASN68      -0.2864
     81  CB         9.6820   69.2150    2.5160 C.3    68  ASN68       0.1181
     82  CG        11.1410   69.3060    2.8570 C.2    68  ASN68       0.2629
     83  OD1       11.8840   68.4020    2.5600 O.2    68  ASN68      -0.2716
     84  ND2       11.5440   70.3720    3.5170 N.am   68  ASN68      -0.0877
     85  N         11.8870   67.0340   -0.3930 N.3    70  THR70      -0.1218
     86  CA        13.2710   67.3460   -0.7050 C.3    70  THR70       0.1862
     87  C         14.1850   66.2830   -0.1540 C.2    70  THR70       0.2287
     88  O         14.0040   65.8460    0.9560 O.2    70  THR70      -0.2866
     89  CB        13.6840   68.7050   -0.0940 C.3    70  THR70       0.1770
     90  OG1       14.0300   68.5590    1.2850 O.3    70  THR70      -0.2211
     91  CG2       12.5670   69.6670   -0.1730 C.3    70  THR70       0.0375
     92  N         18.1480   65.2850    1.0630 N.3    72  ARG72      -0.1245
     93  CA        19.3990   65.8630    1.4970 C.3    72  ARG72       0.1563
     94  C         20.4660   64.8680    1.0970 C.2    72  ARG72       0.2260
     95  O         20.2580   63.6660    1.2170 O.2    72  ARG72      -0.2867
     96  CB        19.3900   66.0610    3.0050 C.3    72  ARG72       0.0307
     97  CG        20.6060   66.7320    3.5970 C.3    72  ARG72       0.0489
     98  CD        20.3340   66.9790    5.0610 C.3    72  ARG72       0.2205
     99  NE        21.4730   67.5250    5.7800 N.pl3  72  ARG72      -0.0865
    100  CZ        22.4100   66.7940    6.3780 C.cat  72  ARG72       0.5346
    101  NH1       22.3830   65.4690    6.3320 N.pl3  72  ARG72       0.1354
    102  NH2       23.3960   67.4070    7.0120 N.pl3  72  ARG72       0.1354
@<TRIPOS>BOND
     1     7     6    1
     2    12    11    2
     3    11    10    1
     4    13    10    1
     5    13    14    1
     6    16    14    1
     7     8     6    1
     8     6     5    1
     9    10     9    1
    10    14    15    1
    11     9     3   am
    12     2     5    1
    13     2     3    1
    14     2     1    1
    15    51    50    2
    16     3     4    2
    17    17    18    1
    18    50    49    1
    19    18    19    1
    20    18    21    1
    21    52    49    1
    22    52    53    1
    23    44    43    2
    24    49    48    1
    25    19    20    2
    26    21    22    1
    27    86    85    1
    28    86    87    1
    29    86    89    1
    30    43    48   am
    31    43    42    1
    32    53    55   ar
    33    53    54   ar
    34    91    89    1
    35    87    88    2
    36    89    90    1
    37    41    42    1
    38    42    45    1
    39    37    36    2
    40    92    93    1
    41    94    95    2
    42    94    93    1
    43    36    35    1
    44    93    96    1
    45    79    80    2
    46    79    78    1
    47    45    47    1
    48    45    46    1
    49    34    35    1
    50    35    38    1
    51    81    78    1
    52    81    82    1
    53    83    82    2
    54    78    77    1
    55    82    84   am
    56    96    97    1
    57    56    57    1
    58    97    98    1
    59    38    39    1
    60    38    40    1
    61    59    58    2
    62    61    60    1
    63    61    62    1
    64    77    67   am
    65    68    67    2
    66    60    57    1
    67    57    58    1
    68    58    65   am
    69    67    66    1
    70    64    62   am
    71    62    63    2
    72    98    99    1
    73    23    24    1
    74    65    66    1
    75    99   100    2
    76    66    69    1
    77    26    25    2
    78    31    29   ar
    79    31    33   ar
    80    29    28   ar
    81   101   100    1
    82   100   102    1
    83    24    25    1
    84    24    27    1
    85    71    73   ar
    86    71    70   ar
    87    73    75   ar
    88    33    32   ar
    89    69    70    1
    90    28    27    1
    91    28    30   ar
    92    70    72   ar
    93    75    76    1
    94    75    74   ar
    95    32    30   ar
    96    72    74   ar
