@<TRIPOS>MOLECULE
tmp/4q74B01.pdb
 90 85 0 0 0
SMALL
GASTEIGER

@<TRIPOS>ATOM
      1  N          7.4400   90.6500   13.8640 N.3     7  PHE7       -0.1228
      2  CA         8.5170   90.7350   14.8530 C.3     7  PHE7        0.1721
      3  C          8.0320   91.0900   16.2530 C.2     7  PHE7        0.2437
      4  O          7.1910   91.9780   16.4130 O.2     7  PHE7       -0.2733
      5  CB         9.5570   91.7610   14.4010 C.3     7  PHE7        0.0547
      6  CG        10.2020   91.4140   13.0940 C.ar    7  PHE7       -0.0202
      7  CD1       11.2940   90.5660   13.0540 C.ar    7  PHE7       -0.0042
      8  CD2        9.7070   91.9260   11.9050 C.ar    7  PHE7       -0.0042
      9  CE1       11.8910   90.2420   11.8510 C.ar    7  PHE7       -0.0003
     10  CE2       10.3000   91.6070   10.6980 C.ar    7  PHE7       -0.0003
     11  CZ        11.3880   90.7580   10.6720 C.ar    7  PHE7       -0.0000
     12  N          8.5810   90.4090   17.2760 N.am    8  PRO8       -0.2718
     13  CA         8.1730   90.6260   18.6620 C.3     8  PRO8        0.1520
     14  C          8.8240   91.8650   19.2730 C.2     8  PRO8        0.2440
     15  O          9.7800   92.4010   18.7230 O.2     8  PRO8       -0.2731
     16  CB         8.6850   89.3710   19.3630 C.3     8  PRO8        0.0310
     17  CG         9.9200   89.0310   18.6100 C.3     8  PRO8        0.0237
     18  CD         9.6330   89.3790   17.1840 C.3     8  PRO8        0.0939
     19  N          8.2980   92.3240   20.4110 N.am    9  PRO9       -0.2716
     20  CA         8.9210   93.4460   21.1050 C.3     9  PRO9        0.1536
     21  C         10.2300   93.0350   21.7530 C.2     9  PRO9        0.2598
     22  O         10.5070   91.8450   21.8950 O.2     9  PRO9       -0.2715
     23  CB         7.8880   93.8150   22.1680 C.3     9  PRO9        0.0310
     24  CG         7.1000   92.5770   22.3800 C.3     9  PRO9        0.0237
     25  CD         7.0460   91.8980   21.0570 C.3     9  PRO9        0.0939
     26  N         11.0320   94.0180   22.1340 N.am   10  LYS10      -0.1978
     27  CA        12.3030   93.7430   22.7730 C.3    10  LYS10       0.1596
     28  C         12.0370   93.4140   24.2300 C.2    10  LYS10       0.2287
     29  O         11.1850   94.0420   24.8560 O.2    10  LYS10      -0.2864
     30  CB        13.2120   94.9600   22.6620 C.3    10  LYS10       0.0298
     31  CG        14.5540   94.7150   23.3310 C.3    10  LYS10       0.0038
     32  CD        15.5660   95.7560   22.9550 C.3    10  LYS10       0.0206
     33  CE        15.8110   96.7040   24.0960 C.3    10  LYS10       0.1093
     34  NZ        16.8910   97.6480   23.7310 N.3    10  LYS10      -0.1314
     35  N         11.6470   96.2460   26.6420 N.3    13  ASP13      -0.1239
     36  CA        10.4140   97.0110   26.5070 C.3    13  ASP13       0.1674
     37  C          9.2620   96.3380   27.2460 C.2    13  ASP13       0.2266
     38  O          8.4330   97.0160   27.8490 O.2    13  ASP13      -0.2867
     39  CB        10.0510   97.2150   25.0340 C.3    13  ASP13       0.1410
     40  CG        11.0430   98.1130   24.3020 C.2    13  ASP13       0.3668
     41  OD1       11.6660   98.9740   24.9590 O.co2  13  ASP13      -0.2456
     42  OD2       11.1980   97.9650   23.0700 O.co2  13  ASP13      -0.2456
     43  N          7.6970  101.3260   26.0330 N.3    20  THR20      -0.1218
     44  CA         6.6260  100.9560   25.1060 C.3    20  THR20       0.1862
     45  C          7.0340   99.7780   24.2220 C.2    20  THR20       0.2287
     46  O          7.8070   99.9500   23.2840 O.2    20  THR20      -0.2866
     47  CB         6.2520  102.1460   24.1850 C.3    20  THR20       0.1770
     48  OG1        5.6270  103.1790   24.9550 O.3    20  THR20      -0.2211
     49  CG2        5.2900  101.7120   23.0730 C.3    20  THR20       0.0375
     50  N          6.4850   97.0530   21.2390 N.3    22  GLU22      -0.1245
     51  CA         5.7440   97.0600   19.9830 C.3    22  GLU22       0.1567
     52  C          5.9440   95.7600   19.2200 C.2    22  GLU22       0.2260
     53  O          7.0120   95.1600   19.2720 O.2    22  GLU22      -0.2867
     54  CB         6.1960   98.2210   19.0910 C.3    22  GLU22       0.0388
     55  CG         6.1130   99.5940   19.7190 C.3    22  GLU22       0.1160
     56  CD         6.7290  100.6780   18.8340 C.2    22  GLU22       0.3649
     57  OE1        7.8650  100.4870   18.3410 O.co2  22  GLU22      -0.2457
     58  OE2        6.0710  101.7170   18.6220 O.co2  22  GLU22      -0.2457
     59  N          5.8400   94.3110   15.2570 N.3    24  THR24      -0.1218
     60  CA         6.0860   94.9270   13.9540 C.3    24  THR24       0.1862
     61  C          5.8530   93.9820   12.7730 C.2    24  THR24       0.2287
     62  O          6.5330   92.9640   12.6170 O.2    24  THR24      -0.2866
     63  CB         7.5240   95.5030   13.8810 C.3    24  THR24       0.1770
     64  OG1        7.7750   96.2990   15.0440 O.3    24  THR24      -0.2211
     65  CG2        7.7050   96.3630   12.6450 C.3    24  THR24       0.0375
     66  N          6.1390   93.5430    8.8650 N.3    26  VAL26      -0.1245
     67  CA         6.9000   94.0790    7.7450 C.3    26  VAL26       0.1561
     68  C          6.5470   93.3100    6.4920 C.2    26  VAL26       0.2260
     69  O          6.7530   92.0940    6.4190 O.2    26  VAL26      -0.2867
     70  CB         8.4200   93.9660    7.9760 C.3    26  VAL26       0.0252
     71  CG1        9.1960   94.4900    6.7640 C.3    26  VAL26       0.0019
     72  CG2        8.8240   94.7230    9.2250 C.3    26  VAL26       0.0019
     73  N          8.2350   98.3060    0.4390 N.3    65  ARG65      -0.1245
     74  CA         8.2710   97.7720    1.7810 C.3    65  ARG65       0.1563
     75  C          7.2630   98.5800    2.5710 C.2    65  ARG65       0.2260
     76  O          7.2550   99.8110    2.4990 O.2    65  ARG65      -0.2867
     77  CB         9.6700   97.9240    2.3680 C.3    65  ARG65       0.0307
     78  CG         9.8770   97.2920    3.7300 C.3    65  ARG65       0.0489
     79  CD        11.3540   97.2610    4.0430 C.3    65  ARG65       0.2205
     80  NE        11.6630   96.6890    5.3450 N.pl3  65  ARG65      -0.0865
     81  CZ        11.6900   97.3770    6.4800 C.cat  65  ARG65       0.5346
     82  NH1       11.3980   98.6710    6.4890 N.pl3  65  ARG65       0.1354
     83  NH2       11.9950   96.7650    7.6120 N.pl3  65  ARG65       0.1354
     84  N          5.5860   98.8810    6.4890 N.3    67  VAL67      -0.1245
     85  CA         5.7060   98.4910    7.8810 C.3    67  VAL67       0.1561
     86  C          4.4870   98.9670    8.6470 C.2    67  VAL67       0.2260
     87  O          4.0270  100.0950    8.4670 O.2    67  VAL67      -0.2867
     88  CB         6.9660   99.0950    8.5190 C.3    67  VAL67       0.0252
     89  CG1        7.0150   98.7900   10.0220 C.3    67  VAL67       0.0019
     90  CG2        8.2010   98.5630    7.8230 C.3    67  VAL67       0.0019
@<TRIPOS>BOND
     1    73    74    1
     2    74    77    1
     3    74    75    1
     4    77    78    1
     5    76    75    2
     6    78    79    1
     7    79    80    1
     8    80    81    2
     9    69    68    2
    10    81    82    1
    11    81    83    1
    12    84    85    1
    13    68    67    1
    14    71    70    1
    15    67    70    1
    16    67    66    1
    17    90    88    1
    18    85    88    1
    19    85    86    1
    20    70    72    1
    21    87    86    2
    22    88    89    1
    23    11    10   ar
    24    11     9   ar
    25    10     8   ar
    26     9     7   ar
    27     8     6   ar
    28    62    61    2
    29    65    63    1
    30    61    60    1
    31     7     6   ar
    32     6     5    1
    33     1     2    1
    34    63    60    1
    35    63    64    1
    36    60    59    1
    37     5     2    1
    38     2     3    1
    39     3     4    2
    40     3    12   am
    41    18    12    1
    42    18    17    1
    43    12    13    1
    44    57    56   ar
    45    17    16    1
    46    58    56   ar
    47    13    14    1
    48    13    16    1
    49    15    14    2
    50    56    55    1
    51    54    55    1
    52    54    51    1
    53    52    53    2
    54    52    51    1
    55    14    19   am
    56    51    50    1
    57    19    25    1
    58    19    20    1
    59    25    24    1
    60    20    21    1
    61    20    23    1
    62    21    22    2
    63    21    26   am
    64    26    27    1
    65    23    24    1
    66    30    27    1
    67    30    31    1
    68    27    28    1
    69    32    31    1
    70    32    33    1
    71    42    40   ar
    72    49    47    1
    73    46    45    2
    74    34    33    1
    75    47    48    1
    76    47    44    1
    77    45    44    1
    78    28    29    2
    79    40    41   ar
    80    40    39    1
    81    39    36    1
    82    44    43    1
    83    36    35    1
    84    36    37    1
    85    37    38    2
