@<TRIPOS>MOLECULE
tmp/4q74B00.pdb
 91 85 0 0 0
SMALL
GASTEIGER

@<TRIPOS>ATOM
      1  N          5.6850   89.2490    0.7590 N.3     3  SER3       -0.1217
      2  CA         6.1430   88.4160    1.8640 C.3     3  SER3        0.1889
      3  C          6.0160   89.1750    3.1880 C.2     3  SER3        0.2288
      4  O          6.2830   90.3720    3.2540 O.2     3  SER3       -0.2866
      5  CB         7.5890   87.9890    1.6380 C.3     3  SER3        0.2089
      6  OG         8.0130   87.1160    2.6640 O.3     3  SER3       -0.2183
      7  N          6.8620   89.2940    7.3750 N.3     5  ALA5       -0.1245
      8  CA         7.5210   88.8790    8.5980 C.3     5  ALA5        0.1562
      9  C          6.9020   89.6630    9.7400 C.2     5  ALA5        0.2260
     10  O          6.5330   90.8250    9.5750 O.2     5  ALA5       -0.2867
     11  CB         9.0010   89.1260    8.5170 C.3     5  ALA5        0.0290
     12  N          7.4400   90.6500   13.8640 N.3     7  PHE7       -0.1241
     13  CA         8.5170   90.7350   14.8530 C.3     7  PHE7        0.1605
     14  C          8.0320   91.0900   16.2530 C.2     7  PHE7        0.2264
     15  O          7.1910   91.9780   16.4130 O.2     7  PHE7       -0.2867
     16  CB         9.5570   91.7610   14.4010 C.3     7  PHE7        0.0534
     17  CG        10.2020   91.4140   13.0940 C.ar    7  PHE7       -0.0203
     18  CD1       11.2940   90.5660   13.0540 C.ar    7  PHE7       -0.0042
     19  CD2        9.7070   91.9260   11.9050 C.ar    7  PHE7       -0.0042
     20  CE1       11.8910   90.2420   11.8510 C.ar    7  PHE7       -0.0003
     21  CE2       10.3000   91.6070   10.6980 C.ar    7  PHE7       -0.0003
     22  CZ        11.3880   90.7580   10.6720 C.ar    7  PHE7       -0.0000
     23  N          6.1390   93.5430    8.8650 N.3    26  VAL26      -0.1245
     24  CA         6.9000   94.0790    7.7450 C.3    26  VAL26       0.1561
     25  C          6.5470   93.3100    6.4920 C.2    26  VAL26       0.2260
     26  O          6.7530   92.0940    6.4190 O.2    26  VAL26      -0.2867
     27  CB         8.4200   93.9660    7.9760 C.3    26  VAL26       0.0252
     28  CG1        9.1960   94.4900    6.7640 C.3    26  VAL26       0.0019
     29  CG2        8.8240   94.7230    9.2250 C.3    26  VAL26       0.0019
     30  N          7.2770   92.8960    2.4250 N.3    28  VAL28      -0.1231
     31  CA         8.1920   93.2060    1.3280 C.3    28  VAL28       0.1692
     32  C          7.6970   92.5830    0.0310 C.2    28  VAL28       0.2592
     33  O          6.6690   91.9120    0.0090 O.2    28  VAL28      -0.2718
     34  CB         9.6220   92.7070    1.6050 C.3    28  VAL28       0.0266
     35  CG1       10.1860   93.3690    2.8500 C.3    28  VAL28       0.0020
     36  CG2        9.6540   91.1840    1.7300 C.3    28  VAL28       0.0020
     37  N          8.4520   92.8030   -1.0420 N.am   29  ASP29      -0.1974
     38  CA         8.1120   92.2840   -2.3680 C.3    29  ASP29       0.1709
     39  C          6.6980   92.7090   -2.7760 C.2    29  ASP29       0.2293
     40  O          5.9460   91.9490   -3.3750 O.2    29  ASP29      -0.2864
     41  CB         8.3050   90.7620   -2.4310 C.3    29  ASP29       0.1436
     42  CG         9.7820   90.3500   -2.3460 C.2    29  ASP29       0.3671
     43  OD1       10.6630   91.1960   -2.6120 O.co2  29  ASP29      -0.2456
     44  OD2       10.0650   89.1780   -2.0200 O.co2  29  ASP29      -0.2456
     45  N         12.3480   99.9790   -2.2870 N.3    59  GLN59      -0.1231
     46  CA        13.7100   99.5300   -1.9950 C.3    59  GLN59       0.1698
     47  C         14.5500   99.6010   -3.2690 C.2    59  GLN59       0.2592
     48  O         14.0140   99.8150   -4.3580 O.2    59  GLN59      -0.2718
     49  CB        13.7090   98.1030   -1.4430 C.3    59  GLN59       0.0381
     50  CG        12.8240   97.9030   -0.2080 C.3    59  GLN59       0.0905
     51  CD        13.2510   98.7660    0.9640 C.2    59  GLN59       0.2608
     52  OE1       14.2850   98.5240    1.5900 O.2    59  GLN59      -0.2717
     53  NE2       12.4570   99.7870    1.2630 N.am   59  GLN59      -0.0878
     54  N         15.8630   99.4310   -3.1360 N.am   60  TYR60      -0.1962
     55  CA        16.7720   99.6050   -4.2740 C.3    60  TYR60       0.1771
     56  C         16.7380   98.5050   -5.3510 C.2    60  TYR60       0.2619
     57  O         17.6790   98.3680   -6.1350 O.2    60  TYR60      -0.2715
     58  CB        18.2160   99.8540   -3.8030 C.3    60  TYR60       0.0574
     59  CG        18.4630  101.2640   -3.2810 C.ar   60  TYR60      -0.0198
     60  CD1       18.5840  102.3430   -4.1480 C.ar   60  TYR60      -0.0009
     61  CD2       18.5770  101.5110   -1.9230 C.ar   60  TYR60      -0.0009
     62  CE1       18.8020  103.6310   -3.6660 C.ar   60  TYR60       0.0417
     63  CE2       18.8020  102.7900   -1.4400 C.ar   60  TYR60       0.0417
     64  CZ        18.9150  103.8470   -2.3150 C.ar   60  TYR60       0.1957
     65  OH        19.1350  105.1350   -1.8420 O.3    60  TYR60      -0.2866
     66  N         15.7550   97.6240   -5.2330 N.am   61  ASN61      -0.1972
     67  CA        15.4870   96.5590   -6.1880 C.3    61  ASN61       0.1688
     68  C         14.1310   96.7310   -6.8260 C.2    61  ASN61       0.2292
     69  O         13.5670   95.7780   -7.2960 O.2    61  ASN61      -0.2864
     70  CB        15.5800   95.1750   -5.5380 C.3    61  ASN61       0.1181
     71  CG        14.6370   94.9980   -4.3620 C.2    61  ASN61       0.2629
     72  OD1       13.6480   95.7010   -4.2330 O.2    61  ASN61      -0.2716
     73  ND2       14.9400   94.0610   -3.5080 N.am   61  ASN61      -0.0877
     74  N         11.1410   97.3060   -5.3980 N.3    63  THR63      -0.1218
     75  CA        10.0260   96.6950   -4.7250 C.3    63  THR63       0.1862
     76  C          9.6830   97.5320   -3.4920 C.2    63  THR63       0.2287
     77  O         10.5370   98.1780   -2.9250 O.2    63  THR63      -0.2866
     78  CB        10.3490   95.2380   -4.3610 C.3    63  THR63       0.1770
     79  OG1        9.1460   94.5360   -4.0960 O.3    63  THR63      -0.2211
     80  CG2       11.2250   95.1550   -3.1620 C.3    63  THR63       0.0375
     81  N          8.2350   98.3060    0.4390 N.3    65  ARG65      -0.1245
     82  CA         8.2710   97.7720    1.7810 C.3    65  ARG65       0.1563
     83  C          7.2630   98.5800    2.5710 C.2    65  ARG65       0.2260
     84  O          7.2550   99.8110    2.4990 O.2    65  ARG65      -0.2867
     85  CB         9.6700   97.9240    2.3680 C.3    65  ARG65       0.0307
     86  CG         9.8770   97.2920    3.7300 C.3    65  ARG65       0.0489
     87  CD        11.3540   97.2610    4.0430 C.3    65  ARG65       0.2205
     88  NE        11.6630   96.6890    5.3450 N.pl3  65  ARG65      -0.0865
     89  CZ        11.6900   97.3770    6.4800 C.cat  65  ARG65       0.5346
     90  NH1       11.3980   98.6710    6.4890 N.pl3  65  ARG65       0.1354
     91  NH2       11.9950   96.7650    7.6120 N.pl3  65  ARG65       0.1354
@<TRIPOS>BOND
     1    69    68    2
     2    68    67    1
     3    67    70    1
     4    67    66    1
     5    57    56    2
     6    70    71    1
     7    74    75    1
     8    56    66   am
     9    56    55    1
    10    75    78    1
    11    75    76    1
    12    71    72    2
    13    71    73   am
    14    78    79    1
    15    78    80    1
    16    48    47    2
    17    55    58    1
    18    55    54    1
    19    60    62   ar
    20    60    59   ar
    21    58    59    1
    22    62    64   ar
    23    76    77    2
    24    40    39    2
    25    59    61   ar
    26    47    54   am
    27    47    46    1
    28    39    38    1
    29    43    42   ar
    30    41    38    1
    31    41    42    1
    32    38    37    1
    33    42    44   ar
    34    64    65    1
    35    64    63   ar
    36    45    46    1
    37    46    49    1
    38    61    63   ar
    39    49    50    1
    40    37    32   am
    41    50    51    1
    42    33    32    2
    43    32    31    1
    44    81    82    1
    45     1     2    1
    46    51    53   am
    47    51    52    2
    48    31    34    1
    49    31    30    1
    50    34    36    1
    51    34    35    1
    52     5     2    1
    53     5     6    1
    54    82    85    1
    55    82    83    1
    56     2     3    1
    57    85    86    1
    58    84    83    2
    59     3     4    2
    60    86    87    1
    61    87    88    1
    62    88    89    2
    63    26    25    2
    64    89    90    1
    65    89    91    1
    66    25    24    1
    67    28    27    1
    68     7     8    1
    69    24    27    1
    70    24    23    1
    71    27    29    1
    72    11     8    1
    73     8     9    1
    74    10     9    2
    75    22    21   ar
    76    22    20   ar
    77    21    19   ar
    78    20    18   ar
    79    19    17   ar
    80    18    17   ar
    81    17    16    1
    82    12    13    1
    83    16    13    1
    84    13    14    1
    85    14    15    2
