@<TRIPOS>MOLECULE
tmp/4q7bA01.pdb
 195 198 0 0 0
SMALL
GASTEIGER

@<TRIPOS>ATOM
      1  N         14.4570   -8.9450   49.1480 N.3    20  TRP20      -0.1241
      2  CA        14.9340   -9.6330   47.9490 C.3    20  TRP20       0.1605
      3  C         16.0280  -10.6270   48.3400 C.2    20  TRP20       0.2264
      4  O         16.9850  -10.2550   49.0260 O.2    20  TRP20      -0.2867
      5  CB        15.4540   -8.6410   46.9060 C.3    20  TRP20       0.0550
      6  CG        16.1030   -9.2960   45.7120 C.ar   20  TRP20       0.0003
      7  CD1       15.7010  -10.4410   45.0650 C.ar   20  TRP20       0.0946
      8  CD2       17.2850   -8.8580   45.0400 C.ar   20  TRP20       0.0152
      9  NE1       16.5610  -10.7280   44.0290 N.ar   20  TRP20      -0.2442
     10  CE2       17.5400   -9.7700   43.9950 C.ar   20  TRP20       0.0810
     11  CE3       18.1510   -7.7720   45.2110 C.ar   20  TRP20       0.0012
     12  CZ2       18.6340   -9.6350   43.1370 C.ar   20  TRP20       0.0191
     13  CZ3       19.2250   -7.6400   44.3570 C.ar   20  TRP20       0.0001
     14  CH2       19.4610   -8.5650   43.3350 C.ar   20  TRP20       0.0015
     15  N          7.8810  -10.1880   42.5210 N.3    47  VAL47      -0.1231
     16  CA         8.9240  -10.9330   41.8130 C.3    47  VAL47       0.1692
     17  C          9.9100  -11.6190   42.7810 C.2    47  VAL47       0.2592
     18  O         10.6500  -12.5070   42.3760 O.2    47  VAL47      -0.2718
     19  CB         9.6650  -10.0200   40.7950 C.3    47  VAL47       0.0266
     20  CG1       10.6650   -9.1270   41.5020 C.3    47  VAL47       0.0020
     21  CG2       10.3380  -10.8310   39.6900 C.3    47  VAL47       0.0020
     22  N          9.9120  -11.2260   44.0580 N.am   48  TYR48      -0.1976
     23  CA        10.8210  -11.8470   45.0280 C.3    48  TYR48       0.1639
     24  C         10.3480  -13.2400   45.4430 C.2    48  TYR48       0.2290
     25  O         11.1100  -13.9850   46.0630 O.2    48  TYR48      -0.2864
     26  CB        11.0360  -10.9720   46.2810 C.3    48  TYR48       0.0560
     27  CG        11.6010   -9.5890   46.0070 C.ar   48  TYR48      -0.0198
     28  CD1       12.2070   -9.2750   44.7940 C.ar   48  TYR48      -0.0009
     29  CD2       11.5100   -8.5820   46.9690 C.ar   48  TYR48      -0.0009
     30  CE1       12.6840   -7.9970   44.5410 C.ar   48  TYR48       0.0417
     31  CE2       11.9980   -7.3070   46.7250 C.ar   48  TYR48       0.0417
     32  CZ        12.5800   -7.0190   45.5130 C.ar   48  TYR48       0.1957
     33  OH        13.0480   -5.7480   45.2630 O.3    48  TYR48      -0.2866
     34  N          5.2560   -5.9250   39.0010 N.3    79  TRP79      -0.1227
     35  CA         6.2750   -6.5170   38.1410 C.3    79  TRP79       0.1737
     36  C          6.0500   -6.1410   36.6580 C.2    79  TRP79       0.2595
     37  O          4.9440   -5.7620   36.2490 O.2    79  TRP79      -0.2718
     38  CB         6.4240   -8.0450   38.3670 C.3    79  TRP79       0.0564
     39  CG         7.5580   -8.5720   37.5470 C.ar   79  TRP79       0.0003
     40  CD1        7.4740   -9.4230   36.4900 C.ar   79  TRP79       0.0946
     41  CD2        8.9350   -8.1700   37.6280 C.ar   79  TRP79       0.0152
     42  NE1        8.7120   -9.6010   35.9230 N.ar   79  TRP79      -0.2442
     43  CE2        9.6260   -8.8430   36.6060 C.ar   79  TRP79       0.0810
     44  CE3        9.6530   -7.3170   38.4820 C.ar   79  TRP79       0.0012
     45  CZ2       10.9980   -8.6890   36.4120 C.ar   79  TRP79       0.0191
     46  CZ3       11.0070   -7.1650   38.2850 C.ar   79  TRP79       0.0001
     47  CH2       11.6680   -7.8550   37.2660 C.ar   79  TRP79       0.0015
     48  N          7.1170   -6.2440   35.8710 N.am   80  CYS80      -0.1970
     49  CA         7.1610   -5.7990   34.4860 C.3    80  CYS80       0.1712
     50  C          6.1310   -6.4460   33.5650 C.2    80  CYS80       0.2296
     51  O          5.7080   -5.8340   32.5870 O.2    80  CYS80      -0.2864
     52  CB         8.5620   -6.0530   33.9420 C.3    80  CYS80       0.0983
     53  SG         9.8530   -5.2060   34.8590 S.3    80  CYS80      -0.0798
     54  N          7.9260   -1.3500   39.4060 N.3   110  HIS110     -0.1226
     55  CA         9.2220   -1.9170   39.7800 C.3   110  HIS110      0.1752
     56  C         10.3550   -1.4750   38.8440 C.2   110  HIS110      0.2596
     57  O         11.4490   -1.1490   39.3070 O.2   110  HIS110     -0.2718
     58  CB         9.1050   -3.4400   39.8320 C.3   110  HIS110      0.0759
     59  CG        10.1300   -4.1130   40.6870 C.ar  110  HIS110      0.0818
     60  ND1        9.8680   -5.2880   41.3550 N.ar  110  HIS110     -0.2268
     61  CD2       11.4250   -3.8100   40.9420 C.ar  110  HIS110      0.1154
     62  CE1       10.9540   -5.6700   42.0050 C.ar  110  HIS110      0.1986
     63  NE2       11.9150   -4.7910   41.7690 N.ar  110  HIS110     -0.2212
     64  N         10.0760   -1.4810   37.5380 N.am  111  TRP111     -0.1976
     65  CA        10.9930   -1.0220   36.4880 C.3   111  TRP111      0.1640
     66  C         10.1690   -0.2960   35.4310 C.2   111  TRP111      0.2290
     67  O          8.9900   -0.6110   35.2460 O.2   111  TRP111     -0.2864
     68  CB        11.7210   -2.2100   35.8220 C.3   111  TRP111      0.0576
     69  CG        12.7050   -2.8890   36.7330 C.ar  111  TRP111      0.0006
     70  CD1       12.4380   -3.8560   37.6630 C.ar  111  TRP111      0.0946
     71  CD2       14.1030   -2.6050   36.8410 C.ar  111  TRP111      0.0152
     72  NE1       13.5870   -4.2010   38.3300 N.ar  111  TRP111     -0.2442
     73  CE2       14.6250   -3.4510   37.8420 C.ar  111  TRP111      0.0810
     74  CE3       14.9700   -1.7370   36.1690 C.ar  111  TRP111      0.0012
     75  CZ2       15.9700   -3.4330   38.2080 C.ar  111  TRP111      0.0191
     76  CZ3       16.3040   -1.7250   36.5310 C.ar  111  TRP111      0.0001
     77  CH2       16.7910   -2.5730   37.5360 C.ar  111  TRP111      0.0015
     78  N         10.4260   -0.7090   32.3620 N.3   113  THR113     -0.1218
     79  CA        10.3210   -1.6270   31.2330 C.3   113  THR113      0.1862
     80  C          9.1360   -2.5910   31.3640 C.2   113  THR113      0.2287
     81  O          9.1210   -3.4410   32.2490 O.2   113  THR113     -0.2866
     82  CB        11.6040   -2.4720   31.1190 C.3   113  THR113      0.1770
     83  OG1       11.8700   -3.1020   32.3750 O.3   113  THR113     -0.2211
     84  CG2       12.7870   -1.5970   30.7770 C.3   113  THR113      0.0375
     85  N          7.0280   -5.8410   30.0690 N.3   115  PHE115     -0.1241
     86  CA         7.2830   -7.0950   29.3570 C.3   115  PHE115      0.1605
     87  C          5.9610   -7.7500   28.9800 C.2   115  PHE115      0.2264
     88  O          4.9270   -7.4950   29.6000 O.2   115  PHE115     -0.2867
     89  CB         8.0060   -8.1180   30.2450 C.3   115  PHE115      0.0534
     90  CG         9.3430   -7.6830   30.8070 C.ar  115  PHE115     -0.0203
     91  CD1       10.0560   -6.5910   30.3220 C.ar  115  PHE115     -0.0042
     92  CD2        9.9000   -8.4320   31.8460 C.ar  115  PHE115     -0.0042
     93  CE1       11.2890   -6.2580   30.8820 C.ar  115  PHE115     -0.0003
     94  CE2       11.1100   -8.0980   32.4040 C.ar  115  PHE115     -0.0003
     95  CZ        11.8120   -7.0170   31.9310 C.ar  115  PHE115     -0.0000
     96  N          8.5190  -14.3890   34.4540 N.3   121  PHE121     -0.1227
     97  CA         8.8920  -13.0400   34.8550 C.3   121  PHE121      0.1736
     98  C          9.7340  -12.3290   33.7870 C.2   121  PHE121      0.2595
     99  O          9.6910  -11.1030   33.6750 O.2   121  PHE121     -0.2718
    100  CB         9.6660  -13.0680   36.1740 C.3   121  PHE121      0.0547
    101  CG         8.8440  -13.4440   37.3820 C.ar  121  PHE121     -0.0202
    102  CD1        7.4780  -13.1840   37.4460 C.ar  121  PHE121     -0.0042
    103  CD2        9.4560  -14.0270   38.4790 C.ar  121  PHE121     -0.0042
    104  CE1        6.7420  -13.5140   38.5800 C.ar  121  PHE121     -0.0003
    105  CE2        8.7190  -14.3600   39.6180 C.ar  121  PHE121     -0.0003
    106  CZ         7.3630  -14.1020   39.6570 C.ar  121  PHE121     -0.0000
    107  N         10.5120  -13.1050   33.0340 N.am  122  PHE122     -0.1976
    108  CA        11.3400  -12.5900   31.9570 C.3   122  PHE122      0.1639
    109  C         11.0460  -13.3780   30.6860 C.2   122  PHE122      0.2290
    110  O         11.7850  -14.3020   30.3340 O.2   122  PHE122     -0.2864
    111  CB        12.8300  -12.6890   32.3000 C.3   122  PHE122      0.0560
    112  CG        13.2810  -11.6960   33.3300 C.ar  122  PHE122     -0.0200
    113  CD1       13.7700  -10.4590   32.9470 C.ar  122  PHE122     -0.0042
    114  CD2       13.2060  -11.9910   34.6800 C.ar  122  PHE122     -0.0042
    115  CE1       14.1760   -9.5350   33.8860 C.ar  122  PHE122     -0.0003
    116  CE2       13.6240  -11.0680   35.6310 C.ar  122  PHE122     -0.0003
    117  CZ        14.1120   -9.8430   35.2280 C.ar  122  PHE122     -0.0000
    118  N         13.7140    2.5980   39.7410 N.3   160  ASN160     -0.1240
    119  CA        14.6450    2.4960   38.6230 C.3   160  ASN160      0.1653
    120  C         14.2630    3.3900   37.4470 C.2   160  ASN160      0.2266
    121  O         14.5550    3.0590   36.2990 O.2   160  ASN160     -0.2867
    122  CB        14.7770    1.0470   38.1520 C.3   160  ASN160      0.1155
    123  CG        15.2360    0.1290   39.2450 C.2   160  ASN160      0.2627
    124  OD1       16.3610    0.2420   39.7280 O.2   160  ASN160     -0.2716
    125  ND2       14.3660   -0.8000   39.6450 N.am  160  ASN160     -0.0877
    126  N         18.2080    1.5720   47.5520 N.3   209  TYR209     -0.1241
    127  CA        18.3130    0.1260   47.6320 C.3   209  TYR209      0.1605
    128  C         19.7470   -0.3680   47.4720 C.2   209  TYR209      0.2264
    129  O         20.6220    0.3820   47.0460 O.2   209  TYR209     -0.2867
    130  CB        17.3300   -0.5600   46.6900 C.3   209  TYR209      0.0534
    131  CG        17.6030   -0.6460   45.1940 C.ar  209  TYR209     -0.0201
    132  CD1       18.6910   -1.3540   44.6850 C.ar  209  TYR209     -0.0009
    133  CD2       16.6760   -0.1360   44.2810 C.ar  209  TYR209     -0.0009
    134  CE1       18.8620   -1.5070   43.3170 C.ar  209  TYR209      0.0417
    135  CE2       16.8400   -0.2900   42.9170 C.ar  209  TYR209      0.0417
    136  CZ        17.9330   -0.9790   42.4390 C.ar  209  TYR209      0.1957
    137  OH        18.0940   -1.1810   41.0860 O.3   209  TYR209     -0.2866
    138  N         24.6980  -12.6380   40.7290 N.3   219  TRP219     -0.1241
    139  CA        25.6760  -12.4700   39.6550 C.3   219  TRP219      0.1605
    140  C         26.9960  -11.8670   40.1350 C.2   219  TRP219      0.2264
    141  O         27.7990  -11.4000   39.3270 O.2   219  TRP219     -0.2867
    142  CB        25.0890  -11.5990   38.5400 C.3   219  TRP219      0.0550
    143  CG        24.4590  -10.3440   39.0470 C.ar  219  TRP219      0.0003
    144  CD1       25.0940   -9.1770   39.3660 C.ar  219  TRP219      0.0946
    145  CD2       23.0650  -10.1230   39.2950 C.ar  219  TRP219      0.0152
    146  NE1       24.1810   -8.2440   39.8000 N.ar  219  TRP219     -0.2442
    147  CE2       22.9290   -8.8000   39.7650 C.ar  219  TRP219      0.0810
    148  CE3       21.9200  -10.9130   39.1650 C.ar  219  TRP219      0.0012
    149  CZ2       21.6930   -8.2510   40.1040 C.ar  219  TRP219      0.0191
    150  CZ3       20.6950  -10.3680   39.5030 C.ar  219  TRP219      0.0001
    151  CH2       20.5910   -9.0500   39.9680 C.ar  219  TRP219      0.0015
    152  N         22.6570   -3.5390   40.1750 N.3   298  CYS298     -0.1221
    153  CA        21.3990   -3.9680   39.5920 C.3   298  CYS298      0.1808
    154  C         21.1770   -3.4540   38.1790 C.2   298  CYS298      0.2601
    155  O         20.7710   -2.3110   37.9830 O.2   298  CYS298     -0.2717
    156  CB        20.2480   -3.5420   40.4980 C.3   298  CYS298      0.0970
    157  SG        18.8080   -4.5830   40.3700 S.3   298  CYS298     -0.0800
    158  N         21.4350   -4.3300   37.2090 N.am  299  ALA299     -0.1965
    159  CA        21.2280   -4.0600   35.7990 C.3   299  ALA299      0.1728
    160  C         21.0710   -5.4380   35.1580 C.2   299  ALA299      0.2616
    161  O         21.3710   -6.4530   35.7920 O.2   299  ALA299     -0.2715
    162  CB        22.4210   -3.3310   35.2260 C.3   299  ALA299      0.0334
    163  N         20.6020   -5.4980   33.9170 N.am  300  LEU300     -0.1977
    164  CA        20.4090   -6.7950   33.2810 C.3   300  LEU300      0.1596
    165  C         20.5590   -6.7280   31.7700 C.2   300  LEU300      0.2287
    166  O         19.8190   -6.0160   31.0910 O.2   300  LEU300     -0.2864
    167  CB        19.0480   -7.3840   33.6600 C.3   300  LEU300      0.0297
    168  CG        18.8940   -8.8820   33.4040 C.3   300  LEU300      0.0022
    169  CD1       19.8530   -9.6800   34.2760 C.3   300  LEU300      0.0001
    170  CD2       17.4710   -9.3160   33.6490 C.3   300  LEU300      0.0001
    171  N         17.8140   -7.1280   29.1160 N.3   303  CYS303     -0.1235
    172  CA        16.8670   -6.0270   28.9780 C.3   303  CYS303      0.1677
    173  C         17.4620   -4.7280   28.4190 C.2   303  CYS303      0.2270
    174  O         16.7440   -3.7480   28.2420 O.2   303  CYS303     -0.2867
    175  CB        16.1590   -5.7750   30.3080 C.3   303  CYS303      0.0956
    176  SG        15.2240   -7.2120   30.8830 S.3   303  CYS303     -0.0801
    177  N         14.7400    0.7720   28.7920 N.3   309  TYR309     -0.1228
    178  CA        15.8550    0.4440   29.6770 C.3   309  TYR309      0.1721
    179  C         16.3950    1.7400   30.2650 C.2   309  TYR309      0.2437
    180  O         16.6960    2.6770   29.5250 O.2   309  TYR309     -0.2733
    181  CB        16.9630   -0.2980   28.9270 C.3   309  TYR309      0.0547
    182  CG        18.2010   -0.5640   29.7690 C.ar  309  TYR309     -0.0200
    183  CD1       18.2480   -1.6220   30.6670 C.ar  309  TYR309     -0.0009
    184  CD2       19.3280    0.2440   29.6550 C.ar  309  TYR309     -0.0009
    185  CE1       19.3890   -1.8630   31.4360 C.ar  309  TYR309      0.0417
    186  CE2       20.4630    0.0110   30.4100 C.ar  309  TYR309      0.0417
    187  CZ        20.4890   -1.0400   31.2970 C.ar  309  TYR309      0.1957
    188  OH        21.6250   -1.2600   32.0450 O.3   309  TYR309     -0.2866
    189  N         16.4920    1.8070   31.6030 N.am  310  PRO310     -0.2729
    190  CA        16.7290    3.1130   32.2320 C.3   310  PRO310      0.1401
    191  C         18.1770    3.5900   32.2760 C.2   310  PRO310      0.2269
    192  O         18.3830    4.7760   32.5120 O.2   310  PRO310     -0.2865
    193  CB        16.2080    2.9080   33.6610 C.3   310  PRO310      0.0296
    194  CG        16.3740    1.4360   33.9110 C.3   310  PRO310      0.0237
    195  CD        16.0720    0.7870   32.5860 C.3   310  PRO310      0.0939
@<TRIPOS>BOND
     1   174   173    2
     2   173   172    1
     3   177   178    1
     4   181   178    1
     5   181   182    1
     6   172   171    1
     7   172   175    1
     8    87    86    1
     9    87    88    2
    10    86    85    1
    11    86    89    1
    12   180   179    2
    13   184   182   ar
    14   184   186   ar
    15   178   179    1
    16   182   183   ar
    17    89    90    1
    18   179   189   am
    19   175   176    1
    20    91    90   ar
    21    91    93   ar
    22   110   109    2
    23   186   187   ar
    24   183   185   ar
    25   109   108    1
    26    84    82    1
    27    90    92   ar
    28    93    95   ar
    29   166   165    2
    30    82    79    1
    31    82    83    1
    32    79    80    1
    33    79    78    1
    34   187   185   ar
    35   187   188    1
    36    80    81    2
    37   189   190    1
    38   189   195    1
    39   165   164    1
    40    92    94   ar
    41    95    94   ar
    42   108   111    1
    43   108   107    1
    44   190   191    1
    45   190   193    1
    46   191   192    2
    47   111   112    1
    48   195   194    1
    49    51    50    2
    50   113   112   ar
    51   113   115   ar
    52   107    98   am
    53   164   167    1
    54   164   163    1
    55   112   114   ar
    56   168   170    1
    57   168   167    1
    58   168   169    1
    59    50    49    1
    60   193   194    1
    61    99    98    2
    62    98    97    1
    63   115   117   ar
    64   163   160   am
    65    52    49    1
    66    52    53    1
    67    96    97    1
    68    49    48    1
    69   114   116   ar
    70    97   100    1
    71   160   161    2
    72   160   159    1
    73   162   159    1
    74   117   116   ar
    75    67    66    2
    76    66    65    1
    77   159   158    1
    78    68    65    1
    79    68    69    1
    80    48    36   am
    81    42    40   ar
    82    42    43   ar
    83    74    76   ar
    84    74    71   ar
    85   100   101    1
    86    37    36    2
    87   121   120    2
    88    45    43   ar
    89    45    47   ar
    90    65    64    1
    91    40    39   ar
    92    76    77   ar
    93    43    41   ar
    94    36    35    1
    95    69    71   ar
    96    69    70   ar
    97    71    73   ar
    98   158   154   am
    99    47    46   ar
   100   101   102   ar
   101   101   103   ar
   102   102   104   ar
   103   120   119    1
   104    77    75   ar
   105    64    56   am
   106    39    41   ar
   107    39    38    1
   108    41    44   ar
   109    70    72   ar
   110    73    75   ar
   111    73    72   ar
   112   155   154    2
   113    35    38    1
   114    35    34    1
   115   122   119    1
   116   122   123    1
   117   154   153    1
   118    46    44   ar
   119   103   105   ar
   120   142   143    1
   121   142   139    1
   122   104   106   ar
   123   119   118    1
   124    56    57    2
   125    56    55    1
   126   143   145   ar
   127   143   144   ar
   128   148   145   ar
   129   148   150   ar
   130   123   125   am
   131   123   124    2
   132   145   147   ar
   133   141   140    2
   134   144   146   ar
   135    54    55    1
   136   150   151   ar
   137   153   152    1
   138   153   156    1
   139   105   106   ar
   140   139   140    1
   141   139   138    1
   142    21    19    1
   143   147   146   ar
   144   147   149   ar
   145    55    58    1
   146    58    59    1
   147   151   149   ar
   148   157   156    1
   149    59    61   ar
   150    59    60   ar
   151    19    20    1
   152    19    16    1
   153    61    63   ar
   154   137   136    1
   155    60    62   ar
   156    63    62   ar
   157    16    15    1
   158    16    17    1
   159    18    17    2
   160   136   135   ar
   161   136   134   ar
   162    17    22   am
   163   135   133   ar
   164    12    14   ar
   165    12    10   ar
   166   134   132   ar
   167    14    13   ar
   168    10     9   ar
   169    10     8   ar
   170     9     7   ar
   171    22    23    1
   172   133   131   ar
   173    13    11   ar
   174    30    28   ar
   175    30    32   ar
   176   132   131   ar
   177    28    27   ar
   178    23    24    1
   179    23    26    1
   180     8    11   ar
   181     8     6   ar
   182     7     6   ar
   183   131   130    1
   184    33    32    1
   185    24    25    2
   186    32    31   ar
   187     6     5    1
   188    27    26    1
   189    27    29   ar
   190   130   127    1
   191    31    29   ar
   192     5     2    1
   193   129   128    2
   194   128   127    1
   195   126   127    1
   196     2     3    1
   197     2     1    1
   198     3     4    2
