@<TRIPOS>MOLECULE
tmp/4q7cB04.pdb
 204 190 0 0 0
SMALL
GASTEIGER

@<TRIPOS>ATOM
      1  N         -0.9100   38.1350   31.3190 N.3   136  LYS136     -0.1245
      2  CA        -0.6740   36.7520   30.9220 C.3   136  LYS136      0.1561
      3  C         -1.9910   36.0270   30.6710 C.2   136  LYS136      0.2260
      4  O         -2.4660   35.2660   31.5160 O.2   136  LYS136     -0.2867
      5  CB         0.1380   36.0090   31.9850 C.3   136  LYS136      0.0271
      6  CG         1.5810   36.4660   32.1070 C.3   136  LYS136      0.0035
      7  CD         2.4020   35.4620   32.9030 C.3   136  LYS136      0.0206
      8  CE         1.7750   35.1940   34.2630 C.3   136  LYS136      0.1093
      9  NZ         2.4930   34.1270   35.0140 N.3   136  LYS136     -0.1314
     10  N          3.0820   31.8980   27.6460 N.3   144  PRO144     -0.2102
     11  CA         4.0430   31.9420   28.7510 C.3   144  PRO144      0.1504
     12  C          4.1300   30.6110   29.4910 C.2   144  PRO144      0.2575
     13  O          3.5880   29.6170   29.0140 O.2   144  PRO144     -0.2718
     14  CB         3.4760   33.0400   29.6510 C.3   144  PRO144      0.0282
     15  CG         1.9970   32.9620   29.4260 C.3   144  PRO144      0.0208
     16  CD         1.7550   32.3890   28.0580 C.3   144  PRO144      0.0893
     17  N          4.8150   30.5870   30.6290 N.am  145  ALA145     -0.1980
     18  CA         4.8820   29.3740   31.4340 C.3   145  ALA145      0.1597
     19  C          3.5080   29.0840   32.0260 C.2   145  ALA145      0.2287
     20  O          2.9750   27.9810   31.8840 O.2   145  ALA145     -0.2864
     21  CB         5.9270   29.5120   32.5300 C.3   145  ALA145      0.0319
     22  N         -2.4440   33.8870   34.1160 N.3   148  ASP148     -0.1239
     23  CA        -2.8270   34.5150   35.3790 C.3   148  ASP148      0.1674
     24  C         -3.9590   33.7610   36.0590 C.2   148  ASP148      0.2266
     25  O         -4.9160   33.3390   35.4090 O.2   148  ASP148     -0.2867
     26  CB        -3.2400   35.9700   35.1560 C.3   148  ASP148      0.1410
     27  CG        -2.0550   36.8810   34.9300 C.2   148  ASP148      0.3668
     28  OD1       -0.9440   36.5360   35.3880 O.co2 148  ASP148     -0.2456
     29  OD2       -2.2340   37.9410   34.2930 O.co2 148  ASP148     -0.2456
     30  N         -5.1450   37.0610   40.4580 N.3   152  ALA152     -0.1245
     31  CA        -4.1930   37.9060   39.7460 C.3   152  ALA152      0.1562
     32  C         -4.9140   38.7080   38.6780 C.2   152  ALA152      0.2260
     33  O         -4.7990   39.9300   38.6120 O.2   152  ALA152     -0.2867
     34  CB        -3.0880   37.0680   39.1280 C.3   152  ALA152      0.0290
     35  N         -5.3230   41.6900   41.0790 N.3   156  ASN156     -0.1225
     36  CA        -3.9550   42.1970   41.0800 C.3   156  ASN156      0.1785
     37  C         -3.5780   43.0000   39.8460 C.2   156  ASN156      0.2597
     38  O         -2.9400   44.0420   39.9580 O.2   156  ASN156     -0.2718
     39  CB        -2.9720   41.0400   41.2410 C.3   156  ASN156      0.1169
     40  CG        -3.2510   40.2130   42.4740 C.2   156  ASN156      0.2627
     41  OD1       -4.1020   40.5660   43.2920 O.2   156  ASN156     -0.2716
     42  ND2       -2.5210   39.1140   42.6280 N.am  156  ASN156     -0.0877
     43  N         -3.9730   42.5120   38.6750 N.am  157  ARG157     -0.1979
     44  CA        -3.6070   43.1540   37.4160 C.3   157  ARG157      0.1597
     45  C         -4.1520   44.5700   37.3310 C.2   157  ARG157      0.2287
     46  O         -3.5210   45.4470   36.7480 O.2   157  ARG157     -0.2864
     47  CB        -4.0990   42.3320   36.2240 C.3   157  ARG157      0.0334
     48  CG        -3.3300   41.0400   36.0010 C.3   157  ARG157      0.0492
     49  CD        -1.8460   41.2920   35.7940 C.3   157  ARG157      0.2205
     50  NE        -1.1280   40.0570   35.4940 N.pl3 157  ARG157     -0.0865
     51  CZ         0.1850   39.9760   35.3020 C.cat 157  ARG157      0.5346
     52  NH1        0.9360   41.0640   35.3780 N.pl3 157  ARG157      0.1354
     53  NH2        0.7480   38.8050   35.0390 N.pl3 157  ARG157      0.1354
     54  N         12.9790   45.6530   34.1190 N.3   174  PRO174     -0.2102
     55  CA        12.2380   44.5230   34.6950 C.3   174  PRO174      0.1504
     56  C         12.9660   43.8300   35.8430 C.2   174  PRO174      0.2575
     57  O         12.3440   43.4950   36.8540 O.2   174  PRO174     -0.2718
     58  CB        12.0870   43.5670   33.5120 C.3   174  PRO174      0.0282
     59  CG        12.1200   44.4390   32.3220 C.3   174  PRO174      0.0208
     60  CD        13.0630   45.5540   32.6500 C.3   174  PRO174      0.0893
     61  N         14.2680   43.6200   35.6840 N.am  175  ASN175     -0.1975
     62  CA        15.0590   42.9470   36.7050 C.3   175  ASN175      0.1688
     63  C         15.0910   43.7260   38.0040 C.2   175  ASN175      0.2292
     64  O         15.0660   43.1440   39.0860 O.2   175  ASN175     -0.2864
     65  CB        16.4780   42.7090   36.2050 C.3   175  ASN175      0.1181
     66  CG        16.5440   41.6440   35.1370 C.2   175  ASN175      0.2629
     67  OD1       15.5310   41.0510   34.7770 O.2   175  ASN175     -0.2716
     68  ND2       17.7410   41.3890   34.6290 N.am  175  ASN175     -0.0877
     69  N         11.9000   43.1010   39.7580 N.3   178  THR178     -0.1218
     70  CA        11.8860   41.7350   40.2700 C.3   178  THR178      0.1862
     71  C         12.5880   41.6550   41.6150 C.2   178  THR178      0.2287
     72  O         12.0650   41.0750   42.5660 O.2   178  THR178     -0.2866
     73  CB        12.5510   40.7590   39.2870 C.3   178  THR178      0.1770
     74  OG1       11.8500   40.7970   38.0400 O.3   178  THR178     -0.2211
     75  CG2       12.5130   39.3410   39.8320 C.3   178  THR178      0.0375
     76  N          2.5600   40.6200   45.9890 N.3   211  SER211     -0.1202
     77  CA         1.8570   39.8370   44.9860 C.3   211  SER211      0.2020
     78  C          1.4880   40.6900   43.7820 C.2   211  SER211      0.2618
     79  O          1.6450   40.2680   42.6380 O.2   211  SER211     -0.2717
     80  CB         0.5970   39.2070   45.5860 C.3   211  SER211      0.2103
     81  OG         0.0210   38.2650   44.6970 O.3   211  SER211     -0.2182
     82  N          1.0260   41.9060   44.0460 N.am  212  ILE212     -0.1979
     83  CA         0.6040   42.8000   42.9800 C.3   212  ILE212      0.1595
     84  C          1.8010   43.2570   42.1560 C.2   212  ILE212      0.2287
     85  O          1.7830   43.1860   40.9260 O.2   212  ILE212     -0.2864
     86  CB        -0.1410   44.0250   43.5380 C.3   212  ILE212      0.0276
     87  CG1       -1.4650   43.5930   44.1690 C.3   212  ILE212      0.0022
     88  CG2       -0.3810   45.0470   42.4400 C.3   212  ILE212      0.0022
     89  CD1       -2.1290   44.6650   45.0040 C.3   212  ILE212      0.0001
     90  N          4.6450   41.8950   41.8330 N.3   214  ASP214     -0.1225
     91  CA         5.3040   40.7920   41.1290 C.3   214  ASP214      0.1805
     92  C          4.7500   40.6350   39.7120 C.2   214  ASP214      0.2598
     93  O          5.2240   39.8100   38.9370 O.2   214  ASP214     -0.2718
     94  CB         5.1480   39.4770   41.9050 C.3   214  ASP214      0.1424
     95  CG         6.0260   38.3500   41.3510 C.2   214  ASP214      0.3668
     96  OD1        7.0880   38.6300   40.7460 O.co2 214  ASP214     -0.2456
     97  OD2        5.6430   37.1720   41.5200 O.co2 214  ASP214     -0.2456
     98  N          3.7370   41.4260   39.3800 N.am  215  GLY215     -0.1957
     99  CA         3.2120   41.4590   38.0310 C.3   215  GLY215      0.1869
    100  C          3.8380   42.5600   37.1960 C.2   215  GLY215      0.2309
    101  O          3.7780   42.5290   35.9690 O.2   215  GLY215     -0.2863
    102  N          7.0740   43.5070   36.8780 N.3   217  ASP217     -0.1225
    103  CA         8.3070   43.1420   36.1940 C.3   217  ASP217      0.1805
    104  C          7.9880   42.4990   34.8470 C.2   217  ASP217      0.2598
    105  O          8.6530   42.7720   33.8470 O.2   217  ASP217     -0.2718
    106  CB         9.1700   42.2160   37.0650 C.3   217  ASP217      0.1424
    107  CG         8.3970   41.0410   37.6350 C.2   217  ASP217      0.3668
    108  OD1        7.1490   41.0830   37.6540 O.co2 217  ASP217     -0.2456
    109  OD2        9.0440   40.0690   38.0750 O.co2 217  ASP217     -0.2456
    110  N          6.9650   41.6500   34.8310 N.am  218  GLY218     -0.1957
    111  CA         6.5180   41.0120   33.6080 C.3   218  GLY218      0.1869
    112  C          5.8150   41.9760   32.6720 C.2   218  GLY218      0.2309
    113  O          5.9960   41.9120   31.4560 O.2   218  GLY218     -0.2863
    114  N          8.3650   44.3270   31.1110 N.3   221  ALA221     -0.1231
    115  CA         9.1810   43.5430   30.1860 C.3   221  ALA221      0.1694
    116  C          8.5230   43.4460   28.8190 C.2   221  ALA221      0.2591
    117  O          9.1550   43.6880   27.7910 O.2   221  ALA221     -0.2718
    118  CB         9.4320   42.1510   30.7470 C.3   221  ALA221      0.0304
    119  N          7.2450   43.0910   28.8190 N.am  222  ARG222     -0.1980
    120  CA         6.4960   42.9540   27.5810 C.3   222  ARG222      0.1597
    121  C          6.1680   44.3190   26.9820 C.2   222  ARG222      0.2287
    122  O          6.1540   44.4790   25.7620 O.2   222  ARG222     -0.2864
    123  CB         5.2240   42.1380   27.8220 C.3   222  ARG222      0.0334
    124  CG         5.5100   40.6660   28.0840 C.3   222  ARG222      0.0492
    125  CD         4.2460   39.8580   28.3150 C.3   222  ARG222      0.2205
    126  NE         3.5860   40.2040   29.5690 N.pl3 222  ARG222     -0.0865
    127  CZ         3.9310   39.7090   30.7540 C.cat 222  ARG222      0.5346
    128  NH1        4.9380   38.8500   30.8480 N.pl3 222  ARG222      0.1354
    129  NH2        3.2750   40.0750   31.8450 N.pl3 222  ARG222      0.1354
    130  N         11.6080   44.2000   26.7390 N.3   226  MET226     -0.1230
    131  CA        12.8320   43.9390   27.4740 C.3   226  MET226      0.1702
    132  C         12.7620   42.5660   28.1280 C.2   226  MET226      0.2592
    133  O         13.3630   42.3380   29.1750 O.2   226  MET226     -0.2718
    134  CB        13.0770   45.0280   28.5220 C.3   226  MET226      0.0401
    135  CG        13.4380   46.3870   27.9350 C.3   226  MET226      0.0596
    136  SD        14.0000   47.5570   29.1880 S.3   226  MET226     -0.1393
    137  CE        12.4580   47.9320   30.0100 C.3   226  MET226      0.0692
    138  N         12.0240   41.6520   27.4990 N.am  227  GLU227     -0.1966
    139  CA        11.9680   40.2770   27.9800 C.3   227  GLU227      0.1733
    140  C         13.3390   39.6380   27.8080 C.2   227  GLU227      0.2617
    141  O         14.0850   39.9680   26.8880 O.2   227  GLU227     -0.2715
    142  CB        10.9000   39.4590   27.2480 C.3   227  GLU227      0.0429
    143  CG         9.4890   39.9780   27.4040 C.3   227  GLU227      0.1163
    144  CD         8.8020   40.1450   26.0660 C.2   227  GLU227      0.3649
    145  OE1        9.3390   40.8790   25.2050 O.co2 227  GLU227     -0.2457
    146  OE2        7.7090   39.5590   25.8830 O.co2 227  GLU227     -0.2457
    147  N         13.6690   38.7290   28.7140 N.am  228  SER228     -0.1950
    148  CA        14.9540   38.0540   28.6830 C.3   228  SER228      0.1924
    149  C         14.8270   36.6930   29.3420 C.2   228  SER228      0.2314
    150  O         13.9250   36.4730   30.1470 O.2   228  SER228     -0.2863
    151  CB        16.0260   38.8970   29.3760 C.3   228  SER228      0.2116
    152  OG        15.7970   38.9780   30.7740 O.3   228  SER228     -0.2180
    153  N         15.6260   36.9360   32.9870 N.3   231  GLY231     -0.1210
    154  CA        14.5170   37.6270   33.6180 C.3   231  GLY231      0.1956
    155  C         13.3990   36.6810   34.0130 C.2   231  GLY231      0.2611
    156  O         12.8740   36.7580   35.1240 O.2   231  GLY231     -0.2717
    157  N         13.0350   35.7920   33.0930 N.am  232  ALA232     -0.1979
    158  CA        12.0230   34.7760   33.3540 C.3   232  ALA232      0.1597
    159  C         12.5140   33.8260   34.4430 C.2   232  ALA232      0.2287
    160  O         11.7520   33.4190   35.3210 O.2   232  ALA232     -0.2864
    161  CB        11.6960   34.0140   32.0850 C.3   232  ALA232      0.0319
    162  N         14.9100   34.4280   36.8320 N.3   234  LEU234     -0.1231
    163  CA        15.0090   35.1200   38.1130 C.3   234  LEU234      0.1693
    164  C         13.6440   35.4190   38.7300 C.2   234  LEU234      0.2592
    165  O         13.4640   35.2990   39.9410 O.2   234  LEU234     -0.2718
    166  CB        15.7980   36.4220   37.9520 C.3   234  LEU234      0.0284
    167  CG        16.1020   37.1910   39.2410 C.3   234  LEU234      0.0019
    168  CD1       17.1000   36.4370   40.1010 C.3   234  LEU234      0.0001
    169  CD2       16.6140   38.5850   38.9330 C.3   234  LEU234      0.0001
    170  N         12.6910   35.8110   37.8940 N.am  235  ASP235     -0.1974
    171  CA        11.3500   36.1340   38.3650 C.3   235  ASP235      0.1709
    172  C         10.7340   34.9800   39.1460 C.2   235  ASP235      0.2293
    173  O         10.1250   35.1860   40.1970 O.2   235  ASP235     -0.2864
    174  CB        10.4480   36.5110   37.1860 C.3   235  ASP235      0.1436
    175  CG         9.1200   37.0980   37.6290 C.2   235  ASP235      0.3671
    176  OD1        9.0120   37.5130   38.8040 O.co2 235  ASP235     -0.2456
    177  OD2        8.1880   37.1540   36.8010 O.co2 235  ASP235     -0.2456
    178  N         10.5720   34.0970   43.5300 N.3   239  ASP239     -0.1239
    179  CA         9.2370   33.8110   44.0420 C.3   239  ASP239      0.1674
    180  C          9.2580   32.5800   44.9420 C.2   239  ASP239      0.2266
    181  O          8.5090   32.5000   45.9130 O.2   239  ASP239     -0.2867
    182  CB         8.2450   33.5990   42.8970 C.3   239  ASP239      0.1410
    183  CG         7.7660   34.9020   42.2860 C.2   239  ASP239      0.3668
    184  OD1        7.9850   35.9680   42.8990 O.co2 239  ASP239     -0.2456
    185  OD2        7.1600   34.8570   41.1930 O.co2 239  ASP239     -0.2456
    186  N         -0.0910   31.0330   43.1360 N.3   301  ARG301     -0.1231
    187  CA         0.6030   32.0150   43.9660 C.3   301  ARG301      0.1694
    188  C         -0.2610   33.2130   44.3380 C.2   301  ARG301      0.2592
    189  O         -0.1890   33.7100   45.4640 O.2   301  ARG301     -0.2718
    190  CB         1.8680   32.5020   43.2650 C.3   301  ARG301      0.0321
    191  CG         2.7470   33.3530   44.1510 C.3   301  ARG301      0.0489
    192  CD         4.1770   33.3700   43.6630 C.3   301  ARG301      0.2205
    193  NE         5.0860   33.6960   44.7530 N.pl3 301  ARG301     -0.0865
    194  CZ         5.5450   34.9150   45.0100 C.cat 301  ARG301      0.5346
    195  NH1        5.2000   35.9410   44.2410 N.pl3 301  ARG301      0.1354
    196  NH2        6.3610   35.1030   46.0370 N.pl3 301  ARG301      0.1354
    197  N         -1.0690   33.6780   43.3900 N.am  302  ASP302     -0.1974
    198  CA        -1.9510   34.8110   43.6400 C.3   302  ASP302      0.1709
    199  C         -2.9370   34.4890   44.7620 C.2   302  ASP302      0.2293
    200  O         -3.2380   35.3440   45.5980 O.2   302  ASP302     -0.2864
    201  CB        -2.6970   35.2120   42.3640 C.3   302  ASP302      0.1436
    202  CG        -3.4020   34.0420   41.7030 C.2   302  ASP302      0.3671
    203  OD1       -2.9200   32.8980   41.8330 O.co2 302  ASP302     -0.2456
    204  OD2       -4.4420   34.2670   41.0520 O.co2 302  ASP302     -0.2456
@<TRIPOS>BOND
     1   145   144   ar
     2   122   121    2
     3   146   144   ar
     4   144   143    1
     5   130   131    1
     6   141   140    2
     7   121   120    1
     8   142   143    1
     9   142   139    1
    10   131   132    1
    11   131   134    1
    12   138   139    1
    13   138   132   am
    14   120   123    1
    15   120   119    1
    16    10    16    1
    17    10    11    1
    18   117   116    2
    19   140   139    1
    20   140   147   am
    21   123   124    1
    22   135   134    1
    23   135   136    1
    24    16    15    1
    25   124   125    1
    26   132   133    2
    27   125   126    1
    28   148   147    1
    29   148   149    1
    30   148   151    1
    31    11    12    1
    32    11    14    1
    33   119   116   am
    34   116   115    1
    35    13    12    2
    36   136   137    1
    37   149   150    2
    38   151   152    1
    39    15    14    1
    40    12    17   am
    41   126   127    2
    42   115   118    1
    43   115   114    1
    44    17    18    1
    45     3     2    1
    46     3     4    2
    47   127   128    1
    48   127   129    1
    49     2     1    1
    50     2     5    1
    51    18    19    1
    52    18    21    1
    53   113   112    2
    54    20    19    2
    55     5     6    1
    56   161   158    1
    57     6     7    1
    58    59    60    1
    59    59    58    1
    60    60    54    1
    61   112   111    1
    62     7     8    1
    63   153   154    1
    64   157   158    1
    65   157   155   am
    66   158   159    1
    67    58    55    1
    68   111   110    1
    69   154   155    1
    70   105   104    2
    71   155   156    2
    72    22    23    1
    73    54    55    1
    74     8     9    1
    75    29    27   ar
    76   159   160    2
    77    68    66   am
    78    55    56    1
    79    67    66    2
    80   110   104   am
    81   104   103    1
    82    27    26    1
    83    27    28   ar
    84    53    51    1
    85    66    65    1
    86    26    23    1
    87    51    52    1
    88    51    50    2
    89    23    24    1
    90    25    24    2
    91    50    49    1
    92    61    56   am
    93    61    62    1
    94    49    48    1
    95    56    57    2
    96   101   100    2
    97    48    47    1
    98   103   102    1
    99   103   106    1
   100    65    62    1
   101    47    44    1
   102    62    63    1
   103    46    45    2
   104   177   175   ar
   105   162   163    1
   106   106   107    1
   107   174   175    1
   108   174   171    1
   109   100    99    1
   110    45    44    1
   111    44    43    1
   112   175   176   ar
   113   107   108   ar
   114   107   109   ar
   115   170   171    1
   116   170   164   am
   117   166   163    1
   118   166   167    1
   119    63    64    2
   120    99    98    1
   121    74    73    1
   122   163   164    1
   123   171   172    1
   124    33    32    2
   125    43    37   am
   126    32    31    1
   127   164   165    2
   128   169   167    1
   129    93    92    2
   130    34    31    1
   131   172   173    2
   132   167   168    1
   133    73    75    1
   134    73    70    1
   135    98    92   am
   136    92    91    1
   137    31    30    1
   138    69    70    1
   139    37    38    2
   140    37    36    1
   141    70    71    1
   142    96    95   ar
   143    85    84    2
   144   204   202   ar
   145    35    36    1
   146    36    39    1
   147    91    90    1
   148    91    94    1
   149   185   183   ar
   150    39    40    1
   151    95    97   ar
   152    95    94    1
   153    71    72    2
   154   202   203   ar
   155   202   201    1
   156    84    83    1
   157   183   182    1
   158   183   184   ar
   159   201   198    1
   160    88    86    1
   161    40    42   am
   162    40    41    2
   163    79    78    2
   164   182   179    1
   165    83    86    1
   166    83    82    1
   167   186   187    1
   168   190   187    1
   169   190   191    1
   170   197   198    1
   171   197   188   am
   172   178   179    1
   173    86    87    1
   174   198   199    1
   175   192   191    1
   176   192   193    1
   177    78    82   am
   178    78    77    1
   179   187   188    1
   180   179   180    1
   181    87    89    1
   182   195   194    1
   183   188   189    2
   184    81    80    1
   185   193   194    2
   186   199   200    2
   187   180   181    2
   188    77    80    1
   189    77    76    1
   190   194   196    1
