@<TRIPOS>MOLECULE
tmp/4q7cB03.pdb
 102 97 0 0 0
SMALL
GASTEIGER

@<TRIPOS>ATOM
      1  N         -0.9100   38.1350   31.3190 N.3   136  LYS136     -0.1245
      2  CA        -0.6740   36.7520   30.9220 C.3   136  LYS136      0.1561
      3  C         -1.9910   36.0270   30.6710 C.2   136  LYS136      0.2260
      4  O         -2.4660   35.2660   31.5160 O.2   136  LYS136     -0.2867
      5  CB         0.1380   36.0090   31.9850 C.3   136  LYS136      0.0271
      6  CG         1.5810   36.4660   32.1070 C.3   136  LYS136      0.0035
      7  CD         2.4020   35.4620   32.9030 C.3   136  LYS136      0.0206
      8  CE         1.7750   35.1940   34.2630 C.3   136  LYS136      0.1093
      9  NZ         2.4930   34.1270   35.0140 N.3   136  LYS136     -0.1314
     10  N          2.9390   30.0930   32.6820 N.3   146  TYR146     -0.1227
     11  CA         1.5990   30.0070   33.2500 C.3   146  TYR146      0.1736
     12  C          0.7190   31.1330   32.7290 C.2   146  TYR146      0.2595
     13  O          1.2180   32.1170   32.1900 O.2   146  TYR146     -0.2718
     14  CB         1.6360   30.1010   34.7730 C.3   146  TYR146      0.0548
     15  CG         2.4380   29.0530   35.4990 C.ar  146  TYR146     -0.0200
     16  CD1        3.8270   29.0880   35.5030 C.ar  146  TYR146     -0.0009
     17  CD2        1.8030   28.0590   36.2320 C.ar  146  TYR146     -0.0009
     18  CE1        4.5630   28.1410   36.1920 C.ar  146  TYR146      0.0417
     19  CE2        2.5260   27.1090   36.9270 C.ar  146  TYR146      0.0417
     20  CZ         3.9080   27.1530   36.9050 C.ar  146  TYR146      0.1957
     21  OH         4.6360   26.2070   37.5970 O.3   146  TYR146     -0.2866
     22  N         -0.5890   30.9990   32.9210 N.am  147  TYR147     -0.1976
     23  CA        -1.4950   32.1240   32.7270 C.3   147  TYR147      0.1639
     24  C         -1.8640   32.6900   34.0940 C.2   147  TYR147      0.2290
     25  O         -1.6160   32.0510   35.1190 O.2   147  TYR147     -0.2864
     26  CB        -2.7380   31.7030   31.9440 C.3   147  TYR147      0.0560
     27  CG        -2.4620   31.4260   30.4800 C.ar  147  TYR147     -0.0198
     28  CD1       -2.2010   32.4650   29.5960 C.ar  147  TYR147     -0.0009
     29  CD2       -2.4640   30.1270   29.9820 C.ar  147  TYR147     -0.0009
     30  CE1       -1.9490   32.2220   28.2580 C.ar  147  TYR147      0.0417
     31  CE2       -2.2150   29.8740   28.6430 C.ar  147  TYR147      0.0417
     32  CZ        -1.9570   30.9260   27.7860 C.ar  147  TYR147      0.1957
     33  OH        -1.7070   30.6850   26.4540 O.3   147  TYR147     -0.2866
     34  N          4.6450   41.8950   41.8330 N.3   214  ASP214     -0.1239
     35  CA         5.3040   40.7920   41.1290 C.3   214  ASP214      0.1674
     36  C          4.7500   40.6350   39.7120 C.2   214  ASP214      0.2266
     37  O          5.2240   39.8100   38.9370 O.2   214  ASP214     -0.2867
     38  CB         5.1480   39.4770   41.9050 C.3   214  ASP214      0.1410
     39  CG         6.0260   38.3500   41.3510 C.2   214  ASP214      0.3668
     40  OD1        7.0880   38.6300   40.7460 O.co2 214  ASP214     -0.2456
     41  OD2        5.6430   37.1720   41.5200 O.co2 214  ASP214     -0.2456
     42  N         10.5720   34.0970   43.5300 N.3   239  ASP239     -0.1225
     43  CA         9.2370   33.8110   44.0420 C.3   239  ASP239      0.1805
     44  C          9.2580   32.5800   44.9420 C.2   239  ASP239      0.2597
     45  O          8.5090   32.5000   45.9130 O.2   239  ASP239     -0.2718
     46  CB         8.2450   33.5990   42.8970 C.3   239  ASP239      0.1424
     47  CG         7.7660   34.9020   42.2860 C.2   239  ASP239      0.3668
     48  OD1        7.9850   35.9680   42.8990 O.co2 239  ASP239     -0.2456
     49  OD2        7.1600   34.8570   41.1930 O.co2 239  ASP239     -0.2456
     50  N         10.1180   31.6220   44.6120 N.am  240  ARG240     -0.1979
     51  CA        10.2860   30.4210   45.4260 C.3   240  ARG240      0.1597
     52  C         10.9590   30.7540   46.7510 C.2   240  ARG240      0.2287
     53  O         10.5740   30.2420   47.8040 O.2   240  ARG240     -0.2864
     54  CB        11.0900   29.3670   44.6710 C.3   240  ARG240      0.0334
     55  CG        10.5450   29.0430   43.2910 C.3   240  ARG240      0.0492
     56  CD         9.1600   28.4240   43.3480 C.3   240  ARG240      0.2205
     57  NE         8.0780   29.4100   43.3050 N.pl3 240  ARG240     -0.0865
     58  CZ         7.5730   29.9270   42.1870 C.cat 240  ARG240      0.5346
     59  NH1        6.5860   30.8110   42.2490 N.pl3 240  ARG240      0.1354
     60  NH2        8.0520   29.5600   41.0060 N.pl3 240  ARG240      0.1354
     61  N          3.7110   23.3870   43.7610 N.3   275  ILE275     -0.1231
     62  CA         2.7600   23.9800   42.8310 C.3   275  ILE275      0.1692
     63  C          3.5370   24.6280   41.6900 C.2   275  ILE275      0.2591
     64  O          3.1380   24.5680   40.5250 O.2   275  ILE275     -0.2718
     65  CB         1.8560   25.0140   43.5250 C.3   275  ILE275      0.0266
     66  CG1        0.9870   24.3240   44.5730 C.3   275  ILE275      0.0019
     67  CG2        0.9790   25.7260   42.5150 C.3   275  ILE275      0.0020
     68  CD1        0.0700   23.2780   43.9950 C.3   275  ILE275      0.0001
     69  N          4.6670   25.2280   42.0370 N.am  276  ALA276     -0.1980
     70  CA         5.5580   25.8140   41.0510 C.3   276  ALA276      0.1597
     71  C          6.3340   24.7530   40.2730 C.2   276  ALA276      0.2287
     72  O          6.3910   24.8010   39.0470 O.2   276  ALA276     -0.2864
     73  CB         6.5110   26.7670   41.7170 C.3   276  ALA276      0.0319
     74  N         -2.8550   28.6510   43.3430 N.3   300  THR300     -0.1203
     75  CA        -1.7170   29.2830   42.6810 C.3   300  THR300      0.1994
     76  C         -1.2180   30.4470   43.5310 C.2   300  THR300      0.2617
     77  O         -1.8470   30.8060   44.5280 O.2   300  THR300     -0.2717
     78  CB        -2.0640   29.7820   41.2610 C.3   300  THR300      0.1784
     79  OG1       -3.2470   30.5870   41.3010 O.3   300  THR300     -0.2211
     80  CG2       -2.2860   28.6080   40.3250 C.3   300  THR300      0.0376
     81  N         -0.0910   31.0330   43.1360 N.am  301  ARG301     -0.1979
     82  CA         0.6030   32.0150   43.9660 C.3   301  ARG301      0.1597
     83  C         -0.2610   33.2130   44.3380 C.2   301  ARG301      0.2287
     84  O         -0.1890   33.7100   45.4640 O.2   301  ARG301     -0.2864
     85  CB         1.8680   32.5020   43.2650 C.3   301  ARG301      0.0334
     86  CG         2.7470   33.3530   44.1510 C.3   301  ARG301      0.0492
     87  CD         4.1770   33.3700   43.6630 C.3   301  ARG301      0.2205
     88  NE         5.0860   33.6960   44.7530 N.pl3 301  ARG301     -0.0865
     89  CZ         5.5450   34.9150   45.0100 C.cat 301  ARG301      0.5346
     90  NH1        5.2000   35.9410   44.2410 N.pl3 301  ARG301      0.1354
     91  NH2        6.3610   35.1030   46.0370 N.pl3 301  ARG301      0.1354
     92  N         -2.4190   31.9700   47.1290 N.3   304  ARG304     -0.1245
     93  CA        -1.6470   31.6830   48.3330 C.3   304  ARG304      0.1563
     94  C         -1.2930   32.9550   49.0870 C.2   304  ARG304      0.2260
     95  O         -1.3980   33.0070   50.3090 O.2   304  ARG304     -0.2867
     96  CB        -0.3710   30.9180   47.9850 C.3   304  ARG304      0.0307
     97  CG        -0.6070   29.5240   47.4510 C.3   304  ARG304      0.0489
     98  CD         0.6580   28.6910   47.5220 C.3   304  ARG304      0.2205
     99  NE         1.7720   29.3100   46.8060 N.pl3 304  ARG304     -0.0865
    100  CZ         2.0190   29.1420   45.5100 C.cat 304  ARG304      0.5346
    101  NH1        1.2280   28.3770   44.7720 N.pl3 304  ARG304      0.1354
    102  NH2        3.0560   29.7450   44.9500 N.pl3 304  ARG304      0.1354
@<TRIPOS>BOND
     1    33    32    1
     2    32    30   ar
     3    32    31   ar
     4    30    28   ar
     5    31    29   ar
     6    28    27   ar
     7    29    27   ar
     8    27    26    1
     9     3     2    1
    10     3     4    2
    11     2     1    1
    12     2     5    1
    13    26    23    1
    14     5     6    1
    15     6     7    1
    16    13    12    2
    17    10    11    1
    18    23    22    1
    19    23    24    1
    20    12    22   am
    21    12    11    1
    22     7     8    1
    23    11    14    1
    24    24    25    2
    25     8     9    1
    26    14    15    1
    27    15    16   ar
    28    15    17   ar
    29    16    18   ar
    30    18    20   ar
    31    17    19   ar
    32    20    19   ar
    33    20    21    1
    34    37    36    2
    35    72    71    2
    36    36    35    1
    37    71    70    1
    38    80    78    1
    39    64    63    2
    40    40    39   ar
    41    60    58    1
    42    70    73    1
    43    70    69    1
    44    35    34    1
    45    35    38    1
    46    49    47   ar
    47    78    79    1
    48    78    75    1
    49    39    41   ar
    50    39    38    1
    51    63    69   am
    52    63    62    1
    53    58    59    1
    54    58    57    2
    55    47    46    1
    56    47    48   ar
    57    67    65    1
    58    75    74    1
    59    75    76    1
    60    62    65    1
    61    62    61    1
    62    46    43    1
    63    81    76   am
    64    81    82    1
    65    85    82    1
    66    85    86    1
    67    55    56    1
    68    55    54    1
    69    57    56    1
    70    65    66    1
    71    42    43    1
    72    76    77    2
    73    87    86    1
    74    87    88    1
    75    82    83    1
    76    68    66    1
    77    43    44    1
    78    90    89    1
    79    83    84    2
    80    50    44   am
    81    50    51    1
    82    54    51    1
    83    88    89    2
    84   101   100    1
    85    44    45    2
    86   102   100    1
    87    89    91    1
    88    51    52    1
    89   100    99    2
    90    52    53    2
    91    99    98    1
    92    92    93    1
    93    97    98    1
    94    97    96    1
    95    96    93    1
    96    93    94    1
    97    94    95    2
