@<TRIPOS>MOLECULE
tmp/4q7dA00.pdb
 106 100 0 0 0
SMALL
GASTEIGER

@<TRIPOS>ATOM
      1  N          0.6350   -6.0160   -1.5640 N.3     2  SER2       -0.1217
      2  CA        -0.2180   -5.2500   -2.5080 C.3     2  SER2        0.1889
      3  C         -1.3860   -6.0780   -3.0880 C.2     2  SER2        0.2288
      4  O         -1.4510   -7.2830   -2.8960 O.2     2  SER2       -0.2866
      5  CB         0.6240   -4.7800   -3.7120 C.3     2  SER2        0.2089
      6  OG         1.3650   -3.5990   -3.4590 O.3     2  SER2       -0.2183
      7  N         -3.7600   -6.5360   -7.0260 N.3     4  PHE4       -0.1241
      8  CA        -3.9600   -6.2370   -8.4480 C.3     4  PHE4        0.1605
      9  C         -5.0630   -7.1170   -9.0430 C.2     4  PHE4        0.2264
     10  O         -4.9080   -8.3150   -9.0900 O.2     4  PHE4       -0.2867
     11  CB        -2.6590   -6.4590   -9.2040 C.3     4  PHE4        0.0534
     12  CG        -1.5500   -5.5380   -8.7730 C.ar    4  PHE4       -0.0203
     13  CD1       -1.7340   -4.1690   -8.7530 C.ar    4  PHE4       -0.0042
     14  CD2       -0.3190   -6.0430   -8.3900 C.ar    4  PHE4       -0.0042
     15  CE1       -0.7180   -3.3390   -8.3550 C.ar    4  PHE4       -0.0003
     16  CE2        0.7030   -5.2080   -7.9820 C.ar    4  PHE4       -0.0003
     17  CZ         0.5090   -3.8650   -7.9690 C.ar    4  PHE4       -0.0000
     18  N         -7.7250   -8.1980  -12.2970 N.3     6  PHE6       -0.1241
     19  CA        -7.5340   -8.2850  -13.7420 C.3     6  PHE6        0.1605
     20  C         -8.7510   -8.8620  -14.4530 C.2     6  PHE6        0.2264
     21  O         -9.4690   -9.6900  -13.8990 O.2     6  PHE6       -0.2867
     22  CB        -6.3510   -9.1560  -14.1020 C.3     6  PHE6        0.0534
     23  CG        -5.0420   -8.6580  -13.6060 C.ar    6  PHE6       -0.0203
     24  CD1       -4.2440   -7.8600  -14.3930 C.ar    6  PHE6       -0.0042
     25  CD2       -4.5770   -9.0290  -12.3700 C.ar    6  PHE6       -0.0042
     26  CE1       -3.0170   -7.4300  -13.9590 C.ar    6  PHE6       -0.0003
     27  CE2       -3.3410   -8.5900  -11.9240 C.ar    6  PHE6       -0.0003
     28  CZ        -2.5680   -7.7810  -12.7260 C.ar    6  PHE6       -0.0000
     29  N         -4.4690  -10.9310   -7.8520 N.3    25  VAL25      -0.1245
     30  CA        -3.0620  -11.2910   -7.7420 C.3    25  VAL25       0.1561
     31  C         -2.3840  -10.4730   -6.6360 C.2    25  VAL25       0.2260
     32  O         -2.2000   -9.2540   -6.7660 O.2    25  VAL25      -0.2867
     33  CB        -2.4040  -10.9980   -9.0480 C.3    25  VAL25       0.0252
     34  CG1       -0.8730  -11.1810   -8.9760 C.3    25  VAL25       0.0019
     35  CG2       -3.0560  -11.8350  -10.1350 C.3    25  VAL25       0.0019
     36  N          0.7230   -9.4610   -4.1720 N.3    27  VAL27      -0.1231
     37  CA         2.1970   -9.4040   -4.2640 C.3    27  VAL27       0.1692
     38  C          2.7870   -9.0180   -2.9080 C.2    27  VAL27       0.2592
     39  O          2.0860   -8.4720   -2.0370 O.2    27  VAL27      -0.2718
     40  CB         2.6730   -8.3850   -5.3630 C.3    27  VAL27       0.0266
     41  CG1        4.2230   -8.2940   -5.4760 C.3    27  VAL27       0.0020
     42  CG2        2.0390   -8.7450   -6.7240 C.3    27  VAL27       0.0020
     43  N          4.0640   -9.3360   -2.7180 N.am   28  ASP28      -0.1974
     44  CA         4.7960   -8.9030   -1.5350 C.3    28  ASP28       0.1709
     45  C          4.1090   -9.4690   -0.2780 C.2    28  ASP28       0.2293
     46  O          3.8640   -8.7630    0.7070 O.2    28  ASP28      -0.2864
     47  CB         4.9590   -7.3650   -1.5140 C.3    28  ASP28       0.1436
     48  CG         6.0170   -6.8640   -2.5240 C.2    28  ASP28       0.3671
     49  OD1        6.7570   -7.7000   -3.0990 O.co2  28  ASP28      -0.2456
     50  OD2        6.1200   -5.6340   -2.7370 O.co2  28  ASP28      -0.2456
     51  N          8.5050  -16.1830   -4.5530 N.3    58  GLN58      -0.1231
     52  CA         9.3060  -15.3330   -5.4170 C.3    58  GLN58       0.1698
     53  C         10.7390  -15.1930   -4.9170 C.2    58  GLN58       0.2592
     54  O         11.0200  -15.4360   -3.7420 O.2    58  GLN58      -0.2718
     55  CB         8.6990  -13.9550   -5.4720 C.3    58  GLN58       0.0381
     56  CG         8.9660  -13.2980   -6.7490 C.3    58  GLN58       0.0905
     57  CD         8.1280  -13.8690   -7.8860 C.2    58  GLN58       0.2608
     58  OE1        6.9090  -13.6970   -7.9260 O.2    58  GLN58      -0.2717
     59  NE2        8.7850  -14.5420   -8.8160 N.am   58  GLN58      -0.0878
     60  N         11.6350  -14.7610   -5.8020 N.am   59  TYR59      -0.1962
     61  CA        13.0690  -14.7670   -5.5190 C.3    59  TYR59       0.1771
     62  C         13.5180  -13.8270   -4.3590 C.2    59  TYR59       0.2619
     63  O         14.6430  -13.9270   -3.8510 O.2    59  TYR59      -0.2715
     64  CB        13.8640  -14.4730   -6.8060 C.3    59  TYR59       0.0574
     65  CG        15.2550  -14.0110   -6.4950 C.ar   59  TYR59      -0.0198
     66  CD1       16.2200  -14.9190   -6.0620 C.ar   59  TYR59      -0.0009
     67  CD2       15.5880  -12.6600   -6.5430 C.ar   59  TYR59      -0.0009
     68  CE1       17.4950  -14.5020   -5.7220 C.ar   59  TYR59       0.0417
     69  CE2       16.8660  -12.2280   -6.2120 C.ar   59  TYR59       0.0417
     70  CZ        17.8170  -13.1570   -5.7980 C.ar   59  TYR59       0.1957
     71  OH        19.0860  -12.7430   -5.4590 O.3    59  TYR59      -0.2866
     72  N         12.3750  -12.7310   -4.5660 N.am   60  ASN60      -0.1972
     73  CA        12.7140  -11.7020   -3.5770 C.3    60  ASN60       0.1688
     74  C         12.1180  -11.9020   -2.1770 C.2    60  ASN60       0.2292
     75  O         11.8220  -10.9140   -1.5020 O.2    60  ASN60      -0.2864
     76  CB        12.1200  -10.4160   -4.0710 C.3    60  ASN60       0.1181
     77  CG        10.6130  -10.5190   -4.1350 C.2    60  ASN60       0.2629
     78  OD1       10.0330  -11.5790   -4.0430 O.2    60  ASN60      -0.2716
     79  ND2        9.9940   -9.4190   -4.3970 N.am   60  ASN60      -0.0877
     80  N          9.5090  -12.7270   -0.7440 N.3    62  THR62      -0.1218
     81  CA         8.0750  -12.4310   -0.7830 C.3    62  THR62       0.1862
     82  C          7.3240  -13.3220   -1.7710 C.2    62  THR62       0.2287
     83  O          7.8850  -13.7510   -2.7770 O.2    62  THR62      -0.2866
     84  CB         7.7790  -10.9370   -1.1100 C.3    62  THR62       0.1770
     85  OG1        7.8310  -10.6940   -2.5320 O.3    62  THR62      -0.2211
     86  CG2        8.7520  -10.0050   -0.3550 C.3    62  THR62       0.0375
     87  N          3.8750  -14.6730   -4.1960 N.3    64  ARG64      -0.1245
     88  CA         2.9020  -14.2800   -5.1850 C.3    64  ARG64       0.1563
     89  C          1.7510  -15.2660   -5.1080 C.2    64  ARG64       0.2260
     90  O          1.8360  -16.3570   -5.6610 O.2    64  ARG64      -0.2867
     91  CB         3.5270  -14.3220   -6.5760 C.3    64  ARG64       0.0307
     92  CG         2.5150  -14.1800   -7.7160 C.3    64  ARG64       0.0489
     93  CD         3.2290  -13.9800   -9.0420 C.3    64  ARG64       0.2205
     94  NE         2.2970  -13.8220  -10.1470 N.pl3  64  ARG64      -0.0865
     95  CZ         1.6160  -12.7070  -10.3820 C.cat  64  ARG64       0.5346
     96  NH1        1.7600  -11.6520   -9.5820 N.pl3  64  ARG64       0.1354
     97  NH2        0.7840  -12.6430  -11.4130 N.pl3  64  ARG64       0.1354
     98  N        -10.5310   -4.3540   -4.1990 N.3    97  LYS97      -0.1245
     99  CA       -10.4240   -3.7670   -5.5180 C.3    97  LYS97       0.1561
    100  C        -11.5820   -4.2250   -6.4130 C.2    97  LYS97       0.2260
    101  O        -12.3120   -5.1650   -6.0820 O.2    97  LYS97      -0.2867
    102  CB        -9.0550   -4.0780   -6.0820 C.3    97  LYS97       0.0271
    103  CG        -7.9860   -3.3370   -5.2910 C.3    97  LYS97       0.0035
    104  CD        -6.6670   -3.2030   -6.0020 C.3    97  LYS97       0.0206
    105  CE        -5.8500   -2.0370   -5.4400 C.3    97  LYS97       0.1093
    106  NZ        -6.6760   -0.8650   -4.9590 N.3    97  LYS97      -0.1314
@<TRIPOS>BOND
     1    20    21    2
     2    20    19    1
     3    24    26   ar
     4    24    23   ar
     5    22    19    1
     6    22    23    1
     7    26    28   ar
     8    19    18    1
     9    23    25   ar
    10    28    27   ar
    11    25    27   ar
    12    97    95    1
    13    95    94    2
    14    95    96    1
    15    94    93    1
    16    35    33    1
    17    11    12    1
    18    11     8    1
    19    10     9    2
    20    33    34    1
    21    33    30    1
    22     9     8    1
    23    93    92    1
    24    59    57   am
    25    12    13   ar
    26    12    14   ar
    27    13    15   ar
    28     8     7    1
    29    14    16   ar
    30    15    17   ar
    31    16    17   ar
    32    58    57    2
    33    57    56    1
    34    29    30    1
    35    30    31    1
    36    92    91    1
    37    64    65    1
    38    64    61    1
    39    32    31    2
    40    56    55    1
    41    42    40    1
    42    91    88    1
    43    67    65   ar
    44    67    69   ar
    45    65    66   ar
    46   100   101    2
    47   100    99    1
    48    69    70   ar
    49   102    99    1
    50   102   103    1
    51    66    68   ar
    52   104   105    1
    53   104   103    1
    54    60    61    1
    55    60    53   am
    56    70    68   ar
    57    70    71    1
    58    90    89    2
    59    61    62    1
    60    99    98    1
    61    41    40    1
    62    55    52    1
    63   105   106    1
    64    52    53    1
    65    52    51    1
    66    40    37    1
    67    88    89    1
    68    88    87    1
    69    53    54    2
    70    72    62   am
    71    72    73    1
    72    79    77   am
    73    62    63    2
    74    37    36    1
    75    37    38    1
    76    77    76    1
    77    77    78    2
    78    76    73    1
    79     5     6    1
    80     5     2    1
    81    73    74    1
    82    49    48   ar
    83     3     4    2
    84     3     2    1
    85    38    43   am
    86    38    39    2
    87    83    82    2
    88    50    48   ar
    89    43    44    1
    90    85    84    1
    91    48    47    1
    92     2     1    1
    93    74    75    2
    94    82    81    1
    95    44    47    1
    96    44    45    1
    97    84    81    1
    98    84    86    1
    99    81    80    1
   100    45    46    2
