@<TRIPOS>MOLECULE
tmp/4q7fA00.pdb
 156 154 0 0 0
SMALL
GASTEIGER

@<TRIPOS>ATOM
      1  N        -37.0310   36.2590  109.6950 N.3    54  ASP54      -0.1239
      2  CA       -38.3310   36.2680  109.0150 C.3    54  ASP54       0.1674
      3  C        -38.3640   35.1470  108.0140 C.2    54  ASP54       0.2266
      4  O        -38.6280   35.3540  106.8180 O.2    54  ASP54      -0.2867
      5  CB       -38.6700   37.6280  108.3810 C.3    54  ASP54       0.1410
      6  CG       -39.2850   38.6070  109.3850 C.2    54  ASP54       0.3668
      7  OD1      -39.3590   38.2670  110.5940 O.co2  54  ASP54      -0.2456
      8  OD2      -39.6830   39.7180  108.9660 O.co2  54  ASP54      -0.2456
      9  N        -38.9440   39.2200  113.7290 N.3    90  ASN90      -0.1225
     10  CA       -40.1510   39.3130  114.5160 C.3    90  ASN90       0.1785
     11  C        -41.2120   38.2630  114.2010 C.2    90  ASN90       0.2597
     12  O        -41.9310   37.8240  115.0990 O.2    90  ASN90      -0.2718
     13  CB       -40.7840   40.7180  114.4210 C.3    90  ASN90       0.1169
     14  CG       -41.0900   41.1270  112.9930 C.2    90  ASN90       0.2627
     15  OD1      -40.1790   41.3350  112.1870 O.2    90  ASN90      -0.2716
     16  ND2      -42.3690   41.3120  112.6930 N.am   90  ASN90      -0.0877
     17  N        -41.3300   37.8810  112.9380 N.am   91  HIS91      -0.1975
     18  CA       -42.3210   36.8900  112.5120 C.3    91  HIS91       0.1656
     19  C        -42.0390   35.4730  112.9730 C.2    91  HIS91       0.2291
     20  O        -42.9080   34.6030  112.8830 O.2    91  HIS91      -0.2864
     21  CB       -42.5770   37.0000  110.9950 C.3    91  HIS91       0.0771
     22  CG       -43.1850   38.3060  110.6080 C.ar   91  HIS91       0.0820
     23  ND1      -44.5140   38.5870  110.8260 N.ar   91  HIS91      -0.2267
     24  CD2      -42.6450   39.4330  110.0810 C.ar   91  HIS91       0.1154
     25  CE1      -44.7760   39.8180  110.4250 C.ar   91  HIS91       0.1986
     26  NE2      -43.6520   40.3620  109.9940 N.ar   91  HIS91      -0.2212
     27  N        -44.7180   34.6910  115.5020 N.3    94  ASN94      -0.1240
     28  CA       -46.1150   34.6870  115.0630 C.3    94  ASN94       0.1653
     29  C        -46.9280   33.4510  115.3910 C.2    94  ASN94       0.2266
     30  O        -48.1360   33.5380  115.4480 O.2    94  ASN94      -0.2867
     31  CB       -46.2260   34.8640  113.5260 C.3    94  ASN94       0.1155
     32  CG       -46.0490   36.3100  113.0470 C.2    94  ASN94       0.2627
     33  OD1      -46.2060   36.5720  111.8470 O.2    94  ASN94      -0.2716
     34  ND2      -45.7670   37.2440  113.9540 N.am   94  ASN94      -0.0877
     35  N        -46.2250   44.4850  118.2950 N.3   151  TRP151     -0.1241
     36  CA       -46.8870   43.7230  117.2350 C.3   151  TRP151      0.1605
     37  C        -47.4550   42.3460  117.5970 C.2   151  TRP151      0.2264
     38  O        -48.5260   41.9570  117.1280 O.2   151  TRP151     -0.2867
     39  CB       -45.8960   43.4470  116.0760 C.3   151  TRP151      0.0550
     40  CG       -45.1430   44.6510  115.5510 C.ar  151  TRP151      0.0003
     41  CD1      -45.6690   45.8840  115.2230 C.ar  151  TRP151      0.0946
     42  CD2      -43.7490   44.7170  115.2510 C.ar  151  TRP151      0.0152
     43  NE1      -44.6670   46.7140  114.7640 N.ar  151  TRP151     -0.2442
     44  CE2      -43.4830   46.0150  114.7690 C.ar  151  TRP151      0.0810
     45  CE3      -42.6840   43.7980  115.3500 C.ar  151  TRP151      0.0012
     46  CZ2      -42.2040   46.4180  114.3930 C.ar  151  TRP151      0.0191
     47  CZ3      -41.4260   44.2060  114.9800 C.ar  151  TRP151      0.0001
     48  CH2      -41.1880   45.5000  114.5200 C.ar  151  TRP151      0.0015
     49  N        -37.7130   51.1370  116.8220 N.3   206  GLU206     -0.1245
     50  CA       -37.9730   49.9330  116.0190 C.3   206  GLU206      0.1567
     51  C        -36.7310   49.5860  115.2170 C.2   206  GLU206      0.2260
     52  O        -36.2830   48.4360  115.1890 O.2   206  GLU206     -0.2867
     53  CB       -39.1410   50.1470  115.0360 C.3   206  GLU206      0.0388
     54  CG       -39.2720   48.9970  114.0210 C.3   206  GLU206      0.1160
     55  CD       -40.3920   49.1790  112.9980 C.2   206  GLU206      0.3649
     56  OE1      -40.4900   48.3330  112.0760 O.co2 206  GLU206     -0.2457
     57  OE2      -41.1600   50.1570  113.1030 O.co2 206  GLU206     -0.2457
     58  N        -35.5610   43.1670  107.7010 N.3   226  HIS226     -0.1241
     59  CA       -36.8050   43.6890  108.2750 C.3   226  HIS226      0.1621
     60  C        -37.5970   44.6770  107.4560 C.2   226  HIS226      0.2264
     61  O        -38.8270   44.5900  107.4150 O.2   226  HIS226     -0.2867
     62  CB       -36.5200   44.3070  109.6600 C.3   226  HIS226      0.0745
     63  CG       -37.7290   44.8290  110.3620 C.ar  226  HIS226      0.0817
     64  ND1      -38.7660   44.0120  110.7550 N.ar  226  HIS226     -0.2268
     65  CD2      -38.0550   46.0760  110.7820 C.ar  226  HIS226      0.1154
     66  CE1      -39.6790   44.7280  111.3740 C.ar  226  HIS226      0.1986
     67  NE2      -39.2750   45.9850  111.4030 N.ar  226  HIS226     -0.2212
     68  N        -37.1850   45.0640  104.1910 N.3   228  HIS228     -0.1241
     69  CA       -37.3480   44.5390  102.8300 C.3   228  HIS228      0.1621
     70  C        -36.7710   45.4730  101.7580 C.2   228  HIS228      0.2264
     71  O        -37.2050   45.4680  100.5990 O.2   228  HIS228     -0.2867
     72  CB       -38.8130   44.2850  102.5320 C.3   228  HIS228      0.0745
     73  CG       -39.4660   43.3210  103.4610 C.ar  228  HIS228      0.0817
     74  ND1      -40.7330   42.8340  103.2440 N.ar  228  HIS228     -0.2268
     75  CD2      -39.0000   42.6800  104.5550 C.ar  228  HIS228      0.1154
     76  CE1      -41.0440   41.9840  104.2070 C.ar  228  HIS228      0.1986
     77  NE2      -39.9960   41.8440  104.9900 N.ar  228  HIS228     -0.2212
     78  N        -54.7110   44.5260  102.7910 N.3   342  PHE342     -0.1241
     79  CA       -53.3320   44.0360  102.6320 C.3   342  PHE342      0.1605
     80  C        -52.8300   44.0550  101.1580 C.2   342  PHE342      0.2264
     81  O        -53.6120   44.0350  100.2110 O.2   342  PHE342     -0.2867
     82  CB       -53.1590   42.6840  103.3440 C.3   342  PHE342      0.0534
     83  CG       -53.4660   42.7490  104.8250 C.ar  342  PHE342     -0.0203
     84  CD1      -52.6240   43.4440  105.6920 C.ar  342  PHE342     -0.0042
     85  CD2      -54.5920   42.1280  105.3550 C.ar  342  PHE342     -0.0042
     86  CE1      -52.8960   43.5150  107.0530 C.ar  342  PHE342     -0.0003
     87  CE2      -54.8740   42.2070  106.7220 C.ar  342  PHE342     -0.0003
     88  CZ       -54.0270   42.9000  107.5690 C.ar  342  PHE342     -0.0000
     89  N        -51.9250   37.4470  107.2560 N.3   362  PHE362     -0.1228
     90  CA       -51.2810   37.3760  108.5620 C.3   362  PHE362      0.1721
     91  C        -52.0660   36.4890  109.5110 C.2   362  PHE362      0.2437
     92  O        -53.2930   36.3810  109.3940 O.2   362  PHE362     -0.2733
     93  CB       -51.1100   38.7710  109.1470 C.3   362  PHE362      0.0547
     94  CG       -50.1650   39.6290  108.3700 C.ar  362  PHE362     -0.0202
     95  CD1      -48.7890   39.3960  108.4230 C.ar  362  PHE362     -0.0042
     96  CD2      -50.6310   40.6720  107.5950 C.ar  362  PHE362     -0.0042
     97  CE1      -47.9100   40.1820  107.7030 C.ar  362  PHE362     -0.0003
     98  CE2      -49.7540   41.4690  106.8830 C.ar  362  PHE362     -0.0003
     99  CZ       -48.3980   41.2270  106.9350 C.ar  362  PHE362     -0.0000
    100  N        -51.3790   35.8740  110.4870 N.am  363  PRO363     -0.2718
    101  CA       -52.1130   35.0580  111.4510 C.3   363  PRO363      0.1535
    102  C        -52.6260   35.8940  112.6520 C.2   363  PRO363      0.2598
    103  O        -52.3110   35.6220  113.8110 O.2   363  PRO363     -0.2715
    104  CB       -51.0870   34.0000  111.8440 C.3   363  PRO363      0.0310
    105  CG       -49.7580   34.6830  111.7010 C.3   363  PRO363      0.0237
    106  CD       -49.9170   35.7750  110.6810 C.3   363  PRO363      0.0939
    107  N        -53.4310   36.9060  112.3590 N.am  364  ASN364     -0.1973
    108  CA       -54.0070   37.7640  113.3820 C.3   364  ASN364      0.1688
    109  C        -55.3170   37.2290  113.9590 C.2   364  ASN364      0.2292
    110  O        -56.1450   36.6780  113.2280 O.2   364  ASN364     -0.2864
    111  CB       -54.4200   39.1000  112.8080 C.3   364  ASN364      0.1181
    112  CG       -53.2890   39.8850  112.1920 C.2   364  ASN364      0.2629
    113  OD1      -53.5150   40.6310  111.2210 O.2   364  ASN364     -0.2716
    114  ND2      -52.1050   39.7570  112.7280 N.am  364  ASN364     -0.0877
    115  N        -50.5810   48.6630  104.6020 N.3   408  PHE408     -0.1241
    116  CA       -51.2060   47.8720  105.6380 C.3   408  PHE408      0.1605
    117  C        -51.4370   48.6580  106.9450 C.2   408  PHE408      0.2264
    118  O        -52.0160   48.1310  107.8830 O.2   408  PHE408     -0.2867
    119  CB       -50.3980   46.6010  105.9070 C.3   408  PHE408      0.0534
    120  CG       -48.9170   46.8300  106.0990 C.ar  408  PHE408     -0.0203
    121  CD1      -48.4300   47.4820  107.2220 C.ar  408  PHE408     -0.0042
    122  CD2      -47.9990   46.3290  105.1700 C.ar  408  PHE408     -0.0042
    123  CE1      -47.0700   47.6800  107.4030 C.ar  408  PHE408     -0.0003
    124  CE2      -46.6300   46.5100  105.3530 C.ar  408  PHE408     -0.0003
    125  CZ       -46.1640   47.1840  106.4780 C.ar  408  PHE408     -0.0000
    126  N        -57.6970   44.0090  114.9420 N.3   449  ASN449     -0.1240
    127  CA       -56.8650   42.7750  114.9790 C.3   449  ASN449      0.1653
    128  C        -55.8300   42.8450  116.1120 C.2   449  ASN449      0.2266
    129  O        -55.6090   43.9240  116.6790 O.2   449  ASN449     -0.2867
    130  CB       -56.2540   42.4730  113.6280 C.3   449  ASN449      0.1155
    131  CG       -55.2380   43.5120  113.1710 C.2   449  ASN449      0.2627
    132  OD1      -54.3930   43.9630  113.9260 O.2   449  ASN449     -0.2716
    133  ND2      -55.2670   43.8080  111.9030 N.am  449  ASN449     -0.0877
    134  N        -52.6730   42.8120  116.1110 N.3   451  TYR451     -0.1227
    135  CA       -51.5440   43.6830  115.7450 C.3   451  TYR451      0.1736
    136  C        -51.9000   45.0880  116.1780 C.2   451  TYR451      0.2595
    137  O        -51.1460   45.7430  116.8970 O.2   451  TYR451     -0.2718
    138  CB       -51.3220   43.6270  114.2200 C.3   451  TYR451      0.0548
    139  CG       -50.1490   44.3940  113.6750 C.ar  451  TYR451     -0.0200
    140  CD1      -48.8710   43.8390  113.6940 C.ar  451  TYR451     -0.0009
    141  CD2      -50.3230   45.6350  113.0790 C.ar  451  TYR451     -0.0009
    142  CE1      -47.7890   44.5180  113.1820 C.ar  451  TYR451      0.0417
    143  CE2      -49.2460   46.3330  112.5450 C.ar  451  TYR451      0.0417
    144  CZ       -47.9800   45.7590  112.5980 C.ar  451  TYR451      0.1957
    145  OH       -46.9060   46.4130  112.0650 O.3   451  TYR451     -0.2866
    146  N        -53.0610   45.5540  115.7300 N.am  452  ARG452     -0.1980
    147  CA       -53.5310   46.8720  116.1360 C.3   452  ARG452      0.1597
    148  C        -53.7050   47.0140  117.6570 C.2   452  ARG452      0.2287
    149  O        -53.3630   48.0550  118.2060 O.2   452  ARG452     -0.2864
    150  CB       -54.8440   47.1940  115.4600 C.3   452  ARG452      0.0334
    151  CG       -54.7060   47.5180  114.0060 C.3   452  ARG452      0.0492
    152  CD       -54.1450   48.9110  113.7750 C.3   452  ARG452      0.2205
    153  NE       -54.1780   49.1700  112.3450 N.pl3 452  ARG452     -0.0865
    154  CZ       -53.1820   48.9640  111.4900 C.cat 452  ARG452      0.5346
    155  NH1      -51.9750   48.5370  111.8850 N.pl3 452  ARG452      0.1354
    156  NH2      -53.4010   49.2000  110.2140 N.pl3 452  ARG452      0.1354
@<TRIPOS>BOND
     1    81    80    2
     2    71    70    2
     3    80    79    1
     4    70    69    1
     5    72    69    1
     6    72    73    1
     7    79    78    1
     8    79    82    1
     9    69    68    1
    10    74    73   ar
    11    74    76   ar
    12    82    83    1
    13    73    75   ar
    14    76    77   ar
    15    75    77   ar
    16   115   116    1
    17    83    85   ar
    18    83    84   ar
    19   122   124   ar
    20   122   120   ar
    21   124   125   ar
    22    85    87   ar
    23   116   119    1
    24   116   117    1
    25    84    86   ar
    26   119   120    1
    27   120   121   ar
    28   125   123   ar
    29    87    88   ar
    30     4     3    2
    31    98    99   ar
    32    98    96   ar
    33    99    97   ar
    34   117   118    2
    35    86    88   ar
    36   121   123   ar
    37    89    90    1
    38    61    60    2
    39    60    59    1
    40    96    94   ar
    41    58    59    1
    42    97    95   ar
    43     3     2    1
    44    59    62    1
    45    94    95   ar
    46    94    93    1
    47     5     2    1
    48     5     6    1
    49    90    93    1
    50    90    91    1
    51     8     6   ar
    52     2     1    1
    53     6     7   ar
    54    92    91    2
    55    91   100   am
    56    62    63    1
    57    26    24   ar
    58    26    25   ar
    59    24    22   ar
    60   156   154    1
    61    63    64   ar
    62    63    65   ar
    63    25    23   ar
    64   100   106    1
    65   100   101    1
    66    22    23   ar
    67    22    21    1
    68   106   105    1
    69    64    66   ar
    70    65    67   ar
    71    21    18    1
    72   113   112    2
    73    66    67   ar
    74   101   104    1
    75   101   102    1
    76   154   155    1
    77   154   153    2
    78   105   104    1
    79    33    32    2
    80   133   131   am
    81   145   144    1
    82    56    55   ar
    83    15    14    2
    84   112   114   am
    85   112   111    1
    86   153   152    1
    87   107   102   am
    88   107   108    1
    89    18    17    1
    90    18    19    1
    91   143   144   ar
    92   143   141   ar
    93   144   142   ar
    94   102   103    2
    95    16    14   am
    96   111   108    1
    97    20    19    2
    98    17    11   am
    99    14    13    1
   100    55    57   ar
   101    55    54    1
   102    32    31    1
   103    32    34   am
   104   141   139   ar
   105   131   130    1
   106   131   132    2
   107   142   140   ar
   108   110   109    2
   109   108   109    1
   110    31    28    1
   111   130   127    1
   112   139   140   ar
   113   139   138    1
   114     9    10    1
   115   152   151    1
   116   151   150    1
   117    54    53    1
   118    11    10    1
   119    11    12    2
   120   138   135    1
   121    46    48   ar
   122    46    44   ar
   123    13    10    1
   124    48    47   ar
   125    43    44   ar
   126    43    41   ar
   127    44    42   ar
   128   126   127    1
   129   127   128    1
   130    47    45   ar
   131    53    50    1
   132    28    29    1
   133    28    27    1
   134    52    51    2
   135    51    50    1
   136    41    40   ar
   137    42    45   ar
   138    42    40   ar
   139    29    30    2
   140   150   147    1
   141    40    39    1
   142   146   147    1
   143   146   136   am
   144   135   134    1
   145   135   136    1
   146    50    49    1
   147    39    36    1
   148   128   129    2
   149   147   148    1
   150   136   137    2
   151    38    37    2
   152    36    37    1
   153    36    35    1
   154   148   149    2
