@<TRIPOS>MOLECULE
tmp/4q7gA00.pdb
 87 85 0 0 0
SMALL
GASTEIGER

@<TRIPOS>ATOM
      1  N         80.6790   60.0000   28.4240 N.3   173  ASN173     -0.1225
      2  CA        80.4520   60.6270   29.6940 C.3   173  ASN173      0.1785
      3  C         81.6150   61.5970   29.9440 C.2   173  ASN173      0.2597
      4  O         82.7050   61.1890   30.3520 O.2   173  ASN173     -0.2718
      5  CB        80.3460   59.5390   30.7700 C.3   173  ASN173      0.1169
      6  CG        80.2010   60.0950   32.1680 C.2   173  ASN173      0.2627
      7  OD1       80.3380   61.2860   32.3930 O.2   173  ASN173     -0.2716
      8  ND2       79.9560   59.2110   33.1200 N.am  173  ASN173     -0.0877
      9  N         81.3650   62.8820   29.6730 N.am  174  ASN174     -0.1974
     10  CA        82.3760   63.9100   29.8160 C.3   174  ASN174      0.1688
     11  C         83.7190   63.5600   29.2100 C.2   174  ASN174      0.2292
     12  O         84.7710   63.7030   29.8440 O.2   174  ASN174     -0.2864
     13  CB        82.5290   64.3260   31.2690 C.3   174  ASN174      0.1181
     14  CG        81.4460   65.2760   31.7090 C.2   174  ASN174      0.2629
     15  OD1       81.0650   66.2080   30.9650 O.2   174  ASN174     -0.2716
     16  ND2       80.9050   65.0330   32.8880 N.am  174  ASN174     -0.0877
     17  N         84.8530   60.6660   28.4080 N.3   176  TRP176     -0.1241
     18  CA        85.2840   59.3030   28.7200 C.3   176  TRP176      0.1605
     19  C         84.3040   58.3400   28.1020 C.2   176  TRP176      0.2264
     20  O         83.1510   58.6790   27.9120 O.2   176  TRP176     -0.2867
     21  CB        85.4000   59.0970   30.2360 C.3   176  TRP176      0.0550
     22  CG        86.6400   59.7550   30.7890 C.ar  176  TRP176      0.0003
     23  CD1       86.8880   61.0940   30.8810 C.ar  176  TRP176      0.0946
     24  CD2       87.8090   59.0940   31.2950 C.ar  176  TRP176      0.0152
     25  NE1       88.1380   61.3120   31.4290 N.ar  176  TRP176     -0.2442
     26  CE2       88.7240   60.0990   31.6820 C.ar  176  TRP176      0.0810
     27  CE3       88.1680   57.7480   31.4610 C.ar  176  TRP176      0.0012
     28  CZ2       89.9800   59.8020   32.2300 C.ar  176  TRP176      0.0191
     29  CZ3       89.4140   57.4510   32.0170 C.ar  176  TRP176      0.0001
     30  CH2       90.3070   58.4750   32.3820 C.ar  176  TRP176      0.0015
     31  N         80.7330   54.2360   26.6180 N.3   179  TYR179     -0.1241
     32  CA        80.1960   53.2450   27.5060 C.3   179  TYR179      0.1605
     33  C         78.9100   52.6580   26.9360 C.2   179  TYR179      0.2264
     34  O         78.2310   53.2730   26.1080 O.2   179  TYR179     -0.2867
     35  CB        79.8920   53.8680   28.8700 C.3   179  TYR179      0.0534
     36  CG        81.1020   54.3580   29.5880 C.ar  179  TYR179     -0.0201
     37  CD1       82.0010   53.4710   30.1450 C.ar  179  TYR179     -0.0009
     38  CD2       81.3700   55.7150   29.6910 C.ar  179  TYR179     -0.0009
     39  CE1       83.1180   53.9180   30.8050 C.ar  179  TYR179      0.0417
     40  CE2       82.4760   56.1680   30.3570 C.ar  179  TYR179      0.0417
     41  CZ        83.3590   55.2700   30.8960 C.ar  179  TYR179      0.1957
     42  OH        84.4640   55.7320   31.5630 O.3   179  TYR179     -0.2866
     43  N         80.8620   52.8990   34.4130 N.3   191  GLU191     -0.1245
     44  CA        80.8810   54.3420   34.6760 C.3   191  GLU191      0.1567
     45  C         79.9740   55.1320   33.7570 C.2   191  GLU191      0.2260
     46  O         79.9560   56.3760   33.8250 O.2   191  GLU191     -0.2867
     47  CB        82.3060   54.8930   34.6060 C.3   191  GLU191      0.0388
     48  CG        83.2340   54.2800   35.6350 C.3   191  GLU191      0.1160
     49  CD        84.5490   55.0200   35.7590 C.2   191  GLU191      0.3649
     50  OE1       85.5420   54.5610   35.1690 O.co2 191  GLU191     -0.2457
     51  OE2       84.6000   56.0570   36.4470 O.co2 191  GLU191     -0.2457
     52  N         78.0880   57.6980   35.7200 N.3   194  LEU194     -0.1231
     53  CA        78.6850   58.1430   36.9670 C.3   194  LEU194      0.1693
     54  C         79.1680   59.5820   36.8400 C.2   194  LEU194      0.2593
     55  O         79.7690   59.9480   35.8160 O.2   194  LEU194     -0.2718
     56  CB        79.8610   57.2430   37.3430 C.3   194  LEU194      0.0284
     57  CG        80.5000   57.4790   38.7250 C.3   194  LEU194      0.0019
     58  CD1       79.4700   57.2710   39.8100 C.3   194  LEU194      0.0001
     59  CD2       81.6810   56.5570   38.9290 C.3   194  LEU194      0.0001
     60  N         78.9360   60.4040   37.8670 N.am  195  GLY195     -0.1942
     61  CA        79.4730   61.7810   37.8550 C.3   195  GLY195      0.2014
     62  C         80.9830   61.8400   38.0090 C.2   195  GLY195      0.2639
     63  O         81.7280   62.1990   37.0650 O.2   195  GLY195     -0.2714
     64  N         81.4500   61.4940   39.2030 N.am  196  GLY196     -0.1939
     65  CA        82.8800   61.5460   39.5220 C.3   196  GLY196      0.2014
     66  C         83.2770   60.4240   40.4560 C.2   196  GLY196      0.2639
     67  O         82.5430   60.1130   41.3910 O.2   196  GLY196     -0.2714
     68  N         84.4560   59.8510   40.2380 N.am  197  ARG197     -0.1963
     69  CA        84.9310   58.7390   41.0590 C.3   197  ARG197      0.1729
     70  C         85.1820   59.0750   42.5250 C.2   197  ARG197      0.2616
     71  O         85.1610   58.1680   43.3770 O.2   197  ARG197     -0.2715
     72  CB        86.2260   58.1980   40.4700 C.3   197  ARG197      0.0348
     73  CG        86.0700   57.5860   39.1020 C.3   197  ARG197      0.0492
     74  CD        87.4240   57.3250   38.4910 C.3   197  ARG197      0.2205
     75  NE        87.2840   56.6450   37.2190 N.pl3 197  ARG197     -0.0865
     76  CZ        88.3080   56.2810   36.4560 C.cat 197  ARG197      0.5346
     77  NH1       89.5540   56.5170   36.8580 N.pl3 197  ARG197      0.1354
     78  NH2       88.0890   55.6690   35.3080 N.pl3 197  ARG197      0.1354
     79  N         85.4570   60.3500   42.8050 N.am  198  GLN198     -0.1977
     80  CA        85.8180   60.7950   44.1640 C.3   198  GLN198      0.1601
     81  C         84.9380   61.9490   44.6430 C.2   198  GLN198      0.2287
     82  O         85.2960   62.6690   45.5810 O.2   198  GLN198     -0.2864
     83  CB        87.2890   61.2480   44.1850 C.3   198  GLN198      0.0394
     84  CG        88.2740   60.2220   43.6320 C.3   198  GLN198      0.0908
     85  CD        88.3700   58.9840   44.4870 C.2   198  GLN198      0.2608
     86  OE1       88.1430   59.0290   45.7020 O.2   198  GLN198     -0.2717
     87  NE2       88.6970   57.8600   43.8560 N.am  198  GLN198     -0.0878
@<TRIPOS>BOND
     1    34    33    2
     2    31    32    1
     3    33    32    1
     4    32    35    1
     5    20    19    2
     6    19    18    1
     7    17    18    1
     8     1     2    1
     9    18    21    1
    10    35    36    1
    11    11    10    1
    12    11    12    2
    13    36    38   ar
    14    36    37   ar
    15     9    10    1
    16     9     3   am
    17    38    40   ar
    18     2     3    1
    19     2     5    1
    20    10    13    1
    21     3     4    2
    22    37    39   ar
    23    21    22    1
    24    40    41   ar
    25     5     6    1
    26    22    23   ar
    27    22    24   ar
    28    39    41   ar
    29    23    25   ar
    30    41    42    1
    31    15    14    2
    32    13    14    1
    33    24    27   ar
    34    24    26   ar
    35    25    26   ar
    36    27    29   ar
    37    26    28   ar
    38    14    16   am
    39    29    30   ar
    40     6     7    2
    41     6     8   am
    42    28    30   ar
    43    45    46    2
    44    45    44    1
    45    43    44    1
    46    47    44    1
    47    47    48    1
    48    50    49   ar
    49    78    76    1
    50    48    49    1
    51    52    53    1
    52    49    51   ar
    53    55    54    2
    54    76    77    1
    55    76    75    2
    56    54    53    1
    57    54    60   am
    58    53    56    1
    59    63    62    2
    60    75    74    1
    61    56    57    1
    62    61    60    1
    63    61    62    1
    64    62    64   am
    65    74    73    1
    66    57    59    1
    67    57    58    1
    68    73    72    1
    69    64    65    1
    70    65    66    1
    71    68    66   am
    72    68    69    1
    73    66    67    2
    74    72    69    1
    75    69    70    1
    76    70    79   am
    77    70    71    2
    78    79    80    1
    79    84    83    1
    80    84    85    1
    81    87    85   am
    82    80    83    1
    83    80    81    1
    84    85    86    2
    85    81    82    2
