@<TRIPOS>MOLECULE
tmp/4q7nA01.pdb
 113 112 0 0 0
SMALL
GASTEIGER

@<TRIPOS>ATOM
      1  N         13.5590    1.2150  -10.7250 N.3     8  THR8       -0.1218
      2  CA        14.1380    2.5720  -11.0750 C.3     8  THR8        0.1862
      3  C         13.0560    3.5290  -11.6320 C.2     8  THR8        0.2287
      4  O         12.2290    3.1150  -12.4750 O.2     8  THR8       -0.2866
      5  CB        15.2700    2.4150  -12.0920 C.3     8  THR8        0.1770
      6  OG1       14.7940    1.7420  -13.2790 O.3     8  THR8       -0.2211
      7  CG2       16.3590    1.5870  -11.4200 C.3     8  THR8        0.0375
      8  N         13.0340    5.9580  -13.6740 N.3    10  TRP10      -0.1241
      9  CA        13.1450    6.3170  -15.0650 C.3    10  TRP10       0.1605
     10  C         12.6900    5.2420  -15.9860 C.2    10  TRP10       0.2264
     11  O         12.5330    5.5180  -17.2020 O.2    10  TRP10      -0.2867
     12  CB        14.5830    6.7330  -15.4120 C.3    10  TRP10       0.0550
     13  CG        15.6160    5.7130  -15.1880 C.ar   10  TRP10       0.0003
     14  CD1       16.1420    4.8960  -16.1100 C.ar   10  TRP10       0.0946
     15  CD2       16.3380    5.4780  -13.9640 C.ar   10  TRP10       0.0152
     16  NE1       17.1130    4.1160  -15.5490 N.ar   10  TRP10      -0.2442
     17  CE2       17.3150    4.5010  -14.2550 C.ar   10  TRP10       0.0810
     18  CE3       16.3070    6.0570  -12.6800 C.ar   10  TRP10       0.0012
     19  CZ2       18.1580    3.9390  -13.2750 C.ar   10  TRP10       0.0191
     20  CZ3       17.2070    5.5150  -11.6730 C.ar   10  TRP10       0.0001
     21  CH2       18.1110    4.4730  -12.0050 C.ar   10  TRP10       0.0015
     22  N         10.4200    4.3400  -20.8000 N.3    14  ARG14      -0.1245
     23  CA        10.7930    3.5200  -21.9380 C.3    14  ARG14       0.1563
     24  C          9.5970    3.2880  -22.8830 C.2    14  ARG14       0.2260
     25  O          8.4390    3.2120  -22.4430 O.2    14  ARG14      -0.2867
     26  CB        11.4150    2.1810  -21.4760 C.3    14  ARG14       0.0307
     27  CG        12.7320    2.4980  -20.7220 C.3    14  ARG14       0.0489
     28  CD        13.4140    1.1450  -20.2290 C.3    14  ARG14       0.2205
     29  NE        14.6260    1.5520  -19.5190 N.pl3  14  ARG14      -0.0865
     30  CZ        14.9980    1.0610  -18.3160 C.cat  14  ARG14       0.5346
     31  NH1       14.3100    0.0740  -17.7430 N.pl3  14  ARG14       0.1354
     32  NH2       16.1110    1.5080  -17.7280 N.pl3  14  ARG14       0.1354
     33  N         23.7400    7.7020   -9.6870 N.3    78  TRP78      -0.1241
     34  CA        24.8480    8.2540  -10.5920 C.3    78  TRP78       0.1605
     35  C         24.6200    9.7010  -11.0230 C.2    78  TRP78       0.2264
     36  O         25.5500   10.5030  -10.9850 O.2    78  TRP78      -0.2867
     37  CB        25.0800    7.3710  -11.8460 C.3    78  TRP78       0.0550
     38  CG        24.5680    6.0840  -11.5820 C.ar   78  TRP78       0.0003
     39  CD1       24.9830    5.2430  -10.5900 C.ar   78  TRP78       0.0946
     40  CD2       23.4500    5.4670  -12.1990 C.ar   78  TRP78       0.0152
     41  NE1       24.2000    4.1100  -10.5770 N.ar   78  TRP78      -0.2442
     42  CE2       23.2400    4.2310  -11.5390 C.ar   78  TRP78       0.0810
     43  CE3       22.6190    5.8170  -13.2700 C.ar   78  TRP78       0.0012
     44  CZ2       22.2510    3.3350  -11.9140 C.ar   78  TRP78       0.0191
     45  CZ3       21.6170    4.9150  -13.6460 C.ar   78  TRP78       0.0001
     46  CH2       21.4510    3.6900  -12.9660 C.ar   78  TRP78       0.0015
     47  N         20.4190   -7.1370  -15.8080 N.3   239  PHE239     -0.1298
     48  CA        20.9020   -6.6040  -17.1110 C.3   239  PHE239      0.1290
     49  C         22.1420   -7.3680  -17.5170 C.3   239  PHE239      0.2013
     50  O         22.7310   -8.1170  -16.6480 O.3   239  PHE239     -0.2188
     51  CB        21.2530   -5.1300  -16.9540 C.3   239  PHE239      0.0480
     52  CG        22.3630   -4.9050  -15.9900 C.ar  239  PHE239     -0.0206
     53  CD1       22.1140   -4.7100  -14.6350 C.ar  239  PHE239     -0.0042
     54  CD2       23.6870   -4.8400  -16.4590 C.ar  239  PHE239     -0.0042
     55  CE1       23.2010   -4.4970  -13.7360 C.ar  239  PHE239     -0.0003
     56  CE2       24.7560   -4.6780  -15.5760 C.ar  239  PHE239     -0.0003
     57  CZ        24.5160   -4.5040  -14.2200 C.ar  239  PHE239     -0.0000
     58  N         15.9230   -0.0760  -23.8560 N.3   266  THR266     -0.1218
     59  CA        16.6860    0.6010  -22.8130 C.3   266  THR266      0.1862
     60  C         17.5080    1.7460  -23.3970 C.2   266  THR266      0.2287
     61  O         17.8330    2.6980  -22.6650 O.2   266  THR266     -0.2866
     62  CB        17.5800   -0.4360  -22.0090 C.3   266  THR266      0.1770
     63  OG1       18.2920   -1.2620  -22.9460 O.3   266  THR266     -0.2211
     64  CG2       16.6760   -1.3890  -21.1820 C.3   266  THR266      0.0375
     65  N         20.5900    2.5770  -24.2710 N.3   268  TRP268     -0.1241
     66  CA        21.8200    3.0020  -23.6610 C.3   268  TRP268      0.1605
     67  C         22.9250    2.0990  -24.1330 C.2   268  TRP268      0.2264
     68  O         22.8720    0.9050  -23.8220 O.2   268  TRP268     -0.2867
     69  CB        21.7500    2.9340  -22.1430 C.3   268  TRP268      0.0550
     70  CG        22.7490    3.9310  -21.5160 C.ar  268  TRP268      0.0003
     71  CD1       22.9180    5.2870  -21.8880 C.ar  268  TRP268      0.0946
     72  CD2       23.6850    3.7050  -20.4310 C.ar  268  TRP268      0.0152
     73  NE1       23.9110    5.8520  -21.1230 N.ar  268  TRP268     -0.2442
     74  CE2       24.3820    4.9360  -20.2100 C.ar  268  TRP268      0.0810
     75  CE3       23.9980    2.5980  -19.6130 C.ar  268  TRP268      0.0012
     76  CZ2       25.3880    5.0750  -19.2080 C.ar  268  TRP268      0.0191
     77  CZ3       25.0140    2.7380  -18.6150 C.ar  268  TRP268      0.0001
     78  CH2       25.6860    3.9730  -18.4290 C.ar  268  TRP268      0.0015
     79  N         24.6340   -1.4610  -22.3200 N.3   271  ILE271     -0.1245
     80  CA        23.7470   -2.2360  -21.4350 C.3   271  ILE271      0.1561
     81  C         22.5490   -2.8110  -22.1440 C.2   271  ILE271      0.2260
     82  O         22.0810   -2.1960  -23.1130 O.2   271  ILE271     -0.2867
     83  CB        23.2220   -1.3390  -20.2620 C.3   271  ILE271      0.0252
     84  CG1       24.3820   -0.6760  -19.5740 C.3   271  ILE271      0.0019
     85  CG2       22.4990   -2.2210  -19.2520 C.3   271  ILE271      0.0019
     86  CD1       24.9620   -1.4280  -18.3360 C.3   271  ILE271      0.0001
     87  N         19.4400   -5.8900   -9.1760 N.3   330  TRP330     -0.1227
     88  CA        19.4290   -4.6270   -9.9820 C.3   330  TRP330      0.1737
     89  C         19.1050   -5.1100  -11.3890 C.2   330  TRP330      0.2595
     90  O         20.0080   -5.6940  -12.0040 O.2   330  TRP330     -0.2718
     91  CB        20.8180   -3.8910   -9.9380 C.3   330  TRP330      0.0564
     92  CG        20.6340   -2.5620  -10.6480 C.ar  330  TRP330      0.0003
     93  CD1       20.6240   -2.3390  -12.0230 C.ar  330  TRP330      0.0946
     94  CD2       20.2250   -1.3530  -10.0330 C.ar  330  TRP330      0.0152
     95  NE1       20.3050   -0.9760  -12.2850 N.ar  330  TRP330     -0.2442
     96  CE2       20.0690   -0.3630  -11.0680 C.ar  330  TRP330      0.0810
     97  CE3       20.0610   -0.9770   -8.6930 C.ar  330  TRP330      0.0012
     98  CZ2       19.6890    0.9800  -10.7880 C.ar  330  TRP330      0.0191
     99  CZ3       19.6590    0.4000   -8.4100 C.ar  330  TRP330      0.0001
    100  CH2       19.4820    1.3370   -9.4670 C.ar  330  TRP330      0.0015
    101  N         17.8930   -4.9220  -11.9300 N.am  331  ALA331     -0.1980
    102  CA        16.7720   -4.2830  -11.2840 C.3   331  ALA331      0.1597
    103  C         15.4840   -4.9420  -11.7910 C.2   331  ALA331      0.2287
    104  O         15.4430   -5.5070  -12.8710 O.2   331  ALA331     -0.2864
    105  CB        16.7160   -2.7500  -11.6480 C.3   331  ALA331      0.0319
    106  N         14.5060   -4.4190  -15.3720 N.3   334  LEU334     -0.1245
    107  CA        15.4220   -4.9840  -16.4030 C.3   334  LEU334      0.1561
    108  C         15.3130   -6.5180  -16.4630 C.2   334  LEU334      0.2260
    109  O         15.8830   -7.1370  -17.3830 O.2   334  LEU334     -0.2867
    110  CB        16.8710   -4.5840  -16.1330 C.3   334  LEU334      0.0270
    111  CG        17.1440   -3.1000  -15.9970 C.3   334  LEU334      0.0019
    112  CD1       18.6110   -2.7620  -15.4500 C.3   334  LEU334      0.0001
    113  CD2       16.9380   -2.5140  -17.4000 C.3   334  LEU334      0.0001
@<TRIPOS>BOND
     1    65    66    1
     2    67    68    2
     3    67    66    1
     4    58    59    1
     5    66    69    1
     6    60    59    1
     7    60    61    2
     8    82    81    2
     9    63    62    1
    10    24    25    2
    11    24    23    1
    12    59    62    1
    13    79    80    1
    14    81    80    1
    15    69    70    1
    16    62    64    1
    17    23    26    1
    18    23    22    1
    19    71    70   ar
    20    71    73   ar
    21    70    72   ar
    22    26    27    1
    23    80    83    1
    24    73    74   ar
    25    27    28    1
    26    72    74   ar
    27    72    75   ar
    28    83    84    1
    29    83    85    1
    30    28    29    1
    31    74    76   ar
    32    75    77   ar
    33    84    86    1
    34    29    30    2
    35    76    78   ar
    36    77    78   ar
    37    30    31    1
    38    30    32    1
    39    49    48    1
    40    49    50    1
    41   113   111    1
    42   109   108    2
    43    11    10    2
    44    48    51    1
    45    48    47    1
    46    51    52    1
    47   108   107    1
    48    54    52   ar
    49    54    56   ar
    50   107   110    1
    51   107   106    1
    52   110   111    1
    53    14    16   ar
    54    14    13   ar
    55   111   112    1
    56    52    53   ar
    57    10     9    1
    58    56    57   ar
    59    16    17   ar
    60    12    13    1
    61    12     9    1
    62    13    15   ar
    63     9     8    1
    64    53    55   ar
    65    17    15   ar
    66    17    19   ar
    67    57    55   ar
    68    15    18   ar
    69    45    43   ar
    70    45    46   ar
    71     6     5    1
    72    19    21   ar
    73    43    40   ar
    74    46    44   ar
    75   104   103    2
    76    18    20   ar
    77     4     3    2
    78    95    93   ar
    79    95    96   ar
    80    40    38   ar
    81    40    42   ar
    82     5     7    1
    83     5     2    1
    84    93    92   ar
    85    21    20   ar
    86    90    89    2
    87   101    89   am
    88   101   102    1
    89    44    42   ar
    90    37    38    1
    91    37    34    1
    92   103   102    1
    93   105   102    1
    94     3     2    1
    95    38    39   ar
    96    42    41   ar
    97    89    88    1
    98     2     1    1
    99    96    98   ar
   100    96    94   ar
   101    35    36    2
   102    35    34    1
   103    98   100   ar
   104    92    94   ar
   105    92    91    1
   106    34    33    1
   107    39    41   ar
   108    94    97   ar
   109    88    91    1
   110    88    87    1
   111   100    99   ar
   112    97    99   ar
