@<TRIPOS>MOLECULE
tmp/4q7pA00.pdb
 123 117 0 0 0
SMALL
GASTEIGER

@<TRIPOS>ATOM
      1  N         12.7650    0.3930    5.8360 N.3    64  ASN64      -0.1240
      2  CA        11.9540    1.3250    6.6130 C.3    64  ASN64       0.1653
      3  C         10.7390    1.6860    5.7930 C.2    64  ASN64       0.2266
      4  O         10.8920    2.0930    4.6400 O.2    64  ASN64      -0.2867
      5  CB        12.7300    2.6140    6.9050 C.3    64  ASN64       0.1155
      6  CG        13.8710    2.4100    7.9100 C.2    64  ASN64       0.2627
      7  OD1       13.9480    1.3780    8.6150 O.2    64  ASN64      -0.2716
      8  ND2       14.7690    3.3890    7.9820 N.am   64  ASN64      -0.0877
      9  N          8.5310    6.1160   11.2370 N.3    89  GLN89      -0.1245
     10  CA         8.8070    4.9870   10.3650 C.3    89  GLN89       0.1566
     11  C          8.5560    3.7250   11.0930 C.2    89  GLN89       0.2260
     12  O          8.4860    3.7340   12.3400 O.2    89  GLN89      -0.2867
     13  CB        10.2710    4.9790    9.8860 C.3    89  GLN89       0.0367
     14  CG        11.2880    5.0140   11.0510 C.3    89  GLN89       0.0905
     15  CD        12.0200    3.7190   11.1810 C.2    89  GLN89       0.2608
     16  OE1       11.4110    2.6720   11.2420 O.2    89  GLN89      -0.2717
     17  NE2       13.3380    3.7930   11.2910 N.am   89  GLN89      -0.0878
     18  N          9.9210   -0.5660   10.9970 N.3    91  HIS91      -0.1241
     19  CA        10.8220   -1.5370   10.3600 C.3    91  HIS91       0.1621
     20  C         10.7290   -2.7900   11.1160 C.2    91  HIS91       0.2264
     21  O         10.0690   -2.8570   12.1680 O.2    91  HIS91      -0.2867
     22  CB        12.3050   -1.0360   10.2960 C.3    91  HIS91       0.0745
     23  CG        12.8540   -0.7810   11.6570 C.ar   91  HIS91       0.0817
     24  ND1       12.6300    0.4230   12.3220 N.ar   91  HIS91      -0.2268
     25  CD2       13.4790   -1.5890   12.5240 C.ar   91  HIS91       0.1154
     26  CE1       13.1490    0.3350   13.5420 C.ar   91  HIS91       0.1986
     27  NE2       13.6630   -0.8780   13.6880 N.ar   91  HIS91      -0.2212
     28  N         13.0740   -6.5230   12.5130 N.3    93  HIS93      -0.1241
     29  CA        14.3300   -7.2580   12.6720 C.3    93  HIS93       0.1621
     30  C         13.9000   -8.7280   12.5520 C.2    93  HIS93       0.2264
     31  O         12.8370   -9.0930   13.1170 O.2    93  HIS93      -0.2867
     32  CB        14.9030   -7.0060   14.0900 C.3    93  HIS93       0.0745
     33  CG        15.2070   -5.5350   14.3720 C.ar   93  HIS93       0.0817
     34  ND1       16.4690   -5.0230   14.1590 N.ar   93  HIS93      -0.2268
     35  CD2       14.4350   -4.5030   14.7970 C.ar   93  HIS93       0.1154
     36  CE1       16.4830   -3.7370   14.5230 C.ar   93  HIS93       0.1986
     37  NE2       15.2450   -3.3780   14.8420 N.ar   93  HIS93      -0.2212
     38  N          9.1260   -2.7590   14.8340 N.3   116  HIS116     -0.1241
     39  CA         9.3590   -1.5280   15.6090 C.3   116  HIS116      0.1621
     40  C          8.7020   -0.4080   14.9250 C.2   116  HIS116      0.2264
     41  O          9.1290    0.0060   13.8370 O.2   116  HIS116     -0.2867
     42  CB        10.8890   -1.2720   15.6780 C.3   116  HIS116      0.0745
     43  CG        11.5810   -2.2470   16.5820 C.ar  116  HIS116      0.0817
     44  ND1       12.9510   -2.4220   16.6070 N.ar  116  HIS116     -0.2268
     45  CD2       11.0650   -3.1290   17.4920 C.ar  116  HIS116      0.1154
     46  CE1       13.2590   -3.3440   17.5000 C.ar  116  HIS116      0.1986
     47  NE2       12.1390   -3.8150   18.0280 N.ar  116  HIS116     -0.2212
     48  N          8.2960    3.4000   15.1480 N.3   118  VAL118     -0.1245
     49  CA         9.1640    4.3920   15.8370 C.3   118  VAL118      0.1561
     50  C          8.4790    5.7730   15.8530 C.2   118  VAL118      0.2260
     51  O          8.0570    6.2600   14.7900 O.2   118  VAL118     -0.2867
     52  CB        10.4490    4.5580   15.0450 C.3   118  VAL118      0.0252
     53  CG1       11.4090    5.5450   15.7030 C.3   118  VAL118      0.0019
     54  CG2       11.1750    3.1900   14.8430 C.3   118  VAL118      0.0019
     55  N         12.6440   14.7600   14.6970 N.3   127  PHE127     -0.1241
     56  CA        13.2770   13.5040   15.0800 C.3   127  PHE127      0.1605
     57  C         14.7020   13.7220   15.5020 C.2   127  PHE127      0.2264
     58  O         15.1980   13.1370   16.4850 O.2   127  PHE127     -0.2867
     59  CB        13.1780   12.4750   13.9180 C.3   127  PHE127      0.0534
     60  CG        13.8600   11.1910   14.1930 C.ar  127  PHE127     -0.0203
     61  CD1       13.2100   10.1640   14.9310 C.ar  127  PHE127     -0.0042
     62  CD2       15.1900   11.0060   13.8370 C.ar  127  PHE127     -0.0042
     63  CE1       13.8470    8.9450   15.1940 C.ar  127  PHE127     -0.0003
     64  CE2       15.8130    9.7740   14.1150 C.ar  127  PHE127     -0.0003
     65  CZ        15.1440    8.7540   14.8000 C.ar  127  PHE127     -0.0000
     66  N         12.0570    9.3700   22.1920 N.3   137  LEU137     -0.1245
     67  CA        11.3760    8.4070   21.3340 C.3   137  LEU137      0.1561
     68  C         10.4700    7.4310   22.1110 C.2   137  LEU137      0.2260
     69  O         10.7280    7.1850   23.3070 O.2   137  LEU137     -0.2867
     70  CB        12.4020    7.5230   20.5780 C.3   137  LEU137      0.0270
     71  CG        13.3310    8.2930   19.6600 C.3   137  LEU137      0.0019
     72  CD1       14.1530    7.2060   18.8900 C.3   137  LEU137      0.0001
     73  CD2       12.6910    9.1390   18.5960 C.3   137  LEU137      0.0001
     74  N          8.9820    3.5760   21.1150 N.3   139  VAL139     -0.1245
     75  CA         8.9360    2.5660   20.0960 C.3   139  VAL139      0.1561
     76  C          7.9490    1.5070   20.5710 C.2   139  VAL139      0.2260
     77  O          8.1100    1.0070   21.6840 O.2   139  VAL139     -0.2867
     78  CB        10.3080    1.9550   19.8450 C.3   139  VAL139      0.0252
     79  CG1       10.2300    0.8940   18.6700 C.3   139  VAL139      0.0019
     80  CG2       11.2980    3.0600   19.4200 C.3   139  VAL139      0.0019
     81  N         17.9250    2.8170   20.9980 N.3   194  LEU194     -0.1231
     82  CA        17.8470    2.2080   19.6370 C.3   194  LEU194      0.1693
     83  C         18.5910    0.8740   19.7430 C.2   194  LEU194      0.2593
     84  O         19.5990    0.7520   20.4440 O.2   194  LEU194     -0.2718
     85  CB        18.6450    3.0450   18.6430 C.3   194  LEU194      0.0284
     86  CG        18.4240    4.5670   18.5610 C.3   194  LEU194      0.0019
     87  CD1       19.0620    5.1450   17.1960 C.3   194  LEU194      0.0001
     88  CD2       17.0860    5.1610   18.7780 C.3   194  LEU194      0.0001
     89  N         18.1630   -0.1010   18.9630 N.am  195  THR195     -0.1939
     90  CA        18.9160   -1.3680   18.9730 C.3   195  THR195      0.2028
     91  C         19.8920   -1.4500   17.8200 C.2   195  THR195      0.2642
     92  O         20.5400   -2.4830   17.6300 O.2   195  THR195     -0.2714
     93  CB        17.9420   -2.5370   18.8130 C.3   195  THR195      0.1808
     94  OG1       17.2700   -2.4120   17.5500 O.3   195  THR195     -0.2208
     95  CG2       16.9140   -2.5410   19.9420 C.3   195  THR195      0.0379
     96  N         20.0140   -0.3610   17.0320 N.am  196  THR196     -0.1950
     97  CA        21.0720   -0.2810   15.9940 C.3   196  THR196      0.1897
     98  C         21.9300    0.9220   16.2880 C.2   196  THR196      0.2313
     99  O         21.4270    1.9040   16.8390 O.2   196  THR196     -0.2863
    100  CB        20.4080   -0.1180   14.6260 C.3   196  THR196      0.1794
    101  OG1       19.3030    0.7920   14.7600 O.3   196  THR196     -0.2208
    102  CG2       19.8660   -1.4260   14.1210 C.3   196  THR196      0.0378
    103  N         14.8460    5.9760   24.2540 N.3   203  VAL203     -0.1245
    104  CA        13.5940    5.2710   23.9070 C.3   203  VAL203      0.1561
    105  C         12.8060    4.8220   25.1210 C.2   203  VAL203      0.2260
    106  O         13.3300    4.1100   25.9750 O.2   203  VAL203     -0.2867
    107  CB        13.8840    3.9680   23.0790 C.3   203  VAL203      0.0252
    108  CG1       12.5370    3.3170   22.6900 C.3   203  VAL203      0.0019
    109  CG2       14.7040    4.3300   21.7590 C.3   203  VAL203      0.0019
    110  N         10.4510    2.1180   25.6800 N.3   205  TRP205     -0.1241
    111  CA        10.0070    0.9370   24.9520 C.3   205  TRP205      0.1605
    112  C          8.6340    0.4890   25.4370 C.2   205  TRP205      0.2264
    113  O          8.3900    0.4510   26.6340 O.2   205  TRP205     -0.2867
    114  CB        10.9940   -0.2930   25.1960 C.3   205  TRP205      0.0550
    115  CG        12.1590   -0.1880   24.2120 C.ar  205  TRP205      0.0003
    116  CD1       13.3340    0.3940   24.4050 C.ar  205  TRP205      0.0946
    117  CD2       12.1030   -0.6060   22.8020 C.ar  205  TRP205      0.0152
    118  NE1       14.0860    0.3770   23.2080 N.ar  205  TRP205     -0.2442
    119  CE2       13.3320   -0.2320   22.2160 C.ar  205  TRP205      0.0810
    120  CE3       11.1140   -1.2060   22.0040 C.ar  205  TRP205      0.0012
    121  CZ2       13.6590   -0.5270   20.8850 C.ar  205  TRP205      0.0191
    122  CZ3       11.4190   -1.5160   20.6990 C.ar  205  TRP205      0.0001
    123  CH2       12.6850   -1.1660   20.1290 C.ar  205  TRP205      0.0015
@<TRIPOS>BOND
     1     4     3    2
     2     3     2    1
     3     1     2    1
     4     2     5    1
     5     5     6    1
     6     6     8   am
     7     6     7    2
     8    13    10    1
     9    13    14    1
    10    22    19    1
    11    22    23    1
    12    19    18    1
    13    19    20    1
    14    10    11    1
    15    10     9    1
    16    14    15    1
    17    11    12    2
    18    20    21    2
    19    15    16    2
    20    15    17   am
    21    23    24   ar
    22    23    25   ar
    23    24    26   ar
    24    28    29    1
    25    25    27   ar
    26    30    29    1
    27    30    31    2
    28    29    32    1
    29    26    27   ar
    30    62    64   ar
    31    62    60   ar
    32    41    40    2
    33    59    60    1
    34    59    56    1
    35    32    33    1
    36    64    65   ar
    37   102   100    1
    38    34    33   ar
    39    34    36   ar
    40    60    61   ar
    41    33    35   ar
    42    36    37   ar
    43   100   101    1
    44   100    97    1
    45    55    56    1
    46    51    50    2
    47    35    37   ar
    48    65    63   ar
    49    38    39    1
    50    54    52    1
    51    40    39    1
    52    61    63   ar
    53    52    53    1
    54    52    49    1
    55    56    57    1
    56    48    49    1
    57    57    58    2
    58    39    42    1
    59    42    43    1
    60    49    50    1
    61    97    98    1
    62    97    96    1
    63    98    99    2
    64    43    44   ar
    65    43    45   ar
    66    44    46   ar
    67    96    91   am
    68    87    86    1
    69    45    47   ar
    70    46    47   ar
    71    94    93    1
    72    92    91    2
    73    91    90    1
    74    86    85    1
    75    86    88    1
    76    73    71    1
    77    85    82    1
    78    79    78    1
    79    93    90    1
    80    93    95    1
    81    72    71    1
    82    89    90    1
    83    89    83   am
    84    80    78    1
    85    82    83    1
    86    82    81    1
    87    71    70    1
    88    83    84    2
    89    78    75    1
    90    75    76    1
    91    75    74    1
    92   123   122   ar
    93   123   121   ar
    94    76    77    2
    95    70    67    1
    96   122   120   ar
    97   121   119   ar
    98    67    68    1
    99    67    66    1
   100   109   107    1
   101   120   117   ar
   102    68    69    2
   103   119   117   ar
   104   119   118   ar
   105   108   107    1
   106   117   115   ar
   107   107   104    1
   108   118   116   ar
   109   104   103    1
   110   104   105    1
   111   115   116   ar
   112   115   114    1
   113   111   114    1
   114   111   112    1
   115   111   110    1
   116   105   106    2
   117   112   113    2
