@<TRIPOS>MOLECULE
tmp/4q7qA00.pdb
 109 105 0 0 0
SMALL
GASTEIGER

@<TRIPOS>ATOM
      1  N         29.3340   24.7670   77.9550 N.3    12  SER12      -0.1217
      2  CA        29.9900   26.0620   77.7900 C.3    12  SER12       0.1889
      3  C         29.8200   26.6330   76.3890 C.2    12  SER12       0.2288
      4  O         29.7410   27.8360   76.2210 O.2    12  SER12      -0.2866
      5  CB        31.4820   25.9750   78.1160 C.3    12  SER12       0.2089
      6  OG        32.0780   24.9200   77.3980 O.3    12  SER12      -0.2183
      7  N         27.9810   26.0890   82.1420 N.3    50  ASN50      -0.1225
      8  CA        29.4190   26.0870   81.9260 C.3    50  ASN50       0.1785
      9  C         30.0670   24.8720   82.5650 C.2    50  ASN50       0.2598
     10  O         29.9860   24.6880   83.7730 O.2    50  ASN50      -0.2718
     11  CB        30.0210   27.3820   82.4750 C.3    50  ASN50       0.1169
     12  CG        31.4450   27.6130   81.9960 C.2    50  ASN50       0.2627
     13  OD1       31.9330   26.9010   81.1280 O.2    50  ASN50      -0.2716
     14  ND2       32.1020   28.6240   82.5430 N.am   50  ASN50      -0.0877
     15  N         30.6760   24.0240   81.7420 N.am   51  GLY51      -0.1942
     16  CA        31.4010   22.8790   82.2420 C.3    51  GLY51       0.2014
     17  C         30.5810   21.6320   82.4820 C.2    51  GLY51       0.2638
     18  O         31.1300   20.6210   82.8960 O.2    51  GLY51      -0.2714
     19  N         29.2750   21.6900   82.2450 N.am   52  TRP52      -0.1973
     20  CA        28.4250   20.5570   82.6080 C.3    52  TRP52       0.1640
     21  C         28.4240   19.4320   81.5800 C.2    52  TRP52       0.2290
     22  O         28.5510   19.6520   80.3710 O.2    52  TRP52      -0.2864
     23  CB        26.9750   20.9930   82.8400 C.3    52  TRP52       0.0576
     24  CG        26.7190   21.7710   84.0960 C.ar   52  TRP52       0.0006
     25  CD1       27.5700   22.6350   84.7380 C.ar   52  TRP52       0.0946
     26  CD2       25.4990   21.7850   84.8410 C.ar   52  TRP52       0.0152
     27  NE1       26.9440   23.1720   85.8490 N.ar   52  TRP52      -0.2442
     28  CE2       25.6730   22.6660   85.9280 C.ar   52  TRP52       0.0810
     29  CE3       24.2770   21.1250   84.7020 C.ar   52  TRP52       0.0012
     30  CZ2       24.6730   22.9080   86.8610 C.ar   52  TRP52       0.0191
     31  CZ3       23.2800   21.3700   85.6320 C.ar   52  TRP52       0.0001
     32  CH2       23.4900   22.2420   86.7020 C.ar   52  TRP52       0.0015
     33  N         31.7620   17.3110   77.2880 N.3    79  ASN79      -0.1240
     34  CA        32.2890   17.1750   78.6440 C.3    79  ASN79       0.1653
     35  C         32.1350   15.7620   79.1810 C.2    79  ASN79       0.2266
     36  O         32.9780   15.3080   79.9490 O.2    79  ASN79      -0.2867
     37  CB        31.6710   18.2060   79.5860 C.3    79  ASN79       0.1155
     38  CG        32.0350   19.6180   79.1990 C.2    79  ASN79       0.2627
     39  OD1       33.1510   19.8720   78.7420 O.2    79  ASN79      -0.2716
     40  ND2       31.0990   20.5450   79.3560 N.am   79  ASN79      -0.0877
     41  N         35.2420   13.5460   80.5920 N.3    83  GLN83      -0.1245
     42  CA        35.1760   12.9890   81.9380 C.3    83  GLN83       0.1566
     43  C         35.1350   11.4670   81.9340 C.2    83  GLN83       0.2260
     44  O         35.2050   10.8410   82.9900 O.2    83  GLN83      -0.2867
     45  CB        34.0030   13.5910   82.7140 C.3    83  GLN83       0.0367
     46  CG        34.2410   15.0670   83.0080 C.3    83  GLN83       0.0905
     47  CD        33.1480   15.7180   83.8280 C.2    83  GLN83       0.2608
     48  OE1       32.4340   15.0530   84.5850 O.2    83  GLN83      -0.2717
     49  NE2       33.0180   17.0340   83.6880 N.am   83  GLN83      -0.0878
     50  N         37.2700   18.5980   68.6970 N.3   129  ARG129     -0.1245
     51  CA        38.0140   19.5240   69.5340 C.3   129  ARG129      0.1563
     52  C         39.4850   19.1880   69.4790 C.2   129  ARG129      0.2260
     53  O         39.8670   18.0120   69.4810 O.2   129  ARG129     -0.2867
     54  CB        37.5130   19.4510   70.9810 C.3   129  ARG129      0.0307
     55  CG        37.3760   18.0470   71.5360 C.3   129  ARG129      0.0489
     56  CD        36.7030   18.0290   72.8960 C.3   129  ARG129      0.2205
     57  NE        37.5730   18.5280   73.9580 N.pl3 129  ARG129     -0.0865
     58  CZ        37.1960   18.6680   75.2240 C.cat 129  ARG129      0.5346
     59  NH1       35.9490   18.3630   75.5860 N.pl3 129  ARG129      0.1354
     60  NH2       38.0600   19.1130   76.1260 N.pl3 129  ARG129      0.1354
     61  N         42.7960   21.5640   74.2680 N.3   132  PHE132     -0.1241
     62  CA        42.1570   22.6870   74.9300 C.3   132  PHE132      0.1605
     63  C         43.0500   23.2310   76.0290 C.2   132  PHE132      0.2264
     64  O         43.6060   22.4600   76.8070 O.2   132  PHE132     -0.2867
     65  CB        40.8350   22.2160   75.5350 C.3   132  PHE132      0.0534
     66  CG        40.2810   23.1290   76.5970 C.ar  132  PHE132     -0.0203
     67  CD1       39.8360   24.3950   76.2700 C.ar  132  PHE132     -0.0042
     68  CD2       40.1910   22.7120   77.9190 C.ar  132  PHE132     -0.0042
     69  CE1       39.3130   25.2370   77.2420 C.ar  132  PHE132     -0.0003
     70  CE2       39.6630   23.5430   78.8920 C.ar  132  PHE132     -0.0003
     71  CZ        39.2270   24.8120   78.5550 C.ar  132  PHE132     -0.0000
     72  N         42.5250   26.3300   78.9190 N.3   134  TYR134     -0.1241
     73  CA        41.6090   27.3360   79.4410 C.3   134  TYR134      0.1605
     74  C         42.2680   28.7170   79.4970 C.2   134  TYR134      0.2264
     75  O         43.3280   28.8930   80.0990 O.2   134  TYR134     -0.2867
     76  CB        41.1250   26.9220   80.8340 C.3   134  TYR134      0.0534
     77  CG        40.0640   27.8220   81.4290 C.ar  134  TYR134     -0.0201
     78  CD1       39.1260   28.4560   80.6220 C.ar  134  TYR134     -0.0009
     79  CD2       40.0010   28.0350   82.8000 C.ar  134  TYR134     -0.0009
     80  CE1       38.1570   29.2790   81.1630 C.ar  134  TYR134      0.0417
     81  CE2       39.0290   28.8560   83.3530 C.ar  134  TYR134      0.0417
     82  CZ        38.1090   29.4800   82.5270 C.ar  134  TYR134      0.1957
     83  OH        37.1390   30.2990   83.0650 O.3   134  TYR134     -0.2866
     84  N         44.1870   24.1630   83.5920 N.3   140  ASN140     -0.1240
     85  CA        42.9980   23.4840   83.1150 C.3   140  ASN140      0.1653
     86  C         43.1670   23.2680   81.6200 C.2   140  ASN140      0.2266
     87  O         43.0410   24.1990   80.8200 O.2   140  ASN140     -0.2867
     88  CB        41.7560   24.3240   83.4010 C.3   140  ASN140      0.1155
     89  CG        40.4680   23.5740   83.1530 C.2   140  ASN140      0.2627
     90  OD1       40.3900   22.6970   82.2910 O.2   140  ASN140     -0.2716
     91  ND2       39.4410   23.9130   83.9210 N.am  140  ASN140     -0.0877
     92  N         38.8240   24.3550   71.7800 N.3   233  LEU233     -0.1231
     93  CA        37.5460   23.7220   72.1010 C.3   233  LEU233      0.1693
     94  C         36.3410   24.6180   71.8140 C.2   233  LEU233      0.2592
     95  O         35.3890   24.1990   71.1500 O.2   233  LEU233     -0.2718
     96  CB        37.5480   23.3030   73.5720 C.3   233  LEU233      0.0284
     97  CG        36.2410   22.8450   74.2410 C.3   233  LEU233      0.0019
     98  CD1       35.6380   21.6140   73.5720 C.3   233  LEU233      0.0001
     99  CD2       36.4730   22.5840   75.7210 C.3   233  LEU233      0.0001
    100  N         36.3870   25.8490   72.3100 N.am  234  HIS234     -0.1976
    101  CA        35.2350   26.7350   72.2150 C.3   234  HIS234      0.1656
    102  C         35.2720   27.5340   70.9320 C.2   234  HIS234      0.2291
    103  O         36.2840   28.1430   70.6150 O.2   234  HIS234     -0.2864
    104  CB        35.1920   27.6690   73.4200 C.3   234  HIS234      0.0771
    105  CG        35.0770   26.9430   74.7210 C.ar  234  HIS234      0.0820
    106  ND1       36.1430   26.7720   75.5790 N.ar  234  HIS234     -0.2267
    107  CD2       34.0260   26.3120   75.2910 C.ar  234  HIS234      0.1154
    108  CE1       35.7460   26.0760   76.6310 C.ar  234  HIS234      0.1986
    109  NE2       34.4650   25.7860   76.4830 N.ar  234  HIS234     -0.2212
@<TRIPOS>BOND
     1    50    51    1
     2    52    53    2
     3    52    51    1
     4    51    54    1
     5   103   102    2
     6   102   101    1
     7    54    55    1
     8    95    94    2
     9    55    56    1
    10    92    93    1
    11    94    93    1
    12    94   100   am
    13    93    96    1
    14   101   100    1
    15   101   104    1
    16    56    57    1
    17   104   105    1
    18    98    97    1
    19    96    97    1
    20    57    58    2
    21    97    99    1
    22    61    62    1
    23   105   107   ar
    24   105   106   ar
    25    62    65    1
    26    62    63    1
    27    58    59    1
    28    58    60    1
    29   107   109   ar
    30    65    66    1
    31   106   108   ar
    32    63    64    2
    33     4     3    2
    34    67    66   ar
    35    67    69   ar
    36     3     2    1
    37   109   108   ar
    38    66    68   ar
    39    69    71   ar
    40    33    34    1
    41     6     5    1
    42     2     1    1
    43     2     5    1
    44    68    70   ar
    45    71    70   ar
    46    34    35    1
    47    34    37    1
    48    39    38    2
    49    72    73    1
    50    35    36    2
    51    38    40   am
    52    38    37    1
    53    73    74    1
    54    73    76    1
    55    74    75    2
    56    22    21    2
    57    41    42    1
    58    78    80   ar
    59    78    77   ar
    60    87    86    2
    61    76    77    1
    62    13    12    2
    63    80    82   ar
    64    77    79   ar
    65    21    20    1
    66    86    85    1
    67    15    16    1
    68    15     9   am
    69     8     7    1
    70     8    11    1
    71     8     9    1
    72    43    42    1
    73    43    44    2
    74    42    45    1
    75    12    11    1
    76    12    14   am
    77    16    17    1
    78    19    17   am
    79    19    20    1
    80    90    89    2
    81    17    18    2
    82    82    83    1
    83    82    81   ar
    84     9    10    2
    85    20    23    1
    86    45    46    1
    87    79    81   ar
    88    23    24    1
    89    46    47    1
    90    85    88    1
    91    85    84    1
    92    89    88    1
    93    89    91   am
    94    49    47   am
    95    47    48    2
    96    24    25   ar
    97    24    26   ar
    98    29    26   ar
    99    29    31   ar
   100    25    27   ar
   101    26    28   ar
   102    31    32   ar
   103    27    28   ar
   104    28    30   ar
   105    32    30   ar
