@<TRIPOS>MOLECULE
tmp/4q7vA00.pdb
 116 111 0 0 0
SMALL
GASTEIGER

@<TRIPOS>ATOM
      1  N         12.7600    0.4010    5.8230 N.3    64  ASN64      -0.1240
      2  CA        11.9180    1.3020    6.5640 C.3    64  ASN64       0.1653
      3  C         10.7240    1.6880    5.7410 C.2    64  ASN64       0.2266
      4  O         10.8980    2.1050    4.5960 O.2    64  ASN64      -0.2867
      5  CB        12.6930    2.5920    6.9460 C.3    64  ASN64       0.1155
      6  CG        13.8220    2.3480    7.8890 C.2    64  ASN64       0.2627
      7  OD1       13.9570    1.2890    8.5390 O.2    64  ASN64      -0.2716
      8  ND2       14.7050    3.3180    7.9450 N.am   64  ASN64      -0.0877
      9  N          8.4280    6.0900   11.1850 N.3    89  GLN89      -0.1245
     10  CA         8.7350    4.9760   10.3030 C.3    89  GLN89       0.1566
     11  C          8.5430    3.7390   11.0790 C.2    89  GLN89       0.2260
     12  O          8.3990    3.7500   12.3140 O.2    89  GLN89      -0.2867
     13  CB        10.1800    5.0310    9.7710 C.3    89  GLN89       0.0367
     14  CG        11.2460    5.0650   10.9670 C.3    89  GLN89       0.0905
     15  CD        11.9960    3.8010   11.1850 C.2    89  GLN89       0.2608
     16  OE1       11.4100    2.7300   11.2080 O.2    89  GLN89      -0.2717
     17  NE2       13.3040    3.9090   11.2690 N.am   89  GLN89      -0.0878
     18  N          9.8480   -0.5900   10.8920 N.3    91  HIS91      -0.1241
     19  CA        10.7910   -1.5570   10.3170 C.3    91  HIS91       0.1621
     20  C         10.7100   -2.8200   11.1200 C.2    91  HIS91       0.2264
     21  O         10.0550   -2.8630   12.1480 O.2    91  HIS91      -0.2867
     22  CB        12.3020   -1.0540   10.2830 C.3    91  HIS91       0.0745
     23  CG        12.8350   -0.7670   11.6440 C.ar   91  HIS91       0.0817
     24  ND1       12.6140    0.4400   12.2700 N.ar   91  HIS91      -0.2268
     25  CD2       13.4490   -1.5600   12.5610 C.ar   91  HIS91       0.1154
     26  CE1       13.1260    0.4110   13.4880 C.ar   91  HIS91       0.1986
     27  NE2       13.6480   -0.8000   13.6960 N.ar   91  HIS91      -0.2212
     28  N         13.0000   -6.4730   12.4480 N.3    93  HIS93      -0.1241
     29  CA        14.1820   -7.2610   12.6060 C.3    93  HIS93       0.1621
     30  C         13.7830   -8.7330   12.4900 C.2    93  HIS93       0.2264
     31  O         12.7410   -9.1260   13.0590 O.2    93  HIS93      -0.2867
     32  CB        14.8150   -7.0440   13.9830 C.3    93  HIS93       0.0745
     33  CG        15.1270   -5.6220   14.2850 C.ar   93  HIS93       0.0817
     34  ND1       16.3900   -5.1000   14.0880 N.ar   93  HIS93      -0.2268
     35  CD2       14.3270   -4.5960   14.6720 C.ar   93  HIS93       0.1154
     36  CE1       16.3640   -3.8190   14.4750 C.ar   93  HIS93       0.1986
     37  NE2       15.1090   -3.4810   14.7410 N.ar   93  HIS93      -0.2212
     38  N          9.0490   -2.7510   14.8070 N.3   116  HIS116     -0.1241
     39  CA         9.2990   -1.5330   15.5910 C.3   116  HIS116      0.1621
     40  C          8.6510   -0.3950   14.8740 C.2   116  HIS116      0.2264
     41  O          9.0560    0.0050   13.7530 O.2   116  HIS116     -0.2867
     42  CB        10.8370   -1.2970   15.6150 C.3   116  HIS116      0.0745
     43  CG        11.5090   -2.2850   16.5260 C.ar  116  HIS116      0.0817
     44  ND1       12.8750   -2.4800   16.5350 N.ar  116  HIS116     -0.2268
     45  CD2       11.0000   -3.1460   17.4380 C.ar  116  HIS116      0.1154
     46  CE1       13.1880   -3.4110   17.4210 C.ar  116  HIS116      0.1986
     47  NE2       12.0670   -3.8440   17.9740 N.ar  116  HIS116     -0.2212
     48  N          8.3110    3.3980   15.1030 N.3   118  VAL118     -0.1245
     49  CA         9.1530    4.4300   15.8110 C.3   118  VAL118      0.1561
     50  C          8.4340    5.7820   15.8110 C.2   118  VAL118      0.2260
     51  O          7.9730    6.2300   14.7470 O.2   118  VAL118     -0.2867
     52  CB        10.4000    4.6170   14.9990 C.3   118  VAL118      0.0252
     53  CG1       11.3600    5.6040   15.6580 C.3   118  VAL118      0.0019
     54  CG2       11.0900    3.2640   14.7800 C.3   118  VAL118      0.0019
     55  N         12.4850   14.7060   14.6280 N.3   127  PHE127     -0.1241
     56  CA        13.2130   13.4980   14.9750 C.3   127  PHE127      0.1605
     57  C         14.6170   13.7660   15.3990 C.2   127  PHE127      0.2264
     58  O         15.0960   13.1490   16.3900 O.2   127  PHE127     -0.2867
     59  CB        13.1240   12.4500   13.8200 C.3   127  PHE127      0.0534
     60  CG        13.8170   11.1780   14.0760 C.ar  127  PHE127     -0.0203
     61  CD1       13.1700   10.1380   14.7650 C.ar  127  PHE127     -0.0042
     62  CD2       15.1510   11.0250   13.7100 C.ar  127  PHE127     -0.0042
     63  CE1       13.8530    8.9640   15.0210 C.ar  127  PHE127     -0.0003
     64  CE2       15.8130    9.8270   13.9830 C.ar  127  PHE127     -0.0003
     65  CZ        15.1290    8.8290   14.6450 C.ar  127  PHE127     -0.0000
     66  N         12.0990    9.3890   22.0930 N.3   137  LEU137     -0.1245
     67  CA        11.4130    8.3900   21.2350 C.3   137  LEU137      0.1561
     68  C         10.4730    7.4540   22.0240 C.2   137  LEU137      0.2260
     69  O         10.7260    7.1890   23.2290 O.2   137  LEU137     -0.2867
     70  CB        12.4470    7.5290   20.4850 C.3   137  LEU137      0.0270
     71  CG        13.3390    8.3010   19.5560 C.3   137  LEU137      0.0019
     72  CD1       14.2250    7.2220   18.8230 C.3   137  LEU137      0.0001
     73  CD2       12.6290    9.1220   18.5120 C.3   137  LEU137      0.0001
     74  N          9.0970    3.5470   21.0720 N.3   139  VAL139     -0.1245
     75  CA         9.0460    2.5280   20.0400 C.3   139  VAL139      0.1561
     76  C          8.0450    1.4940   20.4970 C.2   139  VAL139      0.2260
     77  O          8.1530    0.9980   21.6020 O.2   139  VAL139     -0.2867
     78  CB        10.3900    1.9370   19.7850 C.3   139  VAL139      0.0252
     79  CG1       10.2630    0.8740   18.5920 C.3   139  VAL139      0.0019
     80  CG2       11.2740    3.0210   19.2670 C.3   139  VAL139      0.0019
     81  N         17.9290    2.8060   20.9300 N.3   194  LEU194     -0.1231
     82  CA        17.8380    2.2310   19.6070 C.3   194  LEU194      0.1693
     83  C         18.5550    0.8860   19.6700 C.2   194  LEU194      0.2593
     84  O         19.6230    0.7360   20.3620 O.2   194  LEU194     -0.2718
     85  CB        18.6440    3.0660   18.6170 C.3   194  LEU194      0.0284
     86  CG        18.3290    4.5710   18.5280 C.3   194  LEU194      0.0019
     87  CD1       19.0580    5.2400   17.2920 C.3   194  LEU194      0.0001
     88  CD2       16.8930    4.9650   18.4400 C.3   194  LEU194      0.0001
     89  N         18.1590   -0.0970   18.8900 N.am  195  THR195     -0.1939
     90  CA        18.8860   -1.3870   18.9500 C.3   195  THR195      0.2028
     91  C         19.9070   -1.4540   17.7730 C.2   195  THR195      0.2642
     92  O         20.5670   -2.4800   17.6010 O.2   195  THR195     -0.2714
     93  CB        17.9060   -2.5490   18.8020 C.3   195  THR195      0.1808
     94  OG1       17.2500   -2.4440   17.5320 O.3   195  THR195     -0.2208
     95  CG2       16.8580   -2.5150   19.9080 C.3   195  THR195      0.0379
     96  N         20.0250   -0.4020   16.9760 N.am  196  THR196     -0.1950
     97  CA        21.0780   -0.3220   15.9280 C.3   196  THR196      0.1897
     98  C         21.9250    0.8980   16.2090 C.2   196  THR196      0.2313
     99  O         21.4420    1.9150   16.7570 O.2   196  THR196     -0.2863
    100  CB        20.4670   -0.1640   14.5600 C.3   196  THR196      0.1794
    101  OG1       19.4400    0.8320   14.5930 O.3   196  THR196     -0.2208
    102  CG2       19.8750   -1.4280   14.1320 C.3   196  THR196      0.0378
    103  N         10.4390    2.0690   25.5940 N.3   205  TRP205     -0.1241
    104  CA         9.9980    0.9060   24.8290 C.3   205  TRP205      0.1605
    105  C          8.6110    0.5310   25.3300 C.2   205  TRP205      0.2264
    106  O          8.3670    0.4410   26.5310 O.2   205  TRP205     -0.2867
    107  CB        10.9590   -0.3250   25.1080 C.3   205  TRP205      0.0550
    108  CG        12.1240   -0.1930   24.1450 C.ar  205  TRP205      0.0003
    109  CD1       13.3690    0.3560   24.3220 C.ar  205  TRP205      0.0946
    110  CD2       12.0890   -0.6450   22.7680 C.ar  205  TRP205      0.0152
    111  NE1       14.1100    0.3030   23.1300 N.ar  205  TRP205     -0.2442
    112  CE2       13.3370   -0.3220   22.1720 C.ar  205  TRP205      0.0810
    113  CE3       11.1120   -1.2510   21.9850 C.ar  205  TRP205      0.0012
    114  CZ2       13.6190   -0.5770   20.8400 C.ar  205  TRP205      0.0191
    115  CZ3       11.3820   -1.5150   20.6730 C.ar  205  TRP205      0.0001
    116  CH2       12.6050   -1.2190   20.0960 C.ar  205  TRP205      0.0015
@<TRIPOS>BOND
     1     4     3    2
     2     3     2    1
     3     1     2    1
     4     2     5    1
     5     5     6    1
     6     6     8   am
     7     6     7    2
     8    13    10    1
     9    13    14    1
    10    22    19    1
    11    22    23    1
    12    10    11    1
    13    10     9    1
    14    19    18    1
    15    19    20    1
    16    14    15    1
    17    11    12    2
    18    20    21    2
    19    15    16    2
    20    15    17   am
    21    23    24   ar
    22    23    25   ar
    23    24    26   ar
    24    28    29    1
    25    30    29    1
    26    30    31    2
    27    25    27   ar
    28    29    32    1
    29    26    27   ar
    30    62    64   ar
    31    62    60   ar
    32    41    40    2
    33    59    60    1
    34    59    56    1
    35    64    65   ar
    36    32    33    1
    37    60    61   ar
    38    34    33   ar
    39    34    36   ar
    40   102   100    1
    41    33    35   ar
    42    36    37   ar
    43   100   101    1
    44   100    97    1
    45    55    56    1
    46    65    63   ar
    47    35    37   ar
    48    51    50    2
    49    61    63   ar
    50    54    52    1
    51    38    39    1
    52    40    39    1
    53    56    57    1
    54    52    53    1
    55    52    49    1
    56    48    49    1
    57    57    58    2
    58    39    42    1
    59    42    43    1
    60    50    49    1
    61    97    98    1
    62    97    96    1
    63    98    99    2
    64    43    44   ar
    65    43    45   ar
    66    44    46   ar
    67    96    91   am
    68    87    86    1
    69    46    47   ar
    70    45    47   ar
    71    94    93    1
    72    92    91    2
    73    91    90    1
    74    88    86    1
    75    73    71    1
    76    86    85    1
    77    79    78    1
    78    85    82    1
    79    93    90    1
    80    93    95    1
    81    72    71    1
    82    89    90    1
    83    89    83   am
    84    80    78    1
    85    71    70    1
    86    82    83    1
    87    82    81    1
    88    83    84    2
    89    78    75    1
    90    75    76    1
    91    75    74    1
    92   116   115   ar
    93   116   114   ar
    94    70    67    1
    95    76    77    2
    96   115   113   ar
    97   114   112   ar
    98    67    68    1
    99    67    66    1
   100   113   110   ar
   101    68    69    2
   102   112   110   ar
   103   112   111   ar
   104   110   108   ar
   105   111   109   ar
   106   108   109   ar
   107   108   107    1
   108   104   107    1
   109   104   105    1
   110   104   103    1
   111   105   106    2
