@<TRIPOS>MOLECULE
tmp/4q7zA02.pdb
 145 143 0 0 0
SMALL
GASTEIGER

@<TRIPOS>ATOM
      1  N        -10.4610    5.8080    1.1910 N.3    25  HIS25      -0.1226
      2  CA       -10.5980    4.4420    0.6820 C.3    25  HIS25       0.1752
      3  C        -11.2480    3.4980    1.6570 C.2    25  HIS25       0.2596
      4  O        -12.0200    2.6310    1.2590 O.2    25  HIS25      -0.2718
      5  CB        -9.2180    3.9180    0.3480 C.3    25  HIS25       0.0759
      6  CG        -9.2150    2.5390   -0.2570 C.ar   25  HIS25       0.0818
      7  ND1       -9.8570    2.2470   -1.4050 N.ar   25  HIS25      -0.2268
      8  CD2       -8.5900    1.3540    0.1600 C.ar   25  HIS25       0.1154
      9  CE1       -9.6600    0.9340   -1.7040 C.ar   25  HIS25       0.1986
     10  NE2       -8.8870    0.3960   -0.7510 N.ar   25  HIS25      -0.2212
     11  N        -10.9510    3.6360    2.9490 N.am   26  CYS26      -0.1970
     12  CA       -11.5280    2.7540    3.9550 C.3    26  CYS26       0.1712
     13  C        -11.6450    3.4670    5.2980 C.2    26  CYS26       0.2296
     14  O        -10.9980    4.5040    5.5220 O.2    26  CYS26      -0.2864
     15  CB       -10.6760    1.5100    4.1000 C.3    26  CYS26       0.0983
     16  SG       -11.0730    0.2140    2.9160 S.3    26  CYS26      -0.0798
     17  N         -8.7000   -6.3400    3.4900 N.3    41  HIS41      -0.1241
     18  CA        -8.9520   -6.1810    2.0620 C.3    41  HIS41       0.1621
     19  C         -8.6700   -4.7770    1.5610 C.2    41  HIS41       0.2264
     20  O         -8.4570   -4.5680    0.3720 O.2    41  HIS41      -0.2867
     21  CB       -10.3580   -6.6680    1.6830 C.3    41  HIS41       0.0745
     22  CG       -11.4710   -5.6500    1.9130 C.ar   41  HIS41       0.0817
     23  ND1      -12.4000   -5.7930    2.8870 N.ar   41  HIS41      -0.2268
     24  CD2      -11.7870   -4.4830    1.2350 C.ar   41  HIS41       0.1154
     25  CE1      -13.2750   -4.7830    2.8190 C.ar   41  HIS41       0.1986
     26  NE2      -12.8960   -3.9610    1.8160 N.ar   41  HIS41      -0.2212
     27  N         -5.6730  -14.3620    6.6770 N.3    81  TYR81      -0.1241
     28  CA        -6.3220  -13.6830    5.5720 C.3    81  TYR81       0.1605
     29  C         -5.6930  -14.1860    4.2770 C.2    81  TYR81       0.2264
     30  O         -4.4670  -14.2610    4.1700 O.2    81  TYR81      -0.2867
     31  CB        -6.1920  -12.1520    5.6740 C.3    81  TYR81       0.0534
     32  CG        -6.9040  -11.4200    4.5700 C.ar   81  TYR81      -0.0201
     33  CD1       -8.2890  -11.3970    4.5180 C.ar   81  TYR81      -0.0009
     34  CD2       -6.2010  -10.7810    3.5410 C.ar   81  TYR81      -0.0009
     35  CE1       -8.9660  -10.7390    3.5100 C.ar   81  TYR81       0.0417
     36  CE2       -6.8740  -10.1290    2.5150 C.ar   81  TYR81       0.0417
     37  CZ        -8.2530  -10.1100    2.5100 C.ar   81  TYR81       0.1957
     38  OH        -8.9370   -9.4660    1.5050 O.3    81  TYR81      -0.2866
     39  N        -10.8450  -16.8550   -0.1420 N.3    85  THR85      -0.1203
     40  CA       -11.6630  -16.8960    1.0700 C.3    85  THR85       0.1994
     41  C        -11.8940  -15.4770    1.6000 C.2    85  THR85       0.2617
     42  O        -11.0910  -14.5680    1.3730 O.2    85  THR85      -0.2717
     43  CB       -11.0540  -17.7860    2.1700 C.3    85  THR85       0.1784
     44  OG1      -11.9060  -17.7690    3.3260 O.3    85  THR85      -0.2211
     45  CG2       -9.6660  -17.3030    2.5560 C.3    85  THR85       0.0376
     46  N        -12.9920  -15.3100    2.3230 N.am   86  HIS86      -0.1975
     47  CA       -13.4560  -13.9890    2.7460 C.3    86  HIS86       0.1656
     48  C        -13.2260  -13.7360    4.2140 C.2    86  HIS86       0.2291
     49  O        -13.3330  -12.6080    4.6690 O.2    86  HIS86      -0.2864
     50  CB       -14.9330  -13.7830    2.3600 C.3    86  HIS86       0.0771
     51  CG       -15.7990  -15.0280    2.4920 C.ar   86  HIS86       0.0820
     52  ND1      -15.5660  -16.1570    1.7920 N.ar   86  HIS86      -0.2267
     53  CD2      -16.9390  -15.2720    3.2570 C.ar   86  HIS86       0.1154
     54  CE1      -16.4920  -17.0820    2.1110 C.ar   86  HIS86       0.1986
     55  NE2      -17.3340  -16.5370    3.0050 N.ar   86  HIS86      -0.2212
     56  N        -10.8350  -10.8580    7.7130 N.3    89  ASP89      -0.1239
     57  CA       -10.6650   -9.5880    7.0140 C.3    89  ASP89       0.1674
     58  C        -10.3250   -8.4380    7.9790 C.2    89  ASP89       0.2266
     59  O        -11.0950   -7.5040    8.1410 O.2    89  ASP89      -0.2867
     60  CB       -11.9250   -9.2720    6.2120 C.3    89  ASP89       0.1410
     61  CG       -11.7420   -8.0930    5.2880 C.2    89  ASP89       0.3668
     62  OD1      -10.5800   -7.6560    5.1020 O.co2  89  ASP89      -0.2456
     63  OD2      -12.7370   -7.5620    4.7760 O.co2  89  ASP89      -0.2456
     64  N        -23.8650   -0.5920    5.5300 N.3   180  PHE180     -0.1227
     65  CA       -22.6490    0.0070    5.0050 C.3   180  PHE180      0.1736
     66  C        -22.5630   -0.0950    3.4840 C.2   180  PHE180      0.2596
     67  O        -23.4140   -0.7020    2.8410 O.2   180  PHE180     -0.2718
     68  CB       -21.4160   -0.5710    5.6970 C.3   180  PHE180      0.0547
     69  CG       -21.2600   -2.0670    5.5980 C.ar  180  PHE180     -0.0202
     70  CD1      -20.9620   -2.6950    4.3850 C.ar  180  PHE180     -0.0042
     71  CD2      -21.2980   -2.8480    6.7430 C.ar  180  PHE180     -0.0042
     72  CE1      -20.7600   -4.0630    4.3130 C.ar  180  PHE180     -0.0003
     73  CE2      -21.0980   -4.2070    6.6730 C.ar  180  PHE180     -0.0003
     74  CZ       -20.8030   -4.8140    5.4580 C.ar  180  PHE180     -0.0000
     75  N        -21.5550    0.5510    2.9100 N.am  181  CYS181     -0.1956
     76  CA       -21.3330    0.4750    1.4610 C.3   181  CYS181      0.1843
     77  C        -19.8340    0.6000    1.1880 C.2   181  CYS181      0.2626
     78  O        -19.0110    0.5450    2.1110 O.2   181  CYS181     -0.2714
     79  CB       -22.1700    1.5230    0.7200 C.3   181  CYS181      0.0997
     80  SG       -22.5050    1.1830   -1.0320 S.3   181  CYS181     -0.0797
     81  N        -19.4470    0.6830   -0.0820 N.am  182  SER182     -0.1936
     82  CA       -18.0200    0.7440   -0.4150 C.3   182  SER182      0.2055
     83  C        -17.3210    1.8930    0.2940 C.2   182  SER182      0.2642
     84  O        -17.8620    3.0070    0.3560 O.2   182  SER182     -0.2714
     85  CB       -17.8240    0.9100   -1.9210 C.3   182  SER182      0.2130
     86  OG       -18.5890   -0.0310   -2.6600 O.3   182  SER182     -0.2179
     87  N        -16.1290    1.6080    0.8080 N.am  183  ALA183     -0.1977
     88  CA       -15.2690    2.5280    1.5260 C.3   183  ALA183      0.1597
     89  C        -15.7040    2.7570    2.9670 C.2   183  ALA183      0.2287
     90  O        -15.1130    3.5840    3.6350 O.2   183  ALA183     -0.2864
     91  CB       -15.0530    3.8400    0.7800 C.3   183  ALA183      0.0319
     92  N        -15.4780   -0.0960    4.7210 N.3   185  SER185     -0.1217
     93  CA       -14.7170   -1.2160    5.2600 C.3   185  SER185      0.1889
     94  C        -13.7130   -0.8200    6.2960 C.2   185  SER185      0.2288
     95  O        -13.0850    0.2280    6.1880 O.2   185  SER185     -0.2866
     96  CB       -13.9760   -1.9380    4.1530 C.3   185  SER185      0.2089
     97  OG       -14.9120   -2.5600    3.3150 O.3   185  SER185     -0.2183
     98  N        -16.5460   -3.7290    9.5090 N.3   199  VAL199     -0.1231
     99  CA       -17.1840   -3.7950    8.2020 C.3   199  VAL199      0.1692
    100  C        -16.3070   -4.6230    7.2510 C.2   199  VAL199      0.2593
    101  O        -15.1190   -4.3240    7.0830 O.2   199  VAL199     -0.2718
    102  CB       -17.3810   -2.3990    7.5890 C.3   199  VAL199      0.0266
    103  CG1      -17.8410   -2.5210    6.1440 C.3   199  VAL199      0.0020
    104  CG2      -18.3690   -1.5650    8.4010 C.3   199  VAL199      0.0020
    105  N        -16.8960   -5.6500    6.6270 N.am  200  SER200     -0.1938
    106  CA       -16.1350   -6.5080    5.6930 C.3   200  SER200      0.2055
    107  C        -16.7410   -6.5770    4.2930 C.2   200  SER200      0.2643
    108  O        -16.1220   -6.0980    3.3500 O.2   200  SER200     -0.2714
    109  CB       -15.9560   -7.9050    6.2780 C.3   200  SER200      0.2130
    110  OG       -15.1730   -8.7080    5.3780 O.3   200  SER200     -0.2179
    111  N        -17.9020   -7.1910    4.1320 N.am  201  PHE201     -0.1959
    112  CA       -18.4670   -7.3420    2.7910 C.3   201  PHE201      0.1771
    113  C        -19.9780   -7.3830    2.7700 C.2   201  PHE201      0.2620
    114  O        -20.6160   -7.6510    3.7880 O.2   201  PHE201     -0.2715
    115  CB       -17.8960   -8.5920    2.0690 C.3   201  PHE201      0.0574
    116  CG       -18.3360   -9.9090    2.6500 C.ar  201  PHE201     -0.0200
    117  CD1      -19.5000  -10.5220    2.2150 C.ar  201  PHE201     -0.0042
    118  CD2      -17.5680  -10.5710    3.6090 C.ar  201  PHE201     -0.0042
    119  CE1      -19.9010  -11.7450    2.7290 C.ar  201  PHE201     -0.0003
    120  CE2      -17.9660  -11.7920    4.1270 C.ar  201  PHE201     -0.0003
    121  CZ       -19.1330  -12.3760    3.6840 C.ar  201  PHE201     -0.0000
    122  N        -20.5590   -7.1570    1.5940 N.am  202  SER202     -0.1936
    123  CA       -21.9800   -7.3560    1.4080 C.3   202  SER202      0.2055
    124  C        -22.2560   -7.7620   -0.0440 C.2   202  SER202      0.2644
    125  O        -21.3460   -8.2360   -0.7170 O.2   202  SER202     -0.2714
    126  CB       -22.7340   -6.1030    1.8680 C.3   202  SER202      0.2130
    127  OG       -22.4100   -4.9630    1.0980 O.3   202  SER202     -0.2179
    128  N        -23.5000   -7.6180   -0.4880 N.am  203  GLY203     -0.1939
    129  CA       -23.9150   -8.1010   -1.8110 C.3   203  GLY203      0.2014
    130  C        -23.9470   -7.0240   -2.8660 C.2   203  GLY203      0.2638
    131  O        -23.4290   -5.9320   -2.6700 O.2   203  GLY203     -0.2714
    132  N        -24.5830   -7.3300   -3.9960 N.am  204  LEU204     -0.1977
    133  CA       -24.5480   -6.4600   -5.1640 C.3   204  LEU204      0.1596
    134  C        -25.1040   -5.0580   -4.8820 C.2   204  LEU204      0.2287
    135  O        -24.6030   -4.0610   -5.4120 O.2   204  LEU204     -0.2864
    136  CB       -25.3080   -7.1230   -6.3250 C.3   204  LEU204      0.0297
    137  CG       -25.3540   -6.3440   -7.6510 C.3   204  LEU204      0.0022
    138  CD1      -23.9570   -6.1650   -8.2320 C.3   204  LEU204      0.0001
    139  CD2      -26.2810   -7.0360   -8.6460 C.3   204  LEU204      0.0001
    140  N        -25.9770   -2.2290   -1.9420 N.3   206  CYS206     -0.1235
    141  CA       -25.6310   -1.9090   -0.5520 C.3   206  CYS206      0.1677
    142  C        -26.8580   -1.8790    0.3690 C.2   206  CYS206      0.2270
    143  O        -27.8580   -1.2410    0.0750 O.2   206  CYS206     -0.2867
    144  CB       -24.8690   -0.5970   -0.4690 C.3   206  CYS206      0.0956
    145  SG       -23.1900   -0.7690   -1.1060 S.3   206  CYS206     -0.0801
@<TRIPOS>BOND
     1   139   137    1
     2   138   137    1
     3   137   136    1
     4   136   133    1
     5   135   134    2
     6   133   134    1
     7   133   132    1
     8   132   130   am
     9   130   131    2
    10   130   129    1
    11    86    85    1
    12   140   141    1
    13    85    82    1
    14   129   128    1
    15     9     7   ar
    16     9    10   ar
    17     7     6   ar
    18   145    80    1
    19   145   144    1
    20    80    79    1
    21    10     8   ar
    22   125   124    2
    23   141   144    1
    24   141   142    1
    25   128   124   am
    26    82    81    1
    27    82    83    1
    28     6     8   ar
    29     6     5    1
    30    39    40    1
    31    81    77   am
    32   124   123    1
    33   143   142    2
    34    83    84    2
    35    83    87   am
    36     5     2    1
    37    20    19    2
    38     2     1    1
    39     2     3    1
    40    79    76    1
    41    91    88    1
    42    87    88    1
    43    40    41    1
    44    40    43    1
    45   127   126    1
    46    77    76    1
    47    77    78    2
    48    24    26   ar
    49    24    22   ar
    50     4     3    2
    51    42    41    2
    52   123   122    1
    53   123   126    1
    54    76    75    1
    55    38    37    1
    56    88    89    1
    57    19    18    1
    58   122   113   am
    59    41    46   am
    60     3    11   am
    61    21    22    1
    62    21    18    1
    63    52    54   ar
    64    52    51   ar
    65    26    25   ar
    66    22    23   ar
    67    18    17    1
    68   115   116    1
    69   115   112    1
    70    54    55   ar
    71    43    45    1
    72    43    44    1
    73   117   116   ar
    74   117   119   ar
    75    46    47    1
    76    50    51    1
    77    50    47    1
    78    51    53   ar
    79    37    36   ar
    80    37    35   ar
    81    36    34   ar
    82   116   118   ar
    83   119   121   ar
    84    47    48    1
    85   113   112    1
    86   113   114    2
    87   112   111    1
    88    25    23   ar
    89    67    66    2
    90    75    66   am
    91    16    15    1
    92    11    12    1
    93    89    90    2
    94    55    53   ar
    95    97    96    1
    96   108   107    2
    97    66    65    1
    98    35    33   ar
    99    34    32   ar
   100   118   120   ar
   101   121   120   ar
   102    12    15    1
   103    12    13    1
   104   111   107   am
   105    96    93    1
   106    30    29    2
   107    48    49    2
   108    29    28    1
   109   107   106    1
   110    72    70   ar
   111    72    74   ar
   112    70    69   ar
   113    33    32   ar
   114    32    31    1
   115    92    93    1
   116    63    61   ar
   117    65    64    1
   118    65    68    1
   119    62    61   ar
   120    93    94    1
   121    61    60    1
   122    13    14    2
   123   110   109    1
   124    74    73   ar
   125    28    31    1
   126    28    27    1
   127    69    68    1
   128    69    71   ar
   129   106   109    1
   130   106   105    1
   131   103   102    1
   132    95    94    2
   133    60    57    1
   134   105   100   am
   135    73    71   ar
   136    57    56    1
   137    57    58    1
   138   101   100    2
   139   100    99    1
   140   102    99    1
   141   102   104    1
   142    58    59    2
   143    99    98    1
