@<TRIPOS>MOLECULE
tmp/4q80B02.pdb
 167 166 0 0 0
SMALL
GASTEIGER

@<TRIPOS>ATOM
      1  N         22.4160  -46.5730  -14.8720 N.3    25  HIS25      -0.1226
      2  CA        21.0100  -46.4660  -14.5470 C.3    25  HIS25       0.1752
      3  C         20.3370  -47.8040  -14.1770 C.2    25  HIS25       0.2596
      4  O         19.6220  -47.8710  -13.1740 O.2    25  HIS25      -0.2718
      5  CB        20.3110  -45.7650  -15.7200 C.3    25  HIS25       0.0759
      6  CG        18.9110  -45.3300  -15.4480 C.ar   25  HIS25       0.0818
      7  ND1       18.6300  -44.3460  -14.5040 N.ar   25  HIS25      -0.2268
      8  CD2       17.7550  -45.7100  -16.0510 C.ar   25  HIS25       0.1154
      9  CE1       17.3140  -44.1830  -14.5390 C.ar   25  HIS25       0.1986
     10  NE2       16.7400  -44.9810  -15.4560 N.ar   25  HIS25      -0.2212
     11  N         20.5380  -48.8500  -15.0100 N.am   26  CYS26      -0.1970
     12  CA        19.9000  -50.1620  -14.8590 C.3    26  CYS26       0.1712
     13  C         20.8460  -51.2880  -15.2120 C.2    26  CYS26       0.2296
     14  O         21.9090  -51.0630  -15.7930 O.2    26  CYS26      -0.2864
     15  CB        18.6320  -50.2400  -15.7120 C.3    26  CYS26       0.0983
     16  SG        17.1110  -49.7600  -14.8460 S.3    26  CYS26      -0.0798
     17  N         10.7260  -50.3730  -17.4400 N.3    41  HIS41      -0.1241
     18  CA        10.6920  -49.1140  -16.6800 C.3    41  HIS41       0.1621
     19  C         11.9680  -48.2680  -16.7190 C.2    41  HIS41       0.2264
     20  O         11.9170  -47.0830  -16.3930 O.2    41  HIS41      -0.2867
     21  CB        10.1770  -49.2820  -15.2270 C.3    41  HIS41       0.0745
     22  CG        11.1680  -49.8070  -14.2330 C.ar   41  HIS41       0.0817
     23  ND1       11.1110  -51.1140  -13.7920 N.ar   41  HIS41      -0.2268
     24  CD2       12.1480  -49.1610  -13.5600 C.ar   41  HIS41       0.1154
     25  CE1       12.0740  -51.2370  -12.9010 C.ar   41  HIS41       0.1986
     26  NE2       12.7240  -50.0830  -12.7230 N.ar   41  HIS41      -0.2212
     27  N          3.3960  -53.6440  -21.1570 N.3    81  TYR81      -0.1241
     28  CA         4.0130  -53.1070  -19.9540 C.3    81  TYR81       0.1605
     29  C          3.0400  -52.0890  -19.3930 C.2    81  TYR81       0.2264
     30  O          2.7570  -51.0740  -20.0340 O.2    81  TYR81      -0.2867
     31  CB         5.3910  -52.4610  -20.2140 C.3    81  TYR81       0.0534
     32  CG         5.8870  -51.6180  -19.0500 C.ar   81  TYR81      -0.0201
     33  CD1        5.9390  -52.1370  -17.7540 C.ar   81  TYR81      -0.0009
     34  CD2        6.2910  -50.3030  -19.2400 C.ar   81  TYR81      -0.0009
     35  CE1        6.3760  -51.3600  -16.6790 C.ar   81  TYR81       0.0417
     36  CE2        6.7360  -49.5170  -18.1740 C.ar   81  TYR81       0.0417
     37  CZ         6.7800  -50.0480  -16.8920 C.ar   81  TYR81       0.1957
     38  OH         7.1990  -49.2570  -15.8380 O.3    81  TYR81      -0.2866
     39  N          2.1370  -49.3150  -16.8170 N.3    83  PRO83      -0.2102
     40  CA         2.6340  -48.4080  -15.7610 C.3    83  PRO83       0.1504
     41  C          1.5030  -48.2210  -14.7330 C.2    83  PRO83       0.2575
     42  O          0.3380  -48.1610  -15.1390 O.2    83  PRO83      -0.2718
     43  CB         2.9610  -47.1180  -16.5170 C.3    83  PRO83       0.0282
     44  CG         2.3630  -47.2810  -17.8770 C.3    83  PRO83       0.0208
     45  CD         1.6130  -48.5590  -17.9680 C.3    83  PRO83       0.0893
     46  N          1.8230  -48.2130  -13.4190 N.am   84  MET84      -0.1980
     47  CA         0.9000  -48.1430  -12.2620 C.3    84  MET84       0.1605
     48  C          0.6230  -49.5250  -11.6400 C.2    84  MET84       0.2287
     49  O          0.6760  -49.6520  -10.4120 O.2    84  MET84      -0.2864
     50  CB        -0.2870  -47.1570  -12.3770 C.3    84  MET84       0.0413
     51  CG        -1.6250  -47.8050  -12.5960 C.3    84  MET84       0.0598
     52  SD        -2.6610  -46.8020  -13.6830 S.3    84  MET84      -0.1393
     53  CE        -4.1460  -47.8320  -13.7500 C.3    84  MET84       0.0692
     54  N          2.5140  -53.3670  -12.1630 N.3    86  HIS86      -0.1241
     55  CA         3.8720  -53.4030  -12.7440 C.3    86  HIS86       0.1621
     56  C          4.1720  -54.5940  -13.6630 C.2    86  HIS86       0.2264
     57  O          5.3040  -55.1050  -13.7690 O.2    86  HIS86      -0.2867
     58  CB         4.9530  -53.0150  -11.7230 C.3    86  HIS86       0.0745
     59  CG         4.5860  -51.7510  -11.0130 C.ar   86  HIS86       0.0817
     60  ND1        4.7380  -50.5110  -11.6240 N.ar   86  HIS86      -0.2268
     61  CD2        3.9240  -51.5820   -9.8480 C.ar   86  HIS86       0.1154
     62  CE1        4.2290  -49.6310  -10.7810 C.ar   86  HIS86       0.1986
     63  NE2        3.7390  -50.2270   -9.6930 N.ar   86  HIS86      -0.2212
     64  N          7.0680  -55.9590  -17.2200 N.3    89  ASP89      -0.1239
     65  CA         8.2010  -55.0490  -17.0780 C.3    89  ASP89       0.1674
     66  C          9.4270  -55.6620  -17.6960 C.2    89  ASP89       0.2266
     67  O         10.3920  -56.0060  -17.0160 O.2    89  ASP89      -0.2867
     68  CB         8.4280  -54.7350  -15.6060 C.3    89  ASP89       0.1410
     69  CG         9.3320  -53.5630  -15.3680 C.2    89  ASP89       0.3668
     70  OD1        9.7150  -52.8940  -16.3620 O.co2  89  ASP89      -0.2456
     71  OD2        9.6760  -53.3170  -14.1950 O.co2  89  ASP89      -0.2456
     72  N          2.1980  -58.0470   -0.3990 N.3   159  TRP159     -0.1241
     73  CA         1.9480  -57.0520   -1.4200 C.3   159  TRP159      0.1605
     74  C          0.4830  -56.6820   -1.6000 C.2   159  TRP159      0.2264
     75  O          0.1350  -56.0970   -2.6320 O.2   159  TRP159     -0.2867
     76  CB         2.5970  -57.4870   -2.7290 C.3   159  TRP159      0.0550
     77  CG         4.0440  -57.1310   -2.7350 C.ar  159  TRP159      0.0003
     78  CD1        5.0930  -57.9500   -2.4290 C.ar  159  TRP159      0.0946
     79  CD2        4.6000  -55.8160   -2.9280 C.ar  159  TRP159      0.0152
     80  NE1        6.2780  -57.2390   -2.4900 N.ar  159  TRP159     -0.2442
     81  CE2        5.9990  -55.9270   -2.7900 C.ar  159  TRP159      0.0810
     82  CE3        4.0490  -54.5570   -3.2180 C.ar  159  TRP159      0.0012
     83  CZ2        6.8520  -54.8370   -2.9680 C.ar  159  TRP159      0.0191
     84  CZ3        4.8960  -53.4800   -3.3930 C.ar  159  TRP159      0.0001
     85  CH2        6.2790  -53.6310   -3.2860 C.ar  159  TRP159      0.0015
     86  N         17.8740  -57.0380   -4.1010 N.3   180  PHE180     -0.1227
     87  CA        18.1960  -55.9190   -4.9710 C.3   180  PHE180      0.1736
     88  C         17.8060  -54.5700   -4.3930 C.2   180  PHE180      0.2596
     89  O         16.9290  -54.4610   -3.5260 O.2   180  PHE180     -0.2718
     90  CB        17.6210  -56.1150   -6.3860 C.3   180  PHE180      0.0547
     91  CG        16.1140  -56.2050   -6.5360 C.ar  180  PHE180     -0.0202
     92  CD1       15.3150  -55.0710   -6.4170 C.ar  180  PHE180     -0.0042
     93  CD2       15.5070  -57.3940   -6.9310 C.ar  180  PHE180     -0.0042
     94  CE1       13.9340  -55.1520   -6.6140 C.ar  180  PHE180     -0.0003
     95  CE2       14.1300  -57.4620   -7.1550 C.ar  180  PHE180     -0.0003
     96  CZ        13.3500  -56.3560   -6.9540 C.ar  180  PHE180     -0.0000
     97  N         18.4200  -53.5390   -4.9550 N.am  181  CYS181     -0.1956
     98  CA        18.2690  -52.1360   -4.5980 C.3   181  CYS181      0.1843
     99  C         18.0940  -51.2750   -5.8710 C.2   181  CYS181      0.2626
    100  O         18.0630  -51.8110   -6.9820 O.2   181  CYS181     -0.2714
    101  CB        19.5000  -51.7110   -3.8070 C.3   181  CYS181      0.0997
    102  SG        19.1820  -50.5590   -2.4510 S.3   181  CYS181     -0.0797
    103  N         17.9600  -49.9440   -5.7100 N.am  182  SER182     -0.1936
    104  CA        17.8170  -48.9920   -6.8280 C.3   182  SER182      0.2055
    105  C         18.9810  -49.1830   -7.8050 C.2   182  SER182      0.2642
    106  O         20.1010  -49.4710   -7.3730 O.2   182  SER182     -0.2714
    107  CB        17.7920  -47.5450   -6.3280 C.3   182  SER182      0.2130
    108  OG        17.0550  -47.3560   -5.1310 O.3   182  SER182     -0.2179
    109  N         18.6970  -49.0340   -9.1170 N.am  183  ALA183     -0.1977
    110  CA        19.6050  -49.2230  -10.2690 C.3   183  ALA183      0.1597
    111  C         19.9700  -50.7070  -10.5400 C.2   183  ALA183      0.2287
    112  O         20.8800  -50.9960  -11.3200 O.2   183  ALA183     -0.2864
    113  CB        20.8450  -48.3270  -10.1750 C.3   183  ALA183      0.0319
    114  N         17.4140  -52.8450  -11.5050 N.3   185  SER185     -0.1217
    115  CA        16.3450  -53.2410  -12.4200 C.3   185  SER185      0.1889
    116  C         16.8640  -53.7650  -13.7300 C.2   185  SER185      0.2288
    117  O         17.8930  -53.2730  -14.2130 O.2   185  SER185     -0.2866
    118  CB        15.3980  -52.0840  -12.6780 C.3   185  SER185      0.2089
    119  OG        14.9510  -51.5220  -11.4600 O.3   185  SER185     -0.2183
    120  N         14.7650  -58.3100  -12.2630 N.3   199  VAL199     -0.1231
    121  CA        14.5600  -57.2720  -11.2320 C.3   199  VAL199      0.1692
    122  C         13.5580  -56.2010  -11.6770 C.2   199  VAL199      0.2593
    123  O         13.8880  -55.4020  -12.5550 O.2   199  VAL199     -0.2718
    124  CB        15.9260  -56.6400  -10.8250 C.3   199  VAL199      0.0266
    125  CG1       15.7430  -55.4950   -9.8460 C.3   199  VAL199      0.0020
    126  CG2       16.8950  -57.6780  -10.2670 C.3   199  VAL199      0.0020
    127  N         12.3420  -56.1970  -11.0790 N.am  200  SER200     -0.1938
    128  CA        11.2810  -55.2230  -11.3950 C.3   200  SER200      0.2055
    129  C         11.0810  -54.1440  -10.3090 C.2   200  SER200      0.2643
    130  O         11.4490  -52.9890  -10.5260 O.2   200  SER200     -0.2714
    131  CB         9.9620  -55.9150  -11.7180 C.3   200  SER200      0.2130
    132  OG         8.9070  -54.9740  -11.8640 O.3   200  SER200     -0.2179
    133  N         10.4720  -54.5110   -9.1760 N.am  201  PHE201     -0.1959
    134  CA        10.1870  -53.5950   -8.0770 C.3   201  PHE201      0.1771
    135  C         10.3480  -54.3150   -6.7600 C.2   201  PHE201      0.2620
    136  O         10.3930  -55.5510   -6.7340 O.2   201  PHE201     -0.2715
    137  CB         8.7660  -52.9810   -8.1990 C.3   201  PHE201      0.0574
    138  CG         7.5690  -53.9110   -8.0830 C.ar  201  PHE201     -0.0200
    139  CD1        6.8920  -54.0590   -6.8710 C.ar  201  PHE201     -0.0042
    140  CD2        7.0850  -54.5970   -9.1970 C.ar  201  PHE201     -0.0042
    141  CE1        5.7770  -54.9100   -6.7680 C.ar  201  PHE201     -0.0003
    142  CE2        5.9740  -55.4550   -9.0910 C.ar  201  PHE201     -0.0003
    143  CZ         5.3330  -55.6120   -7.8780 C.ar  201  PHE201     -0.0000
    144  N         10.3750  -53.5250   -5.6620 N.am  202  SER202     -0.1936
    145  CA        10.5490  -53.9010   -4.2630 C.3   202  SER202      0.2055
    146  C          9.8470  -52.8030   -3.4230 C.2   202  SER202      0.2644
    147  O          9.3150  -51.8460   -3.9970 O.2   202  SER202     -0.2714
    148  CB        12.0460  -53.9630   -3.9820 C.3   202  SER202      0.2130
    149  OG        12.4480  -53.6020   -2.6760 O.3   202  SER202     -0.2179
    150  N          9.8630  -52.9140   -2.0900 N.am  203  GLY203     -0.1939
    151  CA         9.2570  -51.8930   -1.2370 C.3   203  GLY203      0.2014
    152  C         10.0660  -50.6250   -1.0730 C.2   203  GLY203      0.2638
    153  O         10.8210  -50.2620   -1.9730 O.2   203  GLY203     -0.2714
    154  N          9.9400  -49.9500    0.0980 N.am  204  LEU204     -0.1977
    155  CA        10.6520  -48.6980    0.3610 C.3   204  LEU204      0.1596
    156  C         12.1360  -48.9300    0.5730 C.2   204  LEU204      0.2287
    157  O         12.9440  -48.4980   -0.2520 O.2   204  LEU204     -0.2864
    158  CB        10.0010  -47.8920    1.4930 C.3   204  LEU204      0.0297
    159  CG        10.6440  -46.5740    1.8830 C.3   204  LEU204      0.0022
    160  CD1       10.6580  -45.6090    0.7470 C.3   204  LEU204      0.0001
    161  CD2        9.9190  -45.9680    3.0480 C.3   204  LEU204      0.0001
    162  N         15.4860  -51.4130    0.8680 N.3   206  CYS206     -0.1235
    163  CA        16.0690  -52.5400    0.1440 C.3   206  CYS206      0.1677
    164  C         16.1390  -53.8490    0.9290 C.2   206  CYS206      0.2270
    165  O         16.6490  -53.8810    2.0490 O.2   206  CYS206     -0.2867
    166  CB        17.4160  -52.1500   -0.4580 C.3   206  CYS206      0.0956
    167  SG        17.2860  -50.9240   -1.7880 S.3   206  CYS206     -0.0801
@<TRIPOS>BOND
     1    27    28    1
     2    31    28    1
     3    31    32    1
     4    30    29    2
     5    28    29    1
     6    34    32   ar
     7    34    36   ar
     8    32    33   ar
     9    36    37   ar
    10    45    44    1
    11    45    39    1
    12    44    43    1
    13    33    35   ar
    14    66    65    1
    15    66    67    2
    16    17    18    1
    17    64    65    1
    18    65    68    1
    19    37    35   ar
    20    37    38    1
    21    39    40    1
    22    19    18    1
    23    19    20    2
    24    18    21    1
    25    43    40    1
    26    70    69   ar
    27     8    10   ar
    28     8     6   ar
    29    14    13    2
    30    40    41    1
    31     5     6    1
    32     5     2    1
    33    15    12    1
    34    15    16    1
    35    68    69    1
    36    10     9   ar
    37     6     7   ar
    38    69    71   ar
    39    21    22    1
    40    13    12    1
    41    42    41    2
    42    11    12    1
    43    11     3   am
    44     1     2    1
    45    41    46   am
    46     2     3    1
    47     9     7   ar
    48    22    23   ar
    49    22    24   ar
    50   117   116    2
    51     3     4    2
    52    23    25   ar
    53    57    56    2
    54    53    52    1
    55   116   115    1
    56    52    51    1
    57    56    55    1
    58    24    26   ar
    59    46    47    1
    60    25    26   ar
    61    55    54    1
    62    55    58    1
    63   118   115    1
    64   118   119    1
    65    51    50    1
    66   123   122    2
    67   115   114    1
    68    50    47    1
    69   120   121    1
    70    47    48    1
    71   132   131    1
    72    58    59    1
    73   131   128    1
    74   122   121    1
    75   122   127   am
    76    48    49    2
    77    60    59   ar
    78    60    62   ar
    79   128   127    1
    80   128   129    1
    81   112   111    2
    82   121   124    1
    83    59    61   ar
    84   124   126    1
    85   124   125    1
    86    62    63   ar
    87   111   110    1
    88   130   129    2
    89   129   133   am
    90   110   113    1
    91   110   109    1
    92    61    63   ar
    93   140   142   ar
    94   140   138   ar
    95   133   134    1
    96   109   105   am
    97   142   143   ar
    98   137   138    1
    99   137   134    1
   100   138   139   ar
   101   134   135    1
   102   143   141   ar
   103   105   106    2
   104   105   104    1
   105    95    96   ar
   106    95    93   ar
   107   100    99    2
   108    96    94   ar
   109    93    91   ar
   110   139   141   ar
   111   104   107    1
   112   104   103    1
   113   135   136    2
   114   135   144   am
   115    94    92   ar
   116    91    92   ar
   117    91    90    1
   118    90    87    1
   119   107   108    1
   120    99   103   am
   121    99    98    1
   122   144   145    1
   123    87    88    1
   124    87    86    1
   125    97    98    1
   126    97    88   am
   127    98   101    1
   128    88    89    2
   129   145   148    1
   130   145   146    1
   131   147   146    2
   132   148   149    1
   133   101   102    1
   134   146   150   am
   135    84    85   ar
   136    84    82   ar
   137    85    83   ar
   138    82    79   ar
   139    83    81   ar
   140    79    81   ar
   141    79    77   ar
   142    81    80   ar
   143    77    76    1
   144    77    78   ar
   145    76    73    1
   146    75    74    2
   147    80    78   ar
   148   102   167    1
   149   150   151    1
   150   153   152    2
   151   167   166    1
   152    74    73    1
   153    73    72    1
   154   151   152    1
   155   152   154   am
   156   166   163    1
   157   157   156    2
   158   154   155    1
   159   163   162    1
   160   163   164    1
   161   155   156    1
   162   155   158    1
   163   160   159    1
   164   164   165    2
   165   158   159    1
   166   159   161    1
