@<TRIPOS>MOLECULE
tmp/4q81A00.pdb
 153 148 0 0 0
SMALL
GASTEIGER

@<TRIPOS>ATOM
      1  N         29.4520   -0.7020   10.4790 N.3     2  TRP2       -0.1241
      2  CA        28.7660   -1.6710   11.3030 C.3     2  TRP2        0.1605
      3  C         27.7960   -2.4810   10.4890 C.2     2  TRP2        0.2264
      4  O         27.2100   -2.0250    9.4720 O.2     2  TRP2       -0.2867
      5  CB        28.0760   -0.9850   12.5050 C.3     2  TRP2        0.0550
      6  CG        26.8480   -0.1960   12.1230 C.ar    2  TRP2        0.0003
      7  CD1       26.7860    1.1660   11.7500 C.ar    2  TRP2        0.0946
      8  CD2       25.4770   -0.6790   12.0520 C.ar    2  TRP2        0.0152
      9  NE1       25.4730    1.5090   11.4680 N.ar    2  TRP2       -0.2442
     10  CE2       24.6660    0.4120   11.6400 C.ar    2  TRP2        0.0810
     11  CE3       24.8610   -1.9320   12.2800 C.ar    2  TRP2        0.0012
     12  CZ2       23.2760    0.3160   11.4670 C.ar    2  TRP2        0.0191
     13  CZ3       23.4020   -2.0070   12.0800 C.ar    2  TRP2        0.0001
     14  CH2       22.6690   -0.8730   11.7200 C.ar    2  TRP2        0.0015
     15  N         17.8650    0.0630    3.5990 N.3    59  ASN59      -0.1240
     16  CA        19.0170    0.8940    4.0240 C.3    59  ASN59       0.1653
     17  C         20.2930    0.1470    4.2460 C.2    59  ASN59       0.2266
     18  O         21.3000    0.6460    4.8200 O.2    59  ASN59      -0.2867
     19  CB        18.6510    1.7920    5.2430 C.3    59  ASN59       0.1155
     20  CG        18.3120    0.9420    6.4760 C.2    59  ASN59       0.2627
     21  OD1       18.6600   -0.2250    6.5040 O.2    59  ASN59      -0.2716
     22  ND2       17.6020    1.5180    7.4110 N.am   59  ASN59      -0.0877
     23  N         20.5650   -2.3880    6.2220 N.3    61  HIS61      -0.1226
     24  CA        20.4530   -3.0390    7.5490 C.3    61  HIS61       0.1752
     25  C         19.0620   -3.6840    7.7240 C.2    61  HIS61       0.2595
     26  O         18.9420   -4.8110    8.2760 O.2    61  HIS61      -0.2718
     27  CB        20.7590   -2.0070    8.6470 C.3    61  HIS61       0.0759
     28  CG        22.0630   -1.2750    8.4280 C.ar   61  HIS61       0.0818
     29  ND1       23.2870   -1.8900    8.5920 N.ar   61  HIS61      -0.2268
     30  CD2       22.3230    0.0050    8.0750 C.ar   61  HIS61       0.1154
     31  CE1       24.2560   -1.0120    8.3580 C.ar   61  HIS61       0.1986
     32  NE2       23.6960    0.1490    8.0530 N.ar   61  HIS61      -0.2212
     33  N         18.0510   -2.9980    7.2710 N.am   62  ALA62      -0.1980
     34  CA        16.6660   -3.4810    7.2800 C.3    62  ALA62       0.1597
     35  C         15.9590   -2.7100    6.1930 C.2    62  ALA62       0.2287
     36  O         16.6360   -2.1200    5.3480 O.2    62  ALA62      -0.2864
     37  CB        15.9940   -3.2780    8.6700 C.3    62  ALA62       0.0319
     38  N         12.9030    0.4020    5.8970 N.3    64  ASN64      -0.1240
     39  CA        12.0840    1.3220    6.6270 C.3    64  ASN64       0.1653
     40  C         10.8540    1.6870    5.8310 C.2    64  ASN64       0.2266
     41  O         10.9950    2.0710    4.6770 O.2    64  ASN64      -0.2867
     42  CB        12.8550    2.6290    6.9760 C.3    64  ASN64       0.1155
     43  CG        13.9610    2.4280    7.9510 C.2    64  ASN64       0.2627
     44  OD1       14.0060    1.4200    8.6680 O.2    64  ASN64      -0.2716
     45  ND2       14.9070    3.3790    7.9990 N.am   64  ASN64      -0.0877
     46  N          8.5100    6.1870   11.2830 N.3    89  GLN89      -0.1245
     47  CA         8.8400    5.0630   10.4050 C.3    89  GLN89       0.1566
     48  C          8.6180    3.7840   11.1660 C.2    89  GLN89       0.2260
     49  O          8.4810    3.8250   12.4100 O.2    89  GLN89      -0.2867
     50  CB        10.3010    5.1060    9.9630 C.3    89  GLN89       0.0367
     51  CG        11.3100    5.0890   11.0790 C.3    89  GLN89       0.0905
     52  CD        12.0560    3.7370   11.2110 C.2    89  GLN89       0.2608
     53  OE1       11.4560    2.6950   11.3580 O.2    89  GLN89      -0.2717
     54  NE2       13.3840    3.7650   11.0470 N.am   89  GLN89      -0.0878
     55  N         10.0140   -0.5190   10.9470 N.3    91  HIS91      -0.1241
     56  CA        10.9430   -1.4900   10.3610 C.3    91  HIS91       0.1621
     57  C         10.8310   -2.7630   11.1600 C.2    91  HIS91       0.2264
     58  O         10.1900   -2.7870   12.2070 O.2    91  HIS91      -0.2867
     59  CB        12.4060   -0.9980   10.3270 C.3    91  HIS91       0.0745
     60  CG        12.9400   -0.7240   11.6890 C.ar   91  HIS91       0.0817
     61  ND1       12.7110    0.4650   12.3710 N.ar   91  HIS91      -0.2268
     62  CD2       13.5960   -1.5360   12.5430 C.ar   91  HIS91       0.1154
     63  CE1       13.2170    0.3630   13.5830 C.ar   91  HIS91       0.1986
     64  NE2       13.7640   -0.8440   13.7100 N.ar   91  HIS91      -0.2212
     65  N         13.1020   -6.4920   12.4710 N.3    93  HIS93      -0.1241
     66  CA        14.2940   -7.3150   12.7010 C.3    93  HIS93       0.1621
     67  C         13.8810   -8.7900   12.5610 C.2    93  HIS93       0.2264
     68  O         12.7940   -9.1160   13.1020 O.2    93  HIS93      -0.2867
     69  CB        14.9050   -7.0770   14.0660 C.3    93  HIS93       0.0745
     70  CG        15.2200   -5.6230   14.3450 C.ar   93  HIS93       0.0817
     71  ND1       16.4530   -5.0930   14.0160 N.ar   93  HIS93      -0.2268
     72  CD2       14.4460   -4.5710   14.7380 C.ar   93  HIS93       0.1154
     73  CE1       16.4870   -3.8220   14.3920 C.ar   93  HIS93       0.1986
     74  NE2       15.2580   -3.4550   14.7640 N.ar   93  HIS93      -0.2212
     75  N          9.1380   -2.7530   14.8740 N.3   116  HIS116     -0.1241
     76  CA         9.3960   -1.5310   15.6610 C.3   116  HIS116      0.1621
     77  C          8.7320   -0.3750   14.9690 C.2   116  HIS116      0.2264
     78  O          9.1550    0.0220   13.8370 O.2   116  HIS116     -0.2867
     79  CB        10.9110   -1.2620   15.6910 C.3   116  HIS116      0.0745
     80  CG        11.6080   -2.2440   16.5820 C.ar  116  HIS116      0.0817
     81  ND1       12.9770   -2.3880   16.6350 N.ar  116  HIS116     -0.2268
     82  CD2       11.1120   -3.1150   17.4830 C.ar  116  HIS116      0.1154
     83  CE1       13.2960   -3.3120   17.5280 C.ar  116  HIS116      0.1986
     84  NE2       12.1730   -3.8120   18.0490 N.ar  116  HIS116     -0.2212
     85  N          8.4380    3.4460   15.2110 N.3   118  VAL118     -0.1245
     86  CA         9.2570    4.4810   15.8890 C.3   118  VAL118      0.1561
     87  C          8.5450    5.8340   15.9000 C.2   118  VAL118      0.2260
     88  O          8.0620    6.2870   14.8430 O.2   118  VAL118     -0.2867
     89  CB        10.5540    4.6640   15.1410 C.3   118  VAL118      0.0252
     90  CG1       11.4130    5.7620   15.7850 C.3   118  VAL118      0.0019
     91  CG2       11.3260    3.3190   15.0040 C.3   118  VAL118      0.0019
     92  N         12.6310   14.8630   14.8370 N.3   127  PHE127     -0.1241
     93  CA        13.2790   13.5930   15.2500 C.3   127  PHE127      0.1605
     94  C         14.7060   13.8670   15.6180 C.2   127  PHE127      0.2264
     95  O         15.1810   13.3030   16.5880 O.2   127  PHE127     -0.2867
     96  CB        13.2060   12.5800   14.0560 C.3   127  PHE127      0.0534
     97  CG        13.9260   11.2710   14.2890 C.ar  127  PHE127     -0.0203
     98  CD1       13.2650   10.2020   14.9450 C.ar  127  PHE127     -0.0042
     99  CD2       15.2460   11.1030   13.8910 C.ar  127  PHE127     -0.0042
    100  CE1       13.9270    9.0230   15.1480 C.ar  127  PHE127     -0.0003
    101  CE2       15.8650    9.9420   14.1100 C.ar  127  PHE127     -0.0003
    102  CZ        15.2230    8.9080   14.7560 C.ar  127  PHE127     -0.0000
    103  N         12.0770    9.3850   22.2970 N.3   137  LEU137     -0.1245
    104  CA        11.4640    8.4120   21.4180 C.3   137  LEU137      0.1561
    105  C         10.5230    7.5060   22.2050 C.2   137  LEU137      0.2260
    106  O         10.7680    7.2010   23.3640 O.2   137  LEU137     -0.2867
    107  CB        12.5040    7.5690   20.6420 C.3   137  LEU137      0.0270
    108  CG        13.3820    8.3720   19.6960 C.3   137  LEU137      0.0019
    109  CD1       14.1890    7.2810   18.9760 C.3   137  LEU137      0.0001
    110  CD2       12.7180    9.1610   18.6280 C.3   137  LEU137      0.0001
    111  N          9.1070    3.5970   21.1670 N.3   139  VAL139     -0.1245
    112  CA         9.0820    2.5570   20.1300 C.3   139  VAL139      0.1561
    113  C          8.0970    1.5170   20.6060 C.2   139  VAL139      0.2260
    114  O          8.2210    0.9860   21.7310 O.2   139  VAL139     -0.2867
    115  CB        10.4480    1.9750   19.8200 C.3   139  VAL139      0.0252
    116  CG1       10.3540    0.9250   18.6620 C.3   139  VAL139      0.0019
    117  CG2       11.3530    3.1100   19.4050 C.3   139  VAL139      0.0019
    118  N         17.9190    2.8100   21.0680 N.3   194  LEU194     -0.1231
    119  CA        17.8540    2.2120   19.6980 C.3   194  LEU194      0.1693
    120  C         18.6130    0.8810   19.7700 C.2   194  LEU194      0.2593
    121  O         19.6270    0.7270   20.5160 O.2   194  LEU194     -0.2718
    122  CB        18.5910    3.0730   18.6760 C.3   194  LEU194      0.0284
    123  CG        18.2450    4.5420   18.6610 C.3   194  LEU194      0.0019
    124  CD1       19.0220    5.3040   17.4980 C.3   194  LEU194      0.0001
    125  CD2       16.7590    4.7680   18.4290 C.3   194  LEU194      0.0001
    126  N         18.2120   -0.0760   18.9600 N.am  195  THR195     -0.1939
    127  CA        18.9060   -1.4030   18.9790 C.3   195  THR195      0.2028
    128  C         19.9500   -1.4440   17.8440 C.2   195  THR195      0.2642
    129  O         20.6540   -2.4460   17.6780 O.2   195  THR195     -0.2714
    130  CB        17.9160   -2.5560   18.8380 C.3   195  THR195      0.1808
    131  OG1       17.2650   -2.4620   17.5660 O.3   195  THR195     -0.2208
    132  CG2       16.8710   -2.5040   19.9520 C.3   195  THR195      0.0379
    133  N         20.0080   -0.3710   17.0480 N.am  196  THR196     -0.1950
    134  CA        21.0760   -0.2600   16.0300 C.3   196  THR196      0.1897
    135  C         21.9200    0.9960   16.2840 C.2   196  THR196      0.2313
    136  O         21.4260    2.0000   16.8430 O.2   196  THR196     -0.2863
    137  CB        20.4190   -0.0900   14.6710 C.3   196  THR196      0.1794
    138  OG1       19.2820    0.7750   14.7990 O.3   196  THR196     -0.2208
    139  CG2       19.9630   -1.4020   14.1900 C.3   196  THR196      0.0378
    140  N         10.5070    2.1020   25.6790 N.3   205  TRP205     -0.1241
    141  CA        10.0290    0.9140   24.9690 C.3   205  TRP205      0.1605
    142  C          8.6780    0.4720   25.4810 C.2   205  TRP205      0.2264
    143  O          8.4150    0.4470   26.6760 O.2   205  TRP205     -0.2867
    144  CB        11.0120   -0.2880   25.1890 C.3   205  TRP205      0.0550
    145  CG        12.1570   -0.1880   24.2230 C.ar  205  TRP205      0.0003
    146  CD1       13.4260    0.3780   24.4270 C.ar  205  TRP205      0.0946
    147  CD2       12.1280   -0.6120   22.8500 C.ar  205  TRP205      0.0152
    148  NE1       14.1410    0.3520   23.2560 N.ar  205  TRP205     -0.2442
    149  CE2       13.3890   -0.2780   22.2680 C.ar  205  TRP205      0.0810
    150  CE3       11.1300   -1.1960   22.0380 C.ar  205  TRP205      0.0012
    151  CZ2       13.6830   -0.5130   20.9330 C.ar  205  TRP205      0.0191
    152  CZ3       11.4090   -1.4680   20.7650 C.ar  205  TRP205      0.0001
    153  CH2       12.6820   -1.1670   20.1810 C.ar  205  TRP205      0.0015
@<TRIPOS>BOND
     1    15    16    1
     2    16    17    1
     3    16    19    1
     4    17    18    2
     5    41    40    2
     6    19    20    1
     7    36    35    2
     8    40    39    1
     9    38    39    1
    10    35    34    1
    11    23    24    1
    12    20    21    2
    13    20    22   am
    14    39    42    1
    15    42    43    1
    16    33    34    1
    17    33    25   am
    18    34    37    1
    19    24    25    1
    20    24    27    1
    21    25    26    2
    22    43    45   am
    23    43    44    2
    24    32    30   ar
    25    32    31   ar
    26    30    28   ar
    27    31    29   ar
    28    28    29   ar
    29    28    27    1
    30     4     3    2
    31    50    47    1
    32    50    51    1
    33    59    56    1
    34    59    60    1
    35    56    55    1
    36    56    57    1
    37    47    48    1
    38    47    46    1
    39     1     2    1
    40     3     2    1
    41    54    52   am
    42    51    52    1
    43    57    58    2
    44    48    49    2
    45    52    53    2
    46     2     5    1
    47    12    10   ar
    48    12    14   ar
    49     9    10   ar
    50     9     7   ar
    51    10     8   ar
    52    60    61   ar
    53    60    62   ar
    54    14    13   ar
    55     7     6   ar
    56     8     6   ar
    57     8    11   ar
    58    13    11   ar
    59     6     5    1
    60    61    63   ar
    61    65    66    1
    62    62    64   ar
    63    67    66    1
    64    67    68    2
    65    66    69    1
    66    63    64   ar
    67    78    77    2
    68    99   101   ar
    69    99    97   ar
    70    71    70   ar
    71    71    73   ar
    72    96    97    1
    73    96    93    1
    74    69    70    1
    75   101   102   ar
    76   139   137    1
    77    97    98   ar
    78    70    72   ar
    79    73    74   ar
    80   137   138    1
    81   137   134    1
    82    72    74   ar
    83   102   100   ar
    84    92    93    1
    85    88    87    2
    86    75    76    1
    87    98   100   ar
    88    77    76    1
    89    91    89    1
    90    89    90    1
    91    89    86    1
    92    85    86    1
    93    93    94    1
    94    94    95    2
    95    76    79    1
    96    79    80    1
    97    86    87    1
    98   134   135    1
    99   134   133    1
   100   135   136    2
   101    80    81   ar
   102    80    82   ar
   103    81    83   ar
   104   133   128   am
   105    82    84   ar
   106   124   123    1
   107    83    84   ar
   108   131   130    1
   109   129   128    2
   110   128   127    1
   111   125   123    1
   112   110   108    1
   113   123   122    1
   114   116   115    1
   115   122   119    1
   116   130   127    1
   117   130   132    1
   118   126   127    1
   119   126   120   am
   120   109   108    1
   121   117   115    1
   122   108   107    1
   123   119   120    1
   124   119   118    1
   125   120   121    2
   126   115   112    1
   127   112   113    1
   128   112   111    1
   129   153   152   ar
   130   153   151   ar
   131   113   114    2
   132   107   104    1
   133   152   150   ar
   134   151   149   ar
   135   104   105    1
   136   104   103    1
   137   150   147   ar
   138   105   106    2
   139   149   147   ar
   140   149   148   ar
   141   147   145   ar
   142   148   146   ar
   143   145   146   ar
   144   145   144    1
   145   141   144    1
   146   141   142    1
   147   141   140    1
   148   142   143    2
