@<TRIPOS>MOLECULE
tmp/4q83A00.pdb
 128 124 0 0 0
SMALL
GASTEIGER

@<TRIPOS>ATOM
      1  N          8.4760    6.1030   11.2340 N.3    89  GLN89      -0.1245
      2  CA         8.7320    4.9720   10.3870 C.3    89  GLN89       0.1566
      3  C          8.4970    3.6880   11.1100 C.2    89  GLN89       0.2260
      4  O          8.3830    3.6910   12.3670 O.2    89  GLN89      -0.2867
      5  CB        10.2030    5.0130    9.8670 C.3    89  GLN89       0.0367
      6  CG        11.2690    5.0480   10.9940 C.3    89  GLN89       0.0905
      7  CD        11.9960    3.7200   11.1390 C.2    89  GLN89       0.2608
      8  OE1       11.4130    2.6560   11.1940 O.2    89  GLN89      -0.2717
      9  NE2       13.3220    3.7940   11.1980 N.am   89  GLN89      -0.0878
     10  N          9.9260   -0.5870   10.9420 N.3    91  HIS91      -0.1241
     11  CA        10.8210   -1.5620   10.3330 C.3    91  HIS91       0.1621
     12  C         10.7090   -2.8440   11.1670 C.2    91  HIS91       0.2264
     13  O         10.0570   -2.8920   12.2000 O.2    91  HIS91      -0.2867
     14  CB        12.2870   -1.0300   10.2950 C.3    91  HIS91       0.0745
     15  CG        12.8260   -0.7380   11.6540 C.ar   91  HIS91       0.0817
     16  ND1       12.6150    0.4730   12.3130 N.ar   91  HIS91      -0.2268
     17  CD2       13.4020   -1.5710   12.5410 C.ar   91  HIS91       0.1154
     18  CE1       13.1170    0.3570   13.5500 C.ar   91  HIS91       0.1986
     19  NE2       13.6470   -0.8670   13.6890 N.ar   91  HIS91      -0.2212
     20  N         13.0820   -6.5250   12.5560 N.3    93  HIS93      -0.1241
     21  CA        14.3380   -7.3090   12.7090 C.3    93  HIS93       0.1621
     22  C         13.9060   -8.7720   12.6210 C.2    93  HIS93       0.2264
     23  O         12.7840   -9.0850   13.1270 O.2    93  HIS93      -0.2867
     24  CB        14.9790   -7.0690   14.0860 C.3    93  HIS93       0.0745
     25  CG        15.2400   -5.6120   14.3910 C.ar   93  HIS93       0.0817
     26  ND1       16.5030   -5.0740   14.2050 N.ar   93  HIS93      -0.2268
     27  CD2       14.4190   -4.5830   14.7410 C.ar   93  HIS93       0.1154
     28  CE1       16.4580   -3.7810   14.5890 C.ar   93  HIS93       0.1986
     29  NE2       15.1990   -3.4430   14.8670 N.ar   93  HIS93      -0.2212
     30  N          9.1040   -2.7880   14.8430 N.3   116  HIS116     -0.1241
     31  CA         9.3420   -1.5870   15.6290 C.3   116  HIS116      0.1621
     32  C          8.6760   -0.4570   14.9130 C.2   116  HIS116      0.2264
     33  O          9.0800    0.0110   13.8040 O.2   116  HIS116     -0.2867
     34  CB        10.8510   -1.2780   15.7030 C.3   116  HIS116      0.0745
     35  CG        11.5410   -2.2680   16.6090 C.ar  116  HIS116      0.0817
     36  ND1       12.9040   -2.4650   16.6120 N.ar  116  HIS116     -0.2268
     37  CD2       11.0370   -3.1430   17.5110 C.ar  116  HIS116      0.1154
     38  CE1       13.2170   -3.3900   17.5030 C.ar  116  HIS116      0.1986
     39  NE2       12.1050   -3.7990   18.1060 N.ar  116  HIS116     -0.2212
     40  N          8.2490    3.4180   15.1360 N.3   118  VAL118     -0.1245
     41  CA         9.1300    4.4860   15.7660 C.3   118  VAL118      0.1561
     42  C          8.4260    5.8310   15.8350 C.2   118  VAL118      0.2260
     43  O          7.9280    6.3100   14.8320 O.2   118  VAL118     -0.2867
     44  CB        10.4510    4.5900   14.9930 C.3   118  VAL118      0.0252
     45  CG1       11.4150    5.6310   15.6650 C.3   118  VAL118      0.0019
     46  CG2       11.1090    3.2510   14.7800 C.3   118  VAL118      0.0019
     47  N         12.7560   14.9420   14.7510 N.3   127  PHE127     -0.1241
     48  CA        13.3970   13.6990   15.1370 C.3   127  PHE127      0.1605
     49  C         14.8100   13.9280   15.5520 C.2   127  PHE127      0.2264
     50  O         15.2690   13.3250   16.5410 O.2   127  PHE127     -0.2867
     51  CB        13.3500   12.7230   13.9420 C.3   127  PHE127      0.0534
     52  CG        13.9770   11.3650   14.2260 C.ar  127  PHE127     -0.0203
     53  CD1       13.2270   10.3620   14.8030 C.ar  127  PHE127     -0.0042
     54  CD2       15.3570   11.1490   14.0170 C.ar  127  PHE127     -0.0042
     55  CE1       13.8170    9.1400   15.0770 C.ar  127  PHE127     -0.0003
     56  CE2       15.9330    9.9070   14.2580 C.ar  127  PHE127     -0.0003
     57  CZ        15.1910    8.9390   14.8280 C.ar  127  PHE127     -0.0000
     58  N         12.1520    9.3820   22.1760 N.3   137  LEU137     -0.1245
     59  CA        11.5060    8.4420   21.2720 C.3   137  LEU137      0.1561
     60  C         10.6180    7.5010   22.0670 C.2   137  LEU137      0.2260
     61  O         10.8750    7.2030   23.2530 O.2   137  LEU137     -0.2867
     62  CB        12.5540    7.5110   20.5600 C.3   137  LEU137      0.0270
     63  CG        13.5100    8.3330   19.6890 C.3   137  LEU137      0.0019
     64  CD1       14.3690    7.3760   18.9670 C.3   137  LEU137      0.0001
     65  CD2       12.8350    9.1730   18.5850 C.3   137  LEU137      0.0001
     66  N          9.1060    3.5990   21.1060 N.3   139  VAL139     -0.1245
     67  CA         9.0130    2.5770   20.1020 C.3   139  VAL139      0.1561
     68  C          8.0610    1.4850   20.5880 C.2   139  VAL139      0.2260
     69  O          8.1730    1.0010   21.7100 O.2   139  VAL139     -0.2867
     70  CB        10.3570    1.9480   19.8370 C.3   139  VAL139      0.0252
     71  CG1       10.2610    0.9320   18.6880 C.3   139  VAL139      0.0019
     72  CG2       11.3700    3.0190   19.3530 C.3   139  VAL139      0.0019
     73  N         17.1490    1.9790   24.5190 N.3   193  SER193     -0.1202
     74  CA        17.9350    2.6050   23.4830 C.3   193  SER193      0.2020
     75  C         17.5120    2.1610   22.0540 C.2   193  SER193      0.2619
     76  O         16.7570    1.1930   21.8810 O.2   193  SER193     -0.2717
     77  CB        19.4400    2.2070   23.6500 C.3   193  SER193      0.2103
     78  OG        19.7000    0.8400   23.2360 O.3   193  SER193     -0.2182
     79  N         18.0890    2.8150   21.0480 N.am  194  LEU194     -0.1965
     80  CA        18.0750    2.2910   19.6950 C.3   194  LEU194      0.1728
     81  C         18.7910    0.9120   19.8030 C.2   194  LEU194      0.2617
     82  O         19.8360    0.7730   20.5100 O.2   194  LEU194     -0.2715
     83  CB        18.9480    3.1240   18.7600 C.3   194  LEU194      0.0311
     84  CG        18.6770    4.5690   18.4910 C.3   194  LEU194      0.0022
     85  CD1       19.3010    5.0260   17.1160 C.3   194  LEU194      0.0001
     86  CD2       17.4830    5.3100   18.9630 C.3   194  LEU194      0.0001
     87  N         18.3850   -0.0290   18.9570 N.am  195  THR195     -0.1937
     88  CA        19.0680   -1.3150   18.9790 C.3   195  THR195      0.2028
     89  C         20.0600   -1.4120   17.8810 C.2   195  THR195      0.2643
     90  O         20.7080   -2.4530   17.7420 O.2   195  THR195     -0.2714
     91  CB        18.0560   -2.4720   18.8670 C.3   195  THR195      0.1808
     92  OG1       17.3430   -2.3760   17.6250 O.3   195  THR195     -0.2208
     93  CG2       17.0640   -2.4220   20.0220 C.3   195  THR195      0.0379
     94  N         20.2320   -0.3800   17.0220 N.am  196  THR196     -0.1937
     95  CA        21.3320   -0.3050   16.0580 C.3   196  THR196      0.2013
     96  C         22.1860    0.8880   16.3770 C.2   196  THR196      0.2484
     97  O         21.7210    1.8640   16.9830 O.2   196  THR196     -0.2729
     98  CB        20.7900   -0.1090   14.6440 C.3   196  THR196      0.1807
     99  OG1       20.0500    1.1200   14.5840 O.3   196  THR196     -0.2208
    100  CG2       19.8670   -1.2350   14.2130 C.3   196  THR196      0.0379
    101  N         23.4610    0.8960   15.8880 N.am  197  PRO197     -0.2726
    102  CA        24.2050    2.1180   16.0000 C.3   197  PRO197      0.1402
    103  C         23.3370    3.2870   15.4290 C.2   197  PRO197      0.2269
    104  O         22.6860    3.1360   14.3490 O.2   197  PRO197     -0.2865
    105  CB        25.4540    1.8050   15.1420 C.3   197  PRO197      0.0296
    106  CG        25.6800    0.2720   15.4700 C.3   197  PRO197      0.0237
    107  CD        24.2250   -0.2310   15.3370 C.3   197  PRO197      0.0939
    108  N         14.9650    6.0530   24.2610 N.3   203  VAL203     -0.1245
    109  CA        13.6980    5.3540   23.9010 C.3   203  VAL203      0.1561
    110  C         12.9220    4.8630   25.1200 C.2   203  VAL203      0.2260
    111  O         13.4910    4.1320   26.0010 O.2   203  VAL203     -0.2867
    112  CB        14.0120    4.0550   23.0940 C.3   203  VAL203      0.0252
    113  CG1       12.6830    3.3160   22.7220 C.3   203  VAL203      0.0019
    114  CG2       14.7830    4.3800   21.7710 C.3   203  VAL203      0.0019
    115  N         10.5600    2.0680   25.6670 N.3   205  TRP205     -0.1241
    116  CA        10.1170    0.8960   24.9430 C.3   205  TRP205      0.1605
    117  C          8.7730    0.4530   25.4670 C.2   205  TRP205      0.2264
    118  O          8.5410    0.4300   26.6700 O.2   205  TRP205     -0.2867
    119  CB        11.1250   -0.2530   25.1460 C.3   205  TRP205      0.0550
    120  CG        12.2460   -0.1610   24.1810 C.ar  205  TRP205      0.0003
    121  CD1       13.5000    0.3870   24.3480 C.ar  205  TRP205      0.0946
    122  CD2       12.1780   -0.5540   22.7740 C.ar  205  TRP205      0.0152
    123  NE1       14.2150    0.3690   23.1550 N.ar  205  TRP205     -0.2442
    124  CE2       13.4380   -0.2500   22.1710 C.ar  205  TRP205      0.0810
    125  CE3       11.1930   -1.1650   22.0020 C.ar  205  TRP205      0.0012
    126  CZ2       13.7220   -0.5670   20.8310 C.ar  205  TRP205      0.0191
    127  CZ3       11.4550   -1.4530   20.7100 C.ar  205  TRP205      0.0001
    128  CH2       12.7070   -1.1270   20.1070 C.ar  205  TRP205      0.0015
@<TRIPOS>BOND
     1     5     2    1
     2     5     6    1
     3    14    11    1
     4    14    15    1
     5    11    10    1
     6    11    12    1
     7     2     3    1
     8     2     1    1
     9     6     7    1
    10     3     4    2
    11     7     8    2
    12     7     9   am
    13    12    13    2
    14    15    16   ar
    15    15    17   ar
    16    16    18   ar
    17    17    19   ar
    18    20    21    1
    19    22    21    1
    20    22    23    2
    21    21    24    1
    22    18    19   ar
    23    33    32    2
    24    51    52    1
    25    51    48    1
    26    54    52   ar
    27    54    56   ar
    28    24    25    1
    29    26    25   ar
    30    26    28   ar
    31   100    98    1
    32    52    53   ar
    33    56    57   ar
    34   104   103    2
    35    25    27   ar
    36    99    98    1
    37    28    29   ar
    38    98    95    1
    39    27    29   ar
    40    47    48    1
    41    46    44    1
    42    53    55   ar
    43    57    55   ar
    44    43    42    2
    45    30    31    1
    46    32    31    1
    47    44    45    1
    48    44    41    1
    49    40    41    1
    50    48    49    1
    51   105   106    1
    52   105   102    1
    53   107   106    1
    54   107   101    1
    55   103   102    1
    56    49    50    2
    57    31    34    1
    58    34    35    1
    59    41    42    1
    60   101   102    1
    61   101    96   am
    62    95    96    1
    63    95    94    1
    64    96    97    2
    65    35    36   ar
    66    35    37   ar
    67    36    38   ar
    68    94    89   am
    69    85    84    1
    70    38    39   ar
    71    37    39   ar
    72    92    91    1
    73    90    89    2
    74    89    88    1
    75    84    83    1
    76    84    86    1
    77    65    63    1
    78    71    70    1
    79    83    80    1
    80    91    88    1
    81    91    93    1
    82    87    88    1
    83    87    81   am
    84    64    63    1
    85    72    70    1
    86    63    62    1
    87    80    81    1
    88    80    79    1
    89    81    82    2
    90    70    67    1
    91    67    68    1
    92    67    66    1
    93   128   127   ar
    94   128   126   ar
    95    62    59    1
    96    68    69    2
    97   127   125   ar
    98   126   124   ar
    99    79    75   am
   100    59    60    1
   101    59    58    1
   102   114   112    1
   103    76    75    2
   104   125   122   ar
   105    75    74    1
   106    60    61    2
   107   124   122   ar
   108   124   123   ar
   109   113   112    1
   110   122   120   ar
   111   112   109    1
   112   123   121   ar
   113    78    77    1
   114    74    77    1
   115    74    73    1
   116   109   108    1
   117   109   110    1
   118   120   121   ar
   119   120   119    1
   120   116   119    1
   121   116   117    1
   122   116   115    1
   123   110   111    2
   124   117   118    2
