@<TRIPOS>MOLECULE
tmp/4q85E00.pdb
 214 195 0 0 0
SMALL
GASTEIGER

@<TRIPOS>ATOM
      1  N        114.0630   26.5300  -17.8490 N.3     5  ILE5       -0.1245
      2  CA       113.2260   25.8140  -18.7370 C.3     5  ILE5        0.1561
      3  C        112.2710   26.8170  -19.4090 C.2     5  ILE5        0.2260
      4  O        112.0140   27.8770  -18.8790 O.2     5  ILE5       -0.2867
      5  CB       112.6540   24.6220  -17.8960 C.3     5  ILE5        0.0252
      6  CG1      113.2150   23.3320  -18.5140 C.3     5  ILE5        0.0019
      7  CG2      111.1460   24.6130  -17.8100 C.3     5  ILE5        0.0019
      8  CD1      112.4690   22.0720  -18.1610 C.3     5  ILE5        0.0001
      9  N        108.9360   29.0690  -17.6770 N.3     8  LYS8       -0.1245
     10  CA       109.1150   29.3750  -16.2510 C.3     8  LYS8        0.1561
     11  C        109.9090   30.6710  -16.0710 C.2     8  LYS8        0.2260
     12  O        110.6030   31.0650  -16.9770 O.2     8  LYS8       -0.2867
     13  CB       109.8270   28.2110  -15.5430 C.3     8  LYS8        0.0271
     14  CG       108.8640   27.1000  -15.0970 C.3     8  LYS8        0.0035
     15  CD       107.9350   26.6880  -16.2380 C.3     8  LYS8        0.0206
     16  CE       106.8690   25.6820  -15.8210 C.3     8  LYS8        0.1093
     17  NZ       106.0150   26.0950  -14.6530 N.3     8  LYS8       -0.1314
     18  N        112.0620   31.4200  -13.4880 N.3    10  ALA10      -0.1245
     19  CA       113.1190   31.2540  -12.4860 C.3    10  ALA10       0.1562
     20  C        113.7850   29.9000  -12.6310 C.2    10  ALA10       0.2260
     21  O        113.1060   28.8830  -12.8830 O.2    10  ALA10      -0.2867
     22  CB       112.5090   31.3410  -11.1160 C.3    10  ALA10       0.0290
     23  N        115.0730   26.2360  -12.1510 N.3    12  LEU12      -0.1245
     24  CA       114.5560   25.0750  -11.3990 C.3    12  LEU12       0.1561
     25  C        115.1830   24.9150  -10.0100 C.2    12  LEU12       0.2260
     26  O        114.4890   24.6600   -9.0240 O.2    12  LEU12      -0.2867
     27  CB       114.8140   23.7820  -12.1590 C.3    12  LEU12       0.0270
     28  CG       114.1120   23.5920  -13.4940 C.3    12  LEU12       0.0019
     29  CD1      114.6990   22.4290  -14.2760 C.3    12  LEU12       0.0001
     30  CD2      112.6250   23.3750  -13.2770 C.3    12  LEU12       0.0001
     31  N        113.8230   27.6370   -7.6410 N.3    15  SER15      -0.1217
     32  CA       112.4430   27.2770   -7.3440 C.3    15  SER15       0.1889
     33  C        112.3620   26.1670   -6.2760 C.2    15  SER15       0.2288
     34  O        111.5030   26.2180   -5.3980 O.2    15  SER15      -0.2866
     35  CB       111.7110   26.8270   -8.6410 C.3    15  SER15       0.2089
     36  OG       111.6350   27.8540   -9.6070 O.3    15  SER15      -0.2183
     37  N        111.0560   26.7240   -2.4230 N.3    19  PHE19      -0.1241
     38  CA       109.8470   25.9940   -2.0090 C.3    19  PHE19       0.1605
     39  C        110.0850   25.0660   -0.8280 C.2    19  PHE19       0.2264
     40  O        109.3200   25.0480    0.1260 O.2    19  PHE19      -0.2867
     41  CB       109.3020   25.1520   -3.1440 C.3    19  PHE19       0.0534
     42  CG       108.6910   25.9400   -4.2830 C.ar   19  PHE19      -0.0203
     43  CD1      108.3680   27.2680   -4.1700 C.ar   19  PHE19      -0.0042
     44  CD2      108.3910   25.2840   -5.4820 C.ar   19  PHE19      -0.0042
     45  CE1      107.7740   27.9260   -5.2360 C.ar   19  PHE19      -0.0003
     46  CE2      107.7970   25.9270   -6.5440 C.ar   19  PHE19      -0.0003
     47  CZ       107.4880   27.2470   -6.4210 C.ar   19  PHE19      -0.0000
     48  N        102.0350   14.8800   -6.7710 N.3    58  ASN58      -0.1240
     49  CA       102.8010   14.2260   -7.7970 C.3    58  ASN58       0.1653
     50  C        103.3660   15.1870   -8.8180 C.2    58  ASN58       0.2266
     51  O        102.6340   15.9340   -9.4580 O.2    58  ASN58      -0.2867
     52  CB       101.9500   13.1850   -8.4600 C.3    58  ASN58       0.1155
     53  CG       102.0100   11.8960   -7.7140 C.2    58  ASN58       0.2627
     54  OD1      103.0670   11.2320   -7.6860 O.2    58  ASN58      -0.2716
     55  ND2      100.9020   11.5130   -7.0860 N.am   58  ASN58      -0.0877
     56  N        105.9450   16.0070  -12.2190 N.3    60  LYS60      -0.1245
     57  CA       106.2860   15.4260  -13.5120 C.3    60  LYS60       0.1561
     58  C        106.9670   16.4720  -14.3540 C.2    60  LYS60       0.2260
     59  O        106.5720   17.6300  -14.3370 O.2    60  LYS60      -0.2867
     60  CB       105.0220   14.9540  -14.2340 C.3    60  LYS60       0.0271
     61  CG       103.7530   15.6870  -13.8220 C.3    60  LYS60       0.0035
     62  CD       102.6900   15.6220  -14.8980 C.3    60  LYS60       0.0206
     63  CE       101.2800   15.6920  -14.3140 C.3    60  LYS60       0.1093
     64  NZ       100.3360   16.2680  -15.3240 N.3    60  LYS60      -0.1314
     65  N        112.9650   19.2600  -12.9320 N.3    66  ALA66      -0.1245
     66  CA       111.6940   19.7680  -13.4570 C.3    66  ALA66       0.1562
     67  C        110.5140   19.1520  -12.7150 C.2    66  ALA66       0.2260
     68  O        109.5470   19.8550  -12.3740 O.2    66  ALA66      -0.2867
     69  CB       111.5920   19.4960  -14.9540 C.3    66  ALA66       0.0290
     70  N        110.3770   20.1500   -8.9080 N.3    69  ALA69      -0.1231
     71  CA       109.8470   21.5100   -8.8550 C.3    69  ALA69       0.1694
     72  C        108.3540   21.4820   -9.0840 C.2    69  ALA69       0.2592
     73  O        107.6170   22.2570   -8.4950 O.2    69  ALA69      -0.2718
     74  CB       110.5330   22.4030   -9.8890 C.3    69  ALA69       0.0304
     75  N        107.9290   20.5880   -9.9570 N.am   70  SER70      -0.1952
     76  CA       106.5250   20.4010  -10.2110 C.3    70  SER70       0.1924
     77  C        105.8030   19.8940   -8.9660 C.2    70  SER70       0.2314
     78  O        104.7070   20.3620   -8.6270 O.2    70  SER70      -0.2863
     79  CB       106.3370   19.4180  -11.3820 C.3    70  SER70       0.2116
     80  OG       104.9530   19.2120  -11.6930 O.3    70  SER70      -0.2180
     81  N        105.6280   22.6710   -6.4380 N.3    73  GLY73      -0.1210
     82  CA       104.7000   23.6960   -6.9020 C.3    73  GLY73       0.1956
     83  C        103.2750   23.2770   -6.6940 C.2    73  GLY73       0.2611
     84  O        102.4790   24.0280   -6.1830 O.2    73  GLY73      -0.2717
     85  N        102.9610   22.0480   -7.0710 N.am   74  GLU74      -0.1979
     86  CA       101.6330   21.5030   -6.7710 C.3    74  GLU74       0.1602
     87  C        101.3780   21.4520   -5.2640 C.2    74  GLU74       0.2287
     88  O        100.2310   21.5060   -4.8390 O.2    74  GLU74      -0.2864
     89  CB       101.3850   20.1050   -7.4140 C.3    74  GLU74       0.0415
     90  CG        99.9210   19.9030   -7.8330 C.3    74  GLU74       0.1163
     91  CD        99.6180   18.6020   -8.5510 C.2    74  GLU74       0.3649
     92  OE1      100.1740   17.5570   -8.1950 O.co2  74  GLU74      -0.2457
     93  OE2       98.8090   18.6380   -9.5110 O.co2  74  GLU74      -0.2457
     94  N        100.2530   24.9210   -4.4950 N.3    77  GLU77      -0.1231
     95  CA        98.9640   25.0510   -5.1650 C.3    77  GLU77       0.1699
     96  C         97.8700   24.5670   -4.2270 C.2    77  GLU77       0.2592
     97  O         96.8340   25.1950   -4.1100 O.2    77  GLU77      -0.2718
     98  CB        98.9890   24.2440   -6.5040 C.3    77  GLU77       0.0402
     99  CG        97.7020   24.1650   -7.3220 C.3    77  GLU77       0.1161
    100  CD        97.8720   23.3570   -8.6030 C.2    77  GLU77       0.3649
    101  OE1       98.9430   23.4520   -9.2820 O.co2  77  GLU77      -0.2457
    102  OE2       96.9170   22.6310   -8.9690 O.co2  77  GLU77      -0.2457
    103  N         98.1050   23.4080   -3.6290 N.am   78  ARG78      -0.1980
    104  CA        97.0710   22.6660   -2.9260 C.3    78  ARG78       0.1597
    105  C         96.9330   23.0330   -1.4710 C.2    78  ARG78       0.2287
    106  O         95.8850   22.7850   -0.8700 O.2    78  ARG78      -0.2864
    107  CB        97.3480   21.1750   -3.0170 C.3    78  ARG78       0.0334
    108  CG        97.2930   20.6360   -4.4180 C.3    78  ARG78       0.0492
    109  CD        95.8790   20.4180   -4.8720 C.3    78  ARG78       0.2205
    110  NE        95.9640   20.3970   -6.3320 N.pl3  78  ARG78      -0.0865
    111  CZ        95.7750   19.3610   -7.1330 C.cat  78  ARG78       0.5346
    112  NH1       95.4120   18.1830   -6.6620 N.pl3  78  ARG78       0.1354
    113  NH2       95.9320   19.5350   -8.4250 N.pl3  78  ARG78       0.1354
    114  N         89.7660   20.6430   -8.4780 N.3   179  SER179     -0.1217
    115  CA        91.1540   21.0160   -8.6260 C.3   179  SER179      0.1889
    116  C         91.4480   21.5500  -10.0190 C.2   179  SER179      0.2288
    117  O         92.6170   21.5770  -10.4430 O.2   179  SER179     -0.2866
    118  CB        92.0450   19.7980   -8.3530 C.3   179  SER179      0.2089
    119  OG        91.7180   18.7230   -9.2070 O.3   179  SER179     -0.2183
    120  N         96.6610   26.8500   -9.6590 N.3   183  SER183     -0.1202
    121  CA        98.0660   26.8770   -9.9510 C.3   183  SER183      0.2020
    122  C         98.8480   27.6020   -8.8880 C.2   183  SER183      0.2619
    123  O         98.2930   28.3580   -8.1200 O.2   183  SER183     -0.2717
    124  CB        98.3000   27.5460  -11.2880 C.3   183  SER183      0.2103
    125  OG        99.6650   27.4020  -11.6170 O.3   183  SER183     -0.2182
    126  N        100.1420   27.3240   -8.8600 N.am  184  ALA184     -0.1965
    127  CA       101.0990   28.0490   -8.0470 C.3   184  ALA184      0.1732
    128  C        102.3160   28.3090   -8.9300 C.2   184  ALA184      0.2656
    129  O        102.5110   27.6070   -9.9220 O.2   184  ALA184     -0.2711
    130  CB       101.4930   27.2280   -6.8540 C.3   184  ALA184      0.0334
    131  N        103.1120   29.3180   -8.6090 N.am  185  GLY185     -0.1716
    132  CA       104.2300   29.6710   -9.4600 C.2   185  GLY185      0.1480
    133  C        105.2960   30.5370   -8.8280 C.2   185  GLY185      0.2820
    134  O        105.1790   31.0070   -7.6740 O.2   185  GLY185     -0.2669
    135  N        106.3590   30.7350   -9.5980 N.am  186  ASN186     -0.1937
    136  CA       107.4200   31.6530   -9.2170 C.3   186  ASN186      0.1691
    137  C        107.0100   33.1280   -9.2960 C.2   186  ASN186      0.2292
    138  O        107.5770   33.9690   -8.6110 O.2   186  ASN186     -0.2864
    139  CB       108.6370   31.3990  -10.0880 C.3   186  ASN186      0.1181
    140  CG       109.3360   30.1200   -9.7080 C.2   186  ASN186      0.2629
    141  OD1      109.1970   29.1020  -10.3800 O.2   186  ASN186     -0.2716
    142  ND2      110.0960   30.1600   -8.5910 N.am  186  ASN186     -0.0877
    143  N        103.3170   33.7140  -14.1870 N.3   190  GLU190     -0.1231
    144  CA       103.6900   32.3120  -14.4620 C.3   190  GLU190      0.1699
    145  C        102.5730   31.3640  -13.9870 C.2   190  GLU190      0.2592
    146  O        102.0650   30.5540  -14.7590 O.2   190  GLU190     -0.2718
    147  CB       105.0260   31.9560  -13.8020 C.3   190  GLU190      0.0402
    148  CG       105.5470   30.5390  -14.0830 C.3   190  GLU190      0.1161
    149  CD       106.5680   30.0470  -13.0580 C.2   190  GLU190      0.3649
    150  OE1      107.7160   30.5580  -12.9920 O.co2 190  GLU190     -0.2457
    151  OE2      106.1940   29.1420  -12.2650 O.co2 190  GLU190     -0.2457
    152  N        102.1370   31.5460  -12.7370 N.am  191  ALA191     -0.1980
    153  CA       101.0470   30.7570  -12.1530 C.3   191  ALA191      0.1597
    154  C         99.7330   30.9050  -12.9110 C.2   191  ALA191      0.2287
    155  O         99.0320   29.9280  -13.1490 O.2   191  ALA191     -0.2864
    156  CB       100.8360   31.1270  -10.6960 C.3   191  ALA191      0.0319
    157  N         99.8920   29.1220  -16.2500 N.3   194  GLN194     -0.1245
    158  CA        99.7800   27.6720  -16.0260 C.3   194  GLN194      0.1566
    159  C         98.2990   27.3180  -15.7750 C.2   194  GLN194      0.2260
    160  O         97.7470   26.4660  -16.4730 O.2   194  GLN194     -0.2867
    161  CB       100.6490   27.1980  -14.8580 C.3   194  GLN194      0.0367
    162  CG       100.9620   25.7040  -14.7690 C.3   194  GLN194      0.0905
    163  CD        99.7680   24.8030  -14.3950 C.2   194  GLN194      0.2608
    164  OE1       99.4220   24.6010  -13.2010 O.2   194  GLN194     -0.2717
    165  NE2       99.1510   24.2180  -15.4240 N.am  194  GLN194     -0.0878
    166  N         95.6570   25.2310  -18.0240 N.3   198  GLU198     -0.1245
    167  CA        94.9600   24.0820  -17.4140 C.3   198  GLU198      0.1567
    168  C         93.4650   24.1520  -17.7740 C.2   198  GLU198      0.2260
    169  O         92.8450   23.1020  -17.9680 O.2   198  GLU198     -0.2867
    170  CB        95.1780   24.0140  -15.8680 C.3   198  GLU198      0.0388
    171  CG        94.8050   22.6870  -15.1670 C.3   198  GLU198      0.1160
    172  CD        95.4800   22.4450  -13.7960 C.2   198  GLU198      0.3649
    173  OE1       94.7600   22.4650  -12.7600 O.co2 198  GLU198     -0.2457
    174  OE2       96.7180   22.2290  -13.7310 O.co2 198  GLU198     -0.2457
    175  N         93.2810   23.1080  -21.6350 N.3   201  GLU201     -0.1231
    176  CA        93.5230   21.6560  -21.6230 C.3   201  GLU201      0.1699
    177  C         92.1960   20.9280  -21.4590 C.2   201  GLU201      0.2592
    178  O         91.7650   20.1830  -22.3230 O.2   201  GLU201     -0.2718
    179  CB        94.4910   21.2680  -20.4750 C.3   201  GLU201      0.0402
    180  CG        94.8900   19.7900  -20.3590 C.3   201  GLU201      0.1161
    181  CD        95.8280   19.4870  -19.1730 C.2   201  GLU201      0.3649
    182  OE1       96.8010   20.2700  -18.9180 O.co2 201  GLU201     -0.2457
    183  OE2       95.5800   18.4650  -18.4720 O.co2 201  GLU201     -0.2457
    184  N         91.5370   21.1690  -20.3450 N.am  202  ARG202     -0.1980
    185  CA        90.3910   20.3770  -19.9670 C.3   202  ARG202      0.1597
    186  C         89.1020   20.7030  -20.7230 C.2   202  ARG202      0.2287
    187  O         88.3050   19.7900  -20.9780 O.2   202  ARG202     -0.2864
    188  CB        90.2290   20.4110  -18.4500 C.3   202  ARG202      0.0334
    189  CG        91.1690   19.3980  -17.8110 C.3   202  ARG202      0.0492
    190  CD        91.6940   19.7810  -16.4520 C.3   202  ARG202      0.2205
    191  NE        93.0590   19.2920  -16.2670 N.pl3 202  ARG202     -0.0865
    192  CZ        93.7330   19.3550  -15.1190 C.cat 202  ARG202      0.5346
    193  NH1       93.1680   19.8610  -14.0180 N.pl3 202  ARG202      0.1354
    194  NH2       94.9860   18.9120  -15.0620 N.pl3 202  ARG202      0.1354
    195  N        104.4690   18.7110  -22.1500 N.3   285  ARG285     -0.1245
    196  CA       103.4980   18.5490  -21.0330 C.3   285  ARG285      0.1563
    197  C        102.5280   17.3870  -21.2940 C.2   285  ARG285      0.2260
    198  O        102.3180   16.5680  -20.4360 O.2   285  ARG285     -0.2867
    199  CB       102.7530   19.8700  -20.6880 C.3   285  ARG285      0.0307
    200  CG       103.4430   20.6570  -19.5580 C.3   285  ARG285      0.0489
    201  CD       102.7130   21.8300  -18.8870 C.3   285  ARG285      0.2205
    202  NE       101.2630   21.9350  -19.1180 N.pl3 285  ARG285     -0.0865
    203  CZ       100.2770   21.3610  -18.4070 C.cat 285  ARG285      0.5346
    204  NH1      100.5230   20.5480  -17.3860 N.pl3 285  ARG285      0.1354
    205  NH2       98.9940   21.5970  -18.7470 N.pl3 285  ARG285      0.1354
    206  N        102.8190   13.6200  -19.2340 N.3   289  GLU289     -0.1245
    207  CA       101.6190   13.1630  -18.5110 C.3   289  GLU289      0.1567
    208  C        101.1670   11.7550  -18.9100 C.2   289  GLU289      0.2260
    209  O        100.4200   11.1130  -18.1820 O.2   289  GLU289     -0.2867
    210  CB       100.4660   14.1610  -18.6770 C.3   289  GLU289      0.0388
    211  CG        99.2950   13.9900  -17.7100 C.3   289  GLU289      0.1160
    212  CD        98.4540   15.2460  -17.5810 C.2   289  GLU289      0.3649
    213  OE1       98.5090   16.1210  -18.4820 O.co2 289  GLU289     -0.2457
    214  OE2       97.7360   15.3900  -16.5650 O.co2 289  GLU289     -0.2457
@<TRIPOS>BOND
     1   178   177    2
     2   195   196    1
     3   175   176    1
     4   176   177    1
     5   176   179    1
     6   177   184   am
     7   197   196    1
     8   197   198    2
     9   196   199    1
    10   187   186    2
    11   186   185    1
    12   199   200    1
    13   179   180    1
    14   180   181    1
    15   184   185    1
    16   185   188    1
    17   200   201    1
    18     3     4    2
    19     3     2    1
    20   206   207    1
    21   181   182   ar
    22   181   183   ar
    23   202   201    1
    24   202   203    2
    25   208   207    1
    26   208   209    2
    27   205   203    1
    28     2     5    1
    29     2     1    1
    30   210   207    1
    31   210   211    1
    32     6     8    1
    33     6     5    1
    34   213   212   ar
    35   188   189    1
    36   203   204    1
    37   166   167    1
    38   169   168    2
    39     5     7    1
    40   189   190    1
    41   168   167    1
    42   211   212    1
    43     9    10    1
    44   212   214   ar
    45   167   170    1
    46    12    11    2
    47   160   159    2
    48   190   191    1
    49   191   192    2
    50    10    11    1
    51    10    13    1
    52   157   158    1
    53    15    16    1
    54    15    14    1
    55   158   159    1
    56   158   161    1
    57   170   171    1
    58    16    17    1
    59    13    14    1
    60   165   163   am
    61    64    63    1
    62   171   172    1
    63   192   194    1
    64   192   193    1
    65    69    66    1
    66    62    63    1
    67    62    61    1
    68   161   162    1
    69   162   163    1
    70   146   145    2
    71   144   143    1
    72   144   145    1
    73   144   147    1
    74   163   164    2
    75    58    59    2
    76    58    57    1
    77    29    28    1
    78    60    61    1
    79    60    57    1
    80   148   147    1
    81   148   149    1
    82   145   152   am
    83   172   174   ar
    84   172   173   ar
    85    57    56    1
    86    28    30    1
    87    28    27    1
    88    18    19    1
    89    66    65    1
    90    66    67    1
    91   155   154    2
    92   149   150   ar
    93   149   151   ar
    94   154   153    1
    95    21    20    2
    96   152   153    1
    97    67    68    2
    98    20    19    1
    99    19    22    1
   100    27    24    1
   101   153   156    1
   102    23    24    1
   103    80    79    1
   104   125   124    1
   105    24    25    1
   106    79    76    1
   107   124   121    1
   108   117   116    2
   109   141   140    2
   110    76    75    1
   111    76    77    1
   112   139   140    1
   113   139   136    1
   114   116   115    1
   115    25    26    2
   116    75    72   am
   117   121   120    1
   118   121   122    1
   119   129   128    2
   120    74    71    1
   121   140   142   am
   122    36    35    1
   123   135   136    1
   124   135   133   am
   125    93    91   ar
   126   132   133    1
   127   132   131    2
   128    51    50    2
   129   137   136    1
   130   137   138    2
   131   101   100   ar
   132   119   118    1
   133    72    71    1
   134    72    73    2
   135   102   100   ar
   136    77    78    2
   137   128   131    1
   138   128   127    1
   139    70    71    1
   140   122   126   am
   141   122   123    2
   142   126   127    1
   143   133   134    2
   144    50    49    1
   145    35    32    1
   146   115   114    1
   147   115   118    1
   148   100    99    1
   149    91    92   ar
   150    91    90    1
   151    52    49    1
   152    52    53    1
   153   113   111    1
   154   127   130    1
   155    90    89    1
   156    49    48    1
   157    53    54    2
   158    53    55   am
   159    31    32    1
   160    89    86    1
   161    32    33    1
   162    99    98    1
   163   111   112    1
   164   111   110    2
   165    85    86    1
   166    85    83   am
   167    82    83    1
   168    82    81    1
   169    86    87    1
   170    83    84    2
   171    46    47   ar
   172    46    44   ar
   173    98    95    1
   174    47    45   ar
   175   110   109    1
   176    33    34    2
   177    44    42   ar
   178    87    88    2
   179    45    43   ar
   180    95    94    1
   181    95    96    1
   182   109   108    1
   183   108   107    1
   184    42    43   ar
   185    42    41    1
   186    96    97    2
   187    96   103   am
   188   103   104    1
   189    41    38    1
   190   107   104    1
   191   104   105    1
   192    37    38    1
   193    38    39    1
   194   105   106    2
   195    39    40    2
