@<TRIPOS>MOLECULE
tmp/4q86H00.pdb
 177 160 0 0 0
SMALL
GASTEIGER

@<TRIPOS>ATOM
      1  N         88.3730   64.7860   45.8580 N.3     5  ILE5       -0.1245
      2  CA        87.5810   64.2310   46.9450 C.3     5  ILE5        0.1561
      3  C         88.3370   63.0370   47.4870 C.2     5  ILE5        0.2260
      4  O         89.0700   62.3810   46.7610 O.2     5  ILE5       -0.2867
      5  CB        86.1140   63.8330   46.5210 C.3     5  ILE5        0.0252
      6  CG1       86.0820   62.6600   45.5410 C.3     5  ILE5        0.0019
      7  CG2       85.3750   65.0260   45.9500 C.3     5  ILE5        0.0019
      8  CD1       84.6720   62.1680   45.2260 C.3     5  ILE5        0.0001
      9  N         89.9690   59.4340   45.5300 N.3     8  LYS8       -0.1245
     10  CA        90.1020   59.4960   44.0740 C.3     8  LYS8        0.1561
     11  C         91.4460   60.0020   43.5970 C.2     8  LYS8        0.2260
     12  O         91.9560   60.9660   44.1470 O.2     8  LYS8       -0.2867
     13  CB        89.0010   60.3870   43.5160 C.3     8  LYS8        0.0271
     14  CG        87.5890   59.9380   43.9050 C.3     8  LYS8        0.0035
     15  CD        87.2800   58.5450   43.3860 C.3     8  LYS8        0.0206
     16  CE        85.8120   58.1810   43.5810 C.3     8  LYS8        0.1093
     17  NZ        85.6270   56.6920   43.4110 N.3     8  LYS8       -0.1314
     18  N         92.1380   61.4170   40.7690 N.3    10  ALA10      -0.1245
     19  CA        92.0450   62.5170   39.8190 C.3    10  ALA10       0.1562
     20  C         90.9200   63.4420   40.2260 C.2    10  ALA10       0.2260
     21  O         90.1040   63.1040   41.0800 O.2    10  ALA10      -0.2867
     22  CB        91.7780   61.9810   38.4480 C.3    10  ALA10       0.0290
     23  N         87.4990   65.6590   39.9600 N.3    12  LEU12      -0.1245
     24  CA        86.1600   65.3360   39.4020 C.3    12  LEU12       0.1561
     25  C         86.0060   65.8520   37.9930 C.2    12  LEU12       0.2260
     26  O         85.5300   65.1300   37.1310 O.2    12  LEU12      -0.2867
     27  CB        85.0640   65.8910   40.2760 C.3    12  LEU12       0.0270
     28  CG        84.9570   65.3470   41.6830 C.3    12  LEU12       0.0019
     29  CD1       83.7930   65.9720   42.4100 C.3    12  LEU12       0.0001
     30  CD2       84.8140   63.8350   41.6850 C.3    12  LEU12       0.0001
     31  N         87.9560   63.7330   35.3920 N.3    15  SER15      -0.1217
     32  CA        87.2900   62.4620   35.1520 C.3    15  SER15       0.1889
     33  C         86.0680   62.6690   34.2530 C.2    15  SER15       0.2288
     34  O         85.8680   61.9340   33.2680 O.2    15  SER15      -0.2866
     35  CB        86.8230   61.8430   36.4550 C.3    15  SER15       0.2089
     36  OG        87.8700   61.7550   37.3890 O.3    15  SER15      -0.2183
     37  N         85.9120   61.0670   30.5490 N.3    19  PHE19      -0.1241
     38  CA        84.8910   60.0480   30.2880 C.3    19  PHE19       0.1605
     39  C         83.8910   60.4750   29.2280 C.2    19  PHE19       0.2264
     40  O         83.5470   59.6890   28.3560 O.2    19  PHE19      -0.2867
     41  CB        84.1350   59.7050   31.5720 C.3    19  PHE19       0.0534
     42  CG        84.9630   59.0500   32.6270 C.ar   19  PHE19      -0.0203
     43  CD1       86.2220   58.5210   32.3620 C.ar   19  PHE19      -0.0042
     44  CD2       84.4680   58.9330   33.9010 C.ar   19  PHE19      -0.0042
     45  CE1       86.9570   57.8820   33.3600 C.ar   19  PHE19      -0.0003
     46  CE2       85.2080   58.3090   34.9010 C.ar   19  PHE19      -0.0003
     47  CZ        86.4460   57.7750   34.6340 C.ar   19  PHE19      -0.0000
     48  N         73.2590   54.8590   36.7680 N.3    58  ASN58      -0.1240
     49  CA        72.9540   55.9130   37.6850 C.3    58  ASN58       0.1653
     50  C         74.1730   56.3520   38.5140 C.2    58  ASN58       0.2266
     51  O         75.0790   55.5470   38.7990 O.2    58  ASN58      -0.2867
     52  CB        71.8910   55.4720   38.6330 C.3    58  ASN58       0.1155
     53  CG        70.5990   55.1470   37.9260 C.2    58  ASN58       0.2627
     54  OD1       70.2350   53.9900   37.8140 O.2    58  ASN58      -0.2716
     55  ND2       69.8650   56.1530   37.5790 N.am   58  ASN58      -0.0877
     56  N         75.7910   58.6940   41.8460 N.3    60  LYS60      -0.1245
     57  CA        75.5260   59.1780   43.1910 C.3    60  LYS60       0.1561
     58  C         76.7830   59.8700   43.7550 C.2    60  LYS60       0.2260
     59  O         77.9070   59.5320   43.3610 O.2    60  LYS60      -0.2867
     60  CB        75.1070   58.0430   44.0900 C.3    60  LYS60       0.0271
     61  CG        76.2190   57.0540   44.4130 C.3    60  LYS60       0.0035
     62  CD        75.7930   55.9110   45.3090 C.3    60  LYS60       0.0206
     63  CE        76.8520   54.8250   45.2730 C.3    60  LYS60       0.1093
     64  NZ        76.9990   54.1280   46.5760 N.3    60  LYS60      -0.1314
     65  N         80.3750   64.9850   41.5880 N.3    66  ALA66      -0.1245
     66  CA        80.7330   63.6740   42.0500 C.3    66  ALA66       0.1562
     67  C         79.7150   62.6700   41.5620 C.2    66  ALA66       0.2260
     68  O         80.0780   61.5640   41.1870 O.2    66  ALA66      -0.2867
     69  CB        80.8550   63.6450   43.5840 C.3    66  ALA66       0.0290
     70  N         80.3800   62.0830   37.7600 N.3    69  ALA69      -0.1231
     71  CA        81.5640   61.2500   37.5900 C.3    69  ALA69       0.1694
     72  C         81.2630   59.7590   37.9510 C.2    69  ALA69       0.2592
     73  O         81.7070   58.8490   37.2680 O.2    69  ALA69      -0.2718
     74  CB        82.7120   61.7760   38.4320 C.3    69  ALA69       0.0304
     75  N         80.4650   59.5690   38.9860 N.am   70  SER70      -0.1952
     76  CA        79.9750   58.2650   39.3600 C.3    70  SER70       0.1924
     77  C         79.1310   57.6180   38.2290 C.2    70  SER70       0.2314
     78  O         79.3020   56.4400   37.9180 O.2    70  SER70      -0.2863
     79  CB        79.1750   58.3760   40.6400 C.3    70  SER70       0.2116
     80  OG        78.2790   57.3090   40.7910 O.3    70  SER70      -0.2180
     81  N         81.4080   56.7380   35.3710 N.3    73  GLY73      -0.1210
     82  CA        82.3430   55.6870   35.7830 C.3    73  GLY73       0.1956
     83  C         81.6350   54.3580   35.7460 C.2    73  GLY73       0.2611
     84  O         82.1560   53.4020   35.2150 O.2    73  GLY73      -0.2717
     85  N         80.4090   54.3430   36.2410 N.am   74  GLU74      -0.1979
     86  CA        79.5610   53.1560   36.1790 C.3    74  GLU74       0.1602
     87  C         79.2550   52.7820   34.7170 C.2    74  GLU74       0.2287
     88  O         79.2480   51.6170   34.3820 O.2    74  GLU74      -0.2864
     89  CB        78.2650   53.3330   36.9470 C.3    74  GLU74       0.0415
     90  CG        77.5980   51.9810   37.3060 C.3    74  GLU74       0.1163
     91  CD        76.4740   52.1310   38.2770 C.2    74  GLU74       0.3649
     92  OE1       75.3590   52.5730   37.8690 O.co2  74  GLU74      -0.2457
     93  OE2       76.6770   51.8600   39.4900 O.co2  74  GLU74      -0.2457
     94  N         82.3310   51.0250   33.5480 N.3    77  GLU77      -0.1245
     95  CA        82.3610   49.7530   34.2260 C.3    77  GLU77       0.1567
     96  C         81.4450   48.7200   33.5400 C.2    77  GLU77       0.2260
     97  O         81.8570   47.5790   33.2750 O.2    77  GLU77      -0.2867
     98  CB        81.9610   49.9960   35.6850 C.3    77  GLU77       0.0388
     99  CG        81.4070   48.8310   36.4380 C.3    77  GLU77       0.1160
    100  CD        80.8330   49.2220   37.7940 C.2    77  GLU77       0.3649
    101  OE1       81.4640   49.9960   38.5470 O.co2  77  GLU77      -0.2457
    102  OE2       79.7510   48.7350   38.1330 O.co2  77  GLU77      -0.2457
    103  N         84.2340   47.3690   38.5220 N.3   183  SER183     -0.1202
    104  CA        84.6420   48.7220   38.8510 C.3   183  SER183      0.2020
    105  C         85.3050   49.3630   37.6320 C.2   183  SER183      0.2619
    106  O         85.8060   48.6620   36.7680 O.2   183  SER183     -0.2717
    107  CB        85.5750   48.7020   40.0280 C.3   183  SER183      0.2103
    108  OG        85.9260   50.0130   40.3740 O.3   183  SER183     -0.2182
    109  N         85.2040   50.6870   37.5480 N.am  184  ALA184     -0.1965
    110  CA        86.0330   51.5040   36.6900 C.3   184  ALA184      0.1732
    111  C         86.6310   52.6490   37.4940 C.2   184  ALA184      0.2656
    112  O         86.2450   52.8900   38.6210 O.2   184  ALA184     -0.2711
    113  CB        85.2620   52.0320   35.5220 C.3   184  ALA184      0.0334
    114  N         87.6300   53.3160   36.9210 N.am  185  GLY185     -0.1716
    115  CA        88.3360   54.3340   37.6670 C.2   185  GLY185      0.1480
    116  C         89.2990   55.1830   36.8500 C.2   185  GLY185      0.2820
    117  O         89.6050   54.9000   35.7070 O.2   185  GLY185     -0.2669
    118  N         89.8020   56.2090   37.5050 N.am  186  ASN186     -0.1937
    119  CA        90.8280   57.0720   36.9320 C.3   186  ASN186      0.1691
    120  C         92.1670   56.3470   36.8130 C.2   186  ASN186      0.2292
    121  O         92.9660   56.6560   35.9380 O.2   186  ASN186     -0.2864
    122  CB        91.0340   58.3080   37.8320 C.3   186  ASN186      0.1181
    123  CG        89.7910   59.1420   37.9520 C.2   186  ASN186      0.2629
    124  OD1       89.2760   59.6310   36.9590 O.2   186  ASN186     -0.2716
    125  ND2       89.2700   59.2560   39.1520 N.am  186  ASN186     -0.0877
    126  N         92.7520   52.7730   41.9830 N.3   190  GLU190     -0.1231
    127  CA        91.5450   53.4390   42.4660 C.3   190  GLU190      0.1699
    128  C         90.3470   52.5240   42.1510 C.2   190  GLU190      0.2592
    129  O         89.4820   52.3150   43.0130 O.2   190  GLU190     -0.2718
    130  CB        91.3960   54.8280   41.8100 C.3   190  GLU190      0.0402
    131  CG        90.1010   55.5890   42.1510 C.3   190  GLU190      0.1161
    132  CD        89.7390   56.6170   41.0710 C.2   190  GLU190      0.3649
    133  OE1       88.7620   56.3730   40.3240 O.co2 190  GLU190     -0.2457
    134  OE2       90.4640   57.6470   40.9280 O.co2 190  GLU190     -0.2457
    135  N         90.3080   51.9990   40.9320 N.am  191  ALA191     -0.1980
    136  CA        89.2120   51.1080   40.4590 C.3   191  ALA191      0.1597
    137  C         89.1920   49.8170   41.1940 C.2   191  ALA191      0.2287
    138  O         88.1590   49.4170   41.7250 O.2   191  ALA191     -0.2864
    139  CB        89.4070   50.7970   39.0040 C.3   191  ALA191      0.0319
    140  N         87.9090   50.3130   44.7680 N.3   194  GLN194     -0.1245
    141  CA        86.4370   50.4230   44.7300 C.3   194  GLN194      0.1566
    142  C         85.7870   49.0380   44.5780 C.2   194  GLN194      0.2260
    143  O         84.8850   48.7000   45.3340 O.2   194  GLN194     -0.2867
    144  CB        85.9640   51.4110   43.6640 C.3   194  GLN194      0.0367
    145  CG        84.5490   51.9110   43.8340 C.3   194  GLN194      0.0905
    146  CD        83.4860   50.8910   43.3980 C.2   194  GLN194      0.2608
    147  OE1       83.6570   50.1450   42.4350 O.2   194  GLN194     -0.2717
    148  NE2       82.3970   50.9000   44.0770 N.am  194  GLN194     -0.0878
    149  N         83.5230   46.9800   47.2330 N.3   198  GLU198     -0.1245
    150  CA        82.1840   46.5230   46.8540 C.3   198  GLU198      0.1567
    151  C         81.9620   45.0900   47.2740 C.2   198  GLU198      0.2260
    152  O         80.9030   44.7570   47.7620 O.2   198  GLU198     -0.2867
    153  CB        81.9410   46.6550   45.3500 C.3   198  GLU198      0.0388
    154  CG        80.5220   46.2700   44.9410 C.3   198  GLU198      0.1160
    155  CD        80.1530   46.7810   43.5590 C.2   198  GLU198      0.3649
    156  OE1       80.2980   45.9880   42.5640 O.co2 198  GLU198     -0.2457
    157  OE2       79.7700   47.9820   43.4550 O.co2 198  GLU198     -0.2457
    158  N         79.1630   57.1650   51.0490 N.3   285  ARG285     -0.1245
    159  CA        78.6140   56.2690   50.0470 C.3   285  ARG285      0.1563
    160  C         77.3130   55.6390   50.5160 C.2   285  ARG285      0.2260
    161  O         76.4740   55.2950   49.6860 O.2   285  ARG285     -0.2867
    162  CB        79.4470   55.0050   49.8500 C.3   285  ARG285      0.0307
    163  CG        80.7160   55.1560   49.1450 C.3   285  ARG285      0.0489
    164  CD        81.3740   53.8120   48.9440 C.3   285  ARG285      0.2205
    165  NE        80.6640   53.0060   47.9650 N.pl3 285  ARG285     -0.0865
    166  CZ        80.4350   53.3490   46.6940 C.cat 285  ARG285      0.5346
    167  NH1       80.7420   54.5460   46.2260 N.pl3 285  ARG285      0.1354
    168  NH2       79.8160   52.4870   45.8760 N.pl3 285  ARG285      0.1354
    169  N         69.7820   57.3490   46.2630 N.3   292  GLN292     -0.1245
    170  CA        69.9800   57.3080   44.8140 C.3   292  GLN292      0.1566
    171  C         68.6790   57.0870   44.0230 C.2   292  GLN292      0.2260
    172  O         68.0150   56.0440   44.1620 O.2   292  GLN292     -0.2867
    173  CB        70.9460   56.2270   44.3900 C.3   292  GLN292      0.0367
    174  CG        71.1620   56.2560   42.8770 C.3   292  GLN292      0.0905
    175  CD        72.3220   55.4200   42.4420 C.2   292  GLN292      0.2608
    176  OE1       73.3310   55.9310   41.9150 O.2   292  GLN292     -0.2717
    177  NE2       72.2060   54.1190   42.6560 N.am  292  GLN292     -0.0878
@<TRIPOS>BOND
     1    40    39    2
     2    39    38    1
     3    38    37    1
     4    38    41    1
     5    41    42    1
     6    43    42   ar
     7    43    45   ar
     8    42    44   ar
     9    34    33    2
    10    97    96    2
    11    45    47   ar
    12    96    95    1
    13    94    95    1
    14    44    46   ar
    15    95    98    1
    16    33    32    1
    17    88    87    2
    18    47    46   ar
    19    87    86    1
    20    32    31    1
    21    32    35    1
    22    84    83    2
    23    81    82    1
    24   113   110    1
    25    98    99    1
    26   117   116    2
    27    83    82    1
    28    83    85   am
    29   121   120    2
    30    86    85    1
    31    86    89    1
    32    99   100    1
    33    35    36    1
    34   110   111    1
    35   110   109    1
    36   106   105    2
    37    48    49    1
    38   120   119    1
    39   116   118   am
    40   116   115    1
    41   114   111    1
    42   114   115    2
    43   119   118    1
    44   119   122    1
    45    89    90    1
    46   124   123    2
    47    26    25    2
    48    73    72    2
    49    90    91    1
    50   111   112    2
    51   109   105   am
    52    55    53   am
    53    71    70    1
    54    71    72    1
    55    71    74    1
    56   105   104    1
    57    49    50    1
    58    49    52    1
    59   100   102   ar
    60   100   101   ar
    61    54    53    2
    62   122   123    1
    63    92    91   ar
    64    78    77    2
    65    53    52    1
    66    72    75   am
    67   123   125   am
    68    25    24    1
    69    77    76    1
    70    91    93   ar
    71    22    19    1
    72    50    51    2
    73   103   104    1
    74   104   107    1
    75    75    76    1
    76   139   136    1
    77    76    79    1
    78    24    23    1
    79    24    27    1
    80    19    20    1
    81    19    18    1
    82   107   108    1
    83    20    21    2
    84    27    28    1
    85   133   132   ar
    86   136   135    1
    87   136   137    1
    88    79    80    1
    89   134   132   ar
    90   135   128   am
    91   132   131    1
    92    68    67    2
    93   137   138    2
    94    67    66    1
    95    65    66    1
    96    28    30    1
    97    28    29    1
    98   130   131    1
    99   130   127    1
   100    56    57    1
   101   176   175    2
   102   126   127    1
   103    66    69    1
   104   128   127    1
   105   128   129    2
   106   147   146    2
   107   175   177   am
   108   175   174    1
   109   156   155   ar
   110   174   173    1
   111    57    58    1
   112    57    60    1
   113    59    58    2
   114    15    16    1
   115    15    14    1
   116   146   145    1
   117   146   148   am
   118    17    16    1
   119   157   155   ar
   120    13    14    1
   121    13    10    1
   122   155   154    1
   123    11    10    1
   124    11    12    2
   125   144   145    1
   126   144   141    1
   127   171   172    2
   128   171   170    1
   129    10     9    1
   130    60    61    1
   131   173   170    1
   132    61    62    1
   133   142   141    1
   134   142   143    2
   135   141   140    1
   136   170   169    1
   137   154   153    1
   138     8     6    1
   139    63    62    1
   140    63    64    1
   141   153   150    1
   142     6     5    1
   143     1     2    1
   144   168   166    1
   145     7     5    1
   146   167   166    1
   147     5     2    1
   148   166   165    2
   149     4     3    2
   150   150   149    1
   151   150   151    1
   152     2     3    1
   153   151   152    2
   154   165   164    1
   155   164   163    1
   156   163   162    1
   157   161   160    2
   158   162   159    1
   159   159   160    1
   160   159   158    1
