@<TRIPOS>MOLECULE
tmp/4q87A01.pdb
 131 125 0 0 0
SMALL
GASTEIGER

@<TRIPOS>ATOM
      1  N         17.6660    0.1680    3.6650 N.3    59  ASN59      -0.1240
      2  CA        18.8090    1.0680    4.1580 C.3    59  ASN59       0.1653
      3  C         20.0980    0.2760    4.4000 C.2    59  ASN59       0.2266
      4  O         21.0960    0.7920    4.9450 O.2    59  ASN59      -0.2867
      5  CB        18.4690    1.9110    5.3960 C.3    59  ASN59       0.1155
      6  CG        18.2550    1.0460    6.6150 C.2    59  ASN59       0.2627
      7  OD1       18.4460   -0.1430    6.5600 O.2    59  ASN59      -0.2716
      8  ND2       17.8350    1.6530    7.6910 N.am   59  ASN59      -0.0877
      9  N         12.7360    0.4310    5.8660 N.3    64  ASN64      -0.1240
     10  CA        11.9600    1.4080    6.6090 C.3    64  ASN64       0.1653
     11  C         10.7350    1.7730    5.8120 C.2    64  ASN64       0.2266
     12  O         10.8760    2.1510    4.6890 O.2    64  ASN64      -0.2867
     13  CB        12.7460    2.7100    6.8870 C.3    64  ASN64       0.1155
     14  CG        13.8500    2.5240    7.9040 C.2    64  ASN64       0.2627
     15  OD1       13.9100    1.5050    8.6610 O.2    64  ASN64      -0.2716
     16  ND2       14.8000    3.4670    7.9180 N.am   64  ASN64      -0.0877
     17  N          8.4900    6.2150   11.2910 N.3    89  GLN89      -0.1245
     18  CA         8.7670    5.0760   10.3940 C.3    89  GLN89       0.1566
     19  C          8.5390    3.8050   11.1600 C.2    89  GLN89       0.2260
     20  O          8.4440    3.8620   12.3970 O.2    89  GLN89      -0.2867
     21  CB        10.2500    5.1150    9.9040 C.3    89  GLN89       0.0367
     22  CG        11.3120    5.1660   11.0920 C.3    89  GLN89       0.0905
     23  CD        12.0490    3.8100   11.2220 C.2    89  GLN89       0.2608
     24  OE1       11.4190    2.8010   11.2930 O.2    89  GLN89      -0.2717
     25  NE2       13.3900    3.8300   11.1470 N.am   89  GLN89      -0.0878
     26  N          9.9250   -0.5210   10.9810 N.3    91  HIS91      -0.1241
     27  CA        10.8520   -1.4960   10.3700 C.3    91  HIS91       0.1621
     28  C         10.7430   -2.7640   11.1840 C.2    91  HIS91       0.2264
     29  O         10.0880   -2.7990   12.2450 O.2    91  HIS91      -0.2867
     30  CB        12.3510   -0.9620   10.3670 C.3    91  HIS91       0.0745
     31  CG        12.8620   -0.6950   11.7390 C.ar   91  HIS91       0.0817
     32  ND1       12.5900    0.4970   12.3820 N.ar   91  HIS91      -0.2268
     33  CD2       13.4850   -1.4980   12.6380 C.ar   91  HIS91       0.1154
     34  CE1       13.0620    0.4280   13.6270 C.ar   91  HIS91       0.1986
     35  NE2       13.6310   -0.7650   13.8040 N.ar   91  HIS91      -0.2212
     36  N         13.0710   -6.3860   12.5690 N.3    93  HIS93      -0.1241
     37  CA        14.2960   -7.1680   12.7280 C.3    93  HIS93       0.1621
     38  C         13.8790   -8.6440   12.6380 C.2    93  HIS93       0.2264
     39  O         12.8070   -9.0070   13.1720 O.2    93  HIS93      -0.2867
     40  CB        14.9650   -6.9380   14.0990 C.3    93  HIS93       0.0745
     41  CG        15.2350   -5.4930   14.4200 C.ar   93  HIS93       0.0817
     42  ND1       16.5020   -4.9720   14.2140 N.ar   93  HIS93      -0.2268
     43  CD2       14.4420   -4.4310   14.7660 C.ar   93  HIS93       0.1154
     44  CE1       16.5070   -3.7030   14.6180 C.ar   93  HIS93       0.1986
     45  NE2       15.2620   -3.3370   14.8820 N.ar   93  HIS93      -0.2212
     46  N          9.1350   -2.7260   14.9030 N.3   116  HIS116     -0.1241
     47  CA         9.4040   -1.5150   15.6720 C.3   116  HIS116      0.1621
     48  C          8.7240   -0.3470   14.9800 C.2   116  HIS116      0.2264
     49  O          9.1390    0.0280   13.8840 O.2   116  HIS116     -0.2867
     50  CB        10.9000   -1.2470   15.7020 C.3   116  HIS116      0.0745
     51  CG        11.5910   -2.2030   16.6390 C.ar  116  HIS116      0.0817
     52  ND1       12.9590   -2.4000   16.6590 N.ar  116  HIS116     -0.2268
     53  CD2       11.0770   -3.0550   17.5550 C.ar  116  HIS116      0.1154
     54  CE1       13.2750   -3.3160   17.5620 C.ar  116  HIS116      0.1986
     55  NE2       12.1420   -3.7490   18.1210 N.ar  116  HIS116     -0.2212
     56  N          8.3970    3.5370   15.2240 N.3   118  VAL118     -0.1245
     57  CA         9.2520    4.5810   15.8760 C.3   118  VAL118      0.1561
     58  C          8.5190    5.9010   15.9000 C.2   118  VAL118      0.2260
     59  O          8.0560    6.3480   14.8780 O.2   118  VAL118     -0.2867
     60  CB        10.5620    4.7180   15.1420 C.3   118  VAL118      0.0252
     61  CG1       11.4260    5.8560   15.8170 C.3   118  VAL118      0.0019
     62  CG2       11.3140    3.3800   15.0750 C.3   118  VAL118      0.0019
     63  N         12.5400   15.0440   14.7640 N.3   127  PHE127     -0.1241
     64  CA        13.2300   13.8300   15.1770 C.3   127  PHE127      0.1605
     65  C         14.6540   14.0920   15.5300 C.2   127  PHE127      0.2264
     66  O         15.1810   13.5120   16.5140 O.2   127  PHE127     -0.2867
     67  CB        13.1210   12.7940   14.0010 C.3   127  PHE127      0.0534
     68  CG        13.8860   11.5220   14.2290 C.ar  127  PHE127     -0.0203
     69  CD1       13.2390   10.4550   14.8520 C.ar  127  PHE127     -0.0042
     70  CD2       15.2230   11.4270   13.9020 C.ar  127  PHE127     -0.0042
     71  CE1       13.9090    9.3100   15.0910 C.ar  127  PHE127     -0.0003
     72  CE2       15.9400   10.2230   14.1430 C.ar  127  PHE127     -0.0003
     73  CZ        15.2400    9.1690   14.7280 C.ar  127  PHE127     -0.0000
     74  N         12.1920    9.5500   22.2020 N.3   137  LEU137     -0.1245
     75  CA        11.5150    8.5460   21.3160 C.3   137  LEU137      0.1561
     76  C         10.6240    7.6090   22.1270 C.2   137  LEU137      0.2260
     77  O         10.8850    7.3480   23.3190 O.2   137  LEU137     -0.2867
     78  CB        12.5890    7.6840   20.5860 C.3   137  LEU137      0.0270
     79  CG        13.5350    8.4680   19.6830 C.3   137  LEU137      0.0019
     80  CD1       14.4490    7.4880   19.0310 C.3   137  LEU137      0.0001
     81  CD2       12.7910    9.2910   18.5430 C.3   137  LEU137      0.0001
     82  N          9.2660    3.6730   21.1210 N.3   139  VAL139     -0.1245
     83  CA         9.1750    2.6380   20.1230 C.3   139  VAL139      0.1561
     84  C          8.2050    1.5790   20.5970 C.2   139  VAL139      0.2260
     85  O          8.3440    1.0470   21.7170 O.2   139  VAL139     -0.2867
     86  CB        10.5150    2.0110   19.8460 C.3   139  VAL139      0.0252
     87  CG1       10.3310    0.9470   18.6700 C.3   139  VAL139      0.0019
     88  CG2       11.4910    3.1230   19.3520 C.3   139  VAL139      0.0019
     89  N         18.0280    2.9510   21.0530 N.3   194  LEU194     -0.1231
     90  CA        17.9630    2.3210   19.7120 C.3   194  LEU194      0.1693
     91  C         18.7080    0.9780   19.8040 C.2   194  LEU194      0.2593
     92  O         19.7320    0.8270   20.5130 O.2   194  LEU194     -0.2718
     93  CB        18.7240    3.1780   18.6860 C.3   194  LEU194      0.0284
     94  CG        18.4030    4.6780   18.6320 C.3   194  LEU194      0.0019
     95  CD1       19.1560    5.2140   17.3630 C.3   194  LEU194      0.0001
     96  CD2       16.9290    4.9450   18.4670 C.3   194  LEU194      0.0001
     97  N         18.3070    0.0270   18.9640 N.am  195  THR195     -0.1939
     98  CA        19.0330   -1.2630   18.9950 C.3   195  THR195      0.2028
     99  C         20.0100   -1.3070   17.8380 C.2   195  THR195      0.2642
    100  O         20.6950   -2.3250   17.6700 O.2   195  THR195     -0.2714
    101  CB        18.0270   -2.4260   18.8380 C.3   195  THR195      0.1808
    102  OG1       17.2890   -2.2900   17.5990 O.3   195  THR195     -0.2208
    103  CG2       17.0590   -2.4430   20.0200 C.3   195  THR195      0.0379
    104  N         20.1340   -0.2420   17.0430 N.am  196  THR196     -0.1950
    105  CA        21.2020   -0.1850   16.0050 C.3   196  THR196      0.1897
    106  C         22.0620    1.0110   16.3580 C.2   196  THR196      0.2313
    107  O         21.6090    2.0040   16.9530 O.2   196  THR196     -0.2863
    108  CB        20.5660    0.0610   14.6580 C.3   196  THR196      0.1794
    109  OG1       19.6680    1.1840   14.7620 O.3   196  THR196     -0.2208
    110  CG2       19.7600   -1.1160   14.2370 C.3   196  THR196      0.0378
    111  N         23.3170    4.5470   16.0290 N.3   198  PRO198     -0.2116
    112  CA        24.2700    4.9320   17.0850 C.3   198  PRO198      0.1372
    113  C         23.8600    4.6000   18.5350 C.2   198  PRO198      0.2244
    114  O         24.4660    5.1220   19.4790 O.2   198  PRO198     -0.2868
    115  CB        24.4050    6.4470   16.9110 C.3   198  PRO198      0.0268
    116  CG        23.1040    6.8720   16.3590 C.3   198  PRO198      0.0207
    117  CD        22.5810    5.7090   15.4930 C.3   198  PRO198      0.0892
    118  N         10.6160    2.2360   25.7150 N.3   205  TRP205     -0.1241
    119  CA        10.1600    1.0390   25.0060 C.3   205  TRP205      0.1605
    120  C          8.7920    0.6390   25.4860 C.2   205  TRP205      0.2264
    121  O          8.5530    0.5610   26.7160 O.2   205  TRP205     -0.2867
    122  CB        11.1380   -0.1850   25.1910 C.3   205  TRP205      0.0550
    123  CG        12.2480   -0.0590   24.1980 C.ar  205  TRP205      0.0003
    124  CD1       13.5210    0.4930   24.3950 C.ar  205  TRP205      0.0946
    125  CD2       12.2140   -0.4920   22.8280 C.ar  205  TRP205      0.0152
    126  NE1       14.2350    0.4770   23.2040 N.ar  205  TRP205     -0.2442
    127  CE2       13.4540   -0.1820   22.2420 C.ar  205  TRP205      0.0810
    128  CE3       11.2620   -1.1530   22.0640 C.ar  205  TRP205      0.0012
    129  CZ2       13.7190   -0.4280   20.9010 C.ar  205  TRP205      0.0191
    130  CZ3       11.5070   -1.4020   20.7640 C.ar  205  TRP205      0.0001
    131  CH2       12.7580   -1.1140   20.1730 C.ar  205  TRP205      0.0015
@<TRIPOS>BOND
     1     1     2    1
     2     2     3    1
     3     2     5    1
     4     3     4    2
     5    12    11    2
     6     5     6    1
     7    11    10    1
     8     9    10    1
     9     7     6    2
    10    10    13    1
    11     6     8   am
    12    13    14    1
    13    14    16   am
    14    14    15    2
    15    21    18    1
    16    21    22    1
    17    30    27    1
    18    30    31    1
    19    27    26    1
    20    27    28    1
    21    18    19    1
    22    18    17    1
    23    22    23    1
    24    25    23   am
    25    19    20    2
    26    28    29    2
    27    23    24    2
    28    31    32   ar
    29    31    33   ar
    30    32    34   ar
    31    36    37    1
    32    38    37    1
    33    38    39    2
    34    33    35   ar
    35    37    40    1
    36    34    35   ar
    37    49    48    2
    38    70    72   ar
    39    70    68   ar
    40    67    68    1
    41    67    64    1
    42    40    41    1
    43    72    73   ar
    44    42    41   ar
    45    42    44   ar
    46    68    69   ar
    47   110   108    1
    48    41    43   ar
    49    44    45   ar
    50   108   109    1
    51   108   105    1
    52    73    71   ar
    53    63    64    1
    54    43    45   ar
    55    69    71   ar
    56    59    58    2
    57    46    47    1
    58    48    47    1
    59    62    60    1
    60    60    61    1
    61    60    57    1
    62    64    65    1
    63    56    57    1
    64   117   111    1
    65   117   116    1
    66    65    66    2
    67    47    50    1
    68    50    51    1
    69    57    58    1
    70   105   106    1
    71   105   104    1
    72   111   112    1
    73   106   107    2
    74   116   115    1
    75    51    52   ar
    76    51    53   ar
    77    52    54   ar
    78   115   112    1
    79   104    99   am
    80   112   113    1
    81    95    94    1
    82    53    55   ar
    83    54    55   ar
    84   102   101    1
    85   100    99    2
    86    99    98    1
    87    96    94    1
    88   113   114    2
    89    81    79    1
    90    94    93    1
    91    87    86    1
    92    93    90    1
    93   101    98    1
    94   101   103    1
    95    97    98    1
    96    97    91   am
    97    80    79    1
    98    88    86    1
    99    79    78    1
   100    90    91    1
   101    90    89    1
   102    91    92    2
   103    86    83    1
   104    83    84    1
   105    83    82    1
   106   131   130   ar
   107   131   129   ar
   108    78    75    1
   109    84    85    2
   110   130   128   ar
   111   129   127   ar
   112    75    76    1
   113    75    74    1
   114   128   125   ar
   115    76    77    2
   116   127   125   ar
   117   127   126   ar
   118   125   123   ar
   119   126   124   ar
   120   123   124   ar
   121   123   122    1
   122   119   122    1
   123   119   120    1
   124   119   118    1
   125   120   121    2
