@<TRIPOS>MOLECULE
tmp/4q8bB00.pdb
 94 93 0 0 0
SMALL
GASTEIGER

@<TRIPOS>ATOM
      1  N         26.4870  -44.8890   48.9080 N.3   220  PRO220     -0.2102
      2  CA        25.1120  -45.3450   48.6290 C.3   220  PRO220      0.1504
      3  C         24.0350  -44.2770   48.8520 C.2   220  PRO220      0.2575
      4  O         22.8740  -44.5670   48.6710 O.2   220  PRO220     -0.2718
      5  CB        24.9420  -46.5040   49.6290 C.3   220  PRO220      0.0282
      6  CG        25.8450  -46.1510   50.7890 C.3   220  PRO220      0.0208
      7  CD        27.0230  -45.4540   50.1710 C.3   220  PRO220      0.0893
      8  N         24.4120  -43.0540   49.2080 N.am  221  ALA221     -0.1980
      9  CA        23.4710  -42.0150   49.5240 C.3   221  ALA221      0.1597
     10  C         24.2390  -40.7310   49.4820 C.2   221  ALA221      0.2287
     11  O         25.4070  -40.6980   49.8890 O.2   221  ALA221     -0.2864
     12  CB        22.8610  -42.2080   50.9040 C.3   221  ALA221      0.0319
     13  N         19.7140  -56.1080   48.9760 N.3   363  GLY363     -0.1210
     14  CA        21.0650  -55.5160   49.0810 C.3   363  GLY363      0.1956
     15  C         22.0560  -56.6320   49.2320 C.2   363  GLY363      0.2612
     16  O         21.7450  -57.6720   49.8490 O.2   363  GLY363     -0.2717
     17  N         23.2210  -56.4800   48.6150 N.am  364  THR364     -0.1952
     18  CA        24.2390  -57.4850   48.7370 C.3   364  THR364      0.1897
     19  C         25.5100  -56.7120   48.9230 C.2   364  THR364      0.2313
     20  O         25.4450  -55.5170   49.2430 O.2   364  THR364     -0.2863
     21  CB        24.3250  -58.4060   47.5150 C.3   364  THR364      0.1794
     22  OG1       25.3350  -59.3770   47.7540 O.3   364  THR364     -0.2208
     23  CG2       24.6990  -57.6570   46.2080 C.3   364  THR364      0.0378
     24  N         28.0650  -51.9020   50.0040 N.3   371  PRO371     -0.2102
     25  CA        26.7070  -52.2980   49.5920 C.3   371  PRO371      0.1504
     26  C         26.4780  -52.2080   48.0810 C.2   371  PRO371      0.2576
     27  O         27.0310  -51.3260   47.4390 O.2   371  PRO371     -0.2718
     28  CB        25.8120  -51.2970   50.3460 C.3   371  PRO371      0.0282
     29  CG        26.6920  -50.0830   50.5010 C.3   371  PRO371      0.0208
     30  CD        28.0840  -50.6020   50.7130 C.3   371  PRO371      0.0893
     31  N         25.7400  -53.1660   47.5170 N.am  372  VAL372     -0.1966
     32  CA        25.3030  -53.1400   46.1370 C.3   372  VAL372      0.1727
     33  C         23.7940  -53.3500   46.2360 C.2   372  VAL372      0.2616
     34  O         23.3260  -54.2770   46.9100 O.2   372  VAL372     -0.2715
     35  CB        25.8750  -54.2780   45.2950 C.3   372  VAL372      0.0290
     36  CG1       25.5770  -54.0460   43.8220 C.3   372  VAL372      0.0023
     37  CG2       27.3860  -54.4040   45.4680 C.3   372  VAL372      0.0023
     38  N         23.0380  -52.4560   45.6350 N.am  373  LEU373     -0.1977
     39  CA        21.5860  -52.5600   45.6100 C.3   373  LEU373      0.1596
     40  C         21.0860  -53.1800   44.3350 C.2   373  LEU373      0.2287
     41  O         21.5190  -52.7640   43.2810 O.2   373  LEU373     -0.2864
     42  CB        20.9840  -51.1920   45.8400 C.3   373  LEU373      0.0297
     43  CG        21.0860  -51.0370   47.3690 C.3   373  LEU373      0.0022
     44  CD1       21.4670  -49.6630   47.8250 C.3   373  LEU373      0.0001
     45  CD2       19.8240  -51.5090   48.0710 C.3   373  LEU373      0.0001
     46  N         14.2970  -54.2580   52.4910 N.3   402  THR402     -0.1203
     47  CA        15.5600  -53.5590   52.7940 C.3   402  THR402      0.1994
     48  C         15.2050  -52.5100   53.8250 C.2   402  THR402      0.2618
     49  O         14.0470  -52.2930   54.1330 O.2   402  THR402     -0.2717
     50  CB        16.1660  -52.8680   51.5270 C.3   402  THR402      0.1784
     51  OG1       15.3720  -51.7350   51.2200 O.3   402  THR402     -0.2211
     52  CG2       16.2350  -53.7690   50.3140 C.3   402  THR402      0.0376
     53  N         16.1730  -51.7420   54.2730 N.am  403  ARG403     -0.1965
     54  CA        15.9230  -50.7430   55.3040 C.3   403  ARG403      0.1729
     55  C         15.2720  -49.4450   54.8770 C.2   403  ARG403      0.2617
     56  O         14.8130  -48.6890   55.7280 O.2   403  ARG403     -0.2715
     57  CB        17.2390  -50.4070   56.0480 C.3   403  ARG403      0.0348
     58  CG        18.3680  -49.8350   55.1990 C.3   403  ARG403      0.0492
     59  CD        19.7450  -49.9760   55.8710 C.3   403  ARG403      0.2205
     60  NE        20.1310  -51.3840   56.0530 N.pl3 403  ARG403     -0.0865
     61  CZ        21.3810  -51.8470   56.1180 C.cat 403  ARG403      0.5346
     62  NH1       22.4340  -51.0330   56.0270 N.pl3 403  ARG403      0.1354
     63  NH2       21.5850  -53.1470   56.2680 N.pl3 403  ARG403      0.1354
     64  N         15.1940  -49.1750   53.5740 N.am  404  GLY404     -0.1940
     65  CA        14.7770  -47.8510   53.1590 C.3   404  GLY404      0.2014
     66  C         13.7390  -47.8800   52.0600 C.2   404  GLY404      0.2640
     67  O         13.5020  -48.9030   51.5010 O.2   404  GLY404     -0.2714
     68  N         13.1100  -46.7500   51.8480 N.am  405  THR405     -0.1936
     69  CA        12.2150  -46.5540   50.7240 C.3   405  THR405      0.2028
     70  C         13.0380  -46.4570   49.4410 C.2   405  THR405      0.2642
     71  O         14.0990  -45.7840   49.4170 O.2   405  THR405     -0.2714
     72  CB        11.4140  -45.2500   50.8840 C.3   405  THR405      0.1808
     73  OG1       10.5470  -45.4000   51.9880 O.3   405  THR405     -0.2208
     74  CG2       10.5910  -44.9090   49.6250 C.3   405  THR405      0.0379
     75  N         12.5950  -47.1510   48.3930 N.am  406  HIS406     -0.1973
     76  CA        13.1700  -46.9700   47.0710 C.3   406  HIS406      0.1656
     77  C         12.0990  -46.3970   46.1330 C.2   406  HIS406      0.2291
     78  O         11.0200  -47.0090   45.9940 O.2   406  HIS406     -0.2864
     79  CB        13.6830  -48.2780   46.5240 C.3   406  HIS406      0.0771
     80  CG        14.7190  -48.9000   47.3800 C.ar  406  HIS406      0.0820
     81  ND1       16.0450  -48.5340   47.3160 N.ar  406  HIS406     -0.2267
     82  CD2       14.6250  -49.8060   48.3780 C.ar  406  HIS406      0.1154
     83  CE1       16.7310  -49.2080   48.2200 C.ar  406  HIS406      0.1986
     84  NE2       15.8920  -49.9870   48.8800 N.ar  406  HIS406     -0.2212
     85  N         21.8950  -45.4680   44.1450 N.3   484  HIS484     -0.1241
     86  CA        21.4620  -46.8630   43.9820 C.3   484  HIS484      0.1621
     87  C         21.4440  -47.2940   42.5310 C.2   484  HIS484      0.2264
     88  O         21.8840  -48.3800   42.2050 O.2   484  HIS484     -0.2867
     89  CB        20.0720  -47.0780   44.5760 C.3   484  HIS484      0.0745
     90  CG        20.0040  -46.8540   46.0560 C.ar  484  HIS484      0.0817
     91  ND1       18.8500  -47.0160   46.7990 N.ar  484  HIS484     -0.2268
     92  CD2       20.9640  -46.4950   46.9440 C.ar  484  HIS484      0.1154
     93  CE1       19.0960  -46.7380   48.0660 C.ar  484  HIS484      0.1986
     94  NE2       20.3690  -46.3960   48.1750 N.ar  484  HIS484     -0.2212
@<TRIPOS>BOND
     1    88    87    2
     2    87    86    1
     3    41    40    2
     4    36    35    1
     5    86    85    1
     6    86    89    1
     7    40    39    1
     8    89    90    1
     9    35    37    1
    10    35    32    1
    11    39    38    1
    12    39    42    1
    13    38    33   am
    14    42    43    1
    15    78    77    2
    16    90    91   ar
    17    90    92   ar
    18    77    76    1
    19    32    33    1
    20    32    31    1
    21    23    21    1
    22    33    34    2
    23    79    76    1
    24    79    80    1
    25    91    93   ar
    26    92    94   ar
    27    76    75    1
    28    81    80   ar
    29    81    83   ar
    30    43    44    1
    31    43    45    1
    32    80    82   ar
    33    27    26    2
    34    21    22    1
    35    21    18    1
    36    31    26   am
    37    93    94   ar
    38    26    25    1
    39    83    84   ar
    40    82    84   ar
    41    75    70   am
    42    17    18    1
    43    17    15   am
    44     2     3    1
    45     2     1    1
    46     2     5    1
    47     4     3    2
    48    18    19    1
    49     3     8   am
    50     1     7    1
    51    19    20    2
    52    13    14    1
    53    14    15    1
    54     8     9    1
    55    15    16    2
    56    71    70    2
    57    70    69    1
    58    10     9    1
    59    10    11    2
    60     9    12    1
    61    25    24    1
    62    25    28    1
    63    74    72    1
    64     5     6    1
    65    24    30    1
    66     7     6    1
    67    52    50    1
    68    28    29    1
    69    29    30    1
    70    69    72    1
    71    69    68    1
    72    72    73    1
    73    51    50    1
    74    67    66    2
    75    50    47    1
    76    68    66   am
    77    66    65    1
    78    46    47    1
    79    47    48    1
    80    65    64    1
    81    64    55   am
    82    48    49    2
    83    48    53   am
    84    53    54    1
    85    55    54    1
    86    55    56    2
    87    58    59    1
    88    58    57    1
    89    54    57    1
    90    59    60    1
    91    62    61    1
    92    60    61    2
    93    61    63    1
