@<TRIPOS>MOLECULE
tmp/4q8iA00.pdb
 144 135 0 0 0
SMALL
GASTEIGER

@<TRIPOS>ATOM
      1  N         17.8950   12.4880    3.9940 N.3    41  CYS41      -0.1221
      2  CA        16.4470   12.4400    4.0940 C.3    41  CYS41       0.1808
      3  C         16.0680   11.9950    5.5030 C.2    41  CYS41       0.2601
      4  O         16.7440   12.3510    6.4600 O.2    41  CYS41      -0.2717
      5  CB        15.8470   11.5450    3.0150 C.3    41  CYS41       0.0970
      6  SG        16.2950   12.1300    1.3690 S.3    41  CYS41      -0.0800
      7  N         15.0120   11.2010    5.6370 N.am   42  SER42      -0.1952
      8  CA        14.5160   10.8550    6.9720 C.3    42  SER42       0.1924
      9  C         15.4130    9.9370    7.7970 C.2    42  SER42       0.2314
     10  O         15.0910    9.6360    8.9450 O.2    42  SER42      -0.2863
     11  CB        13.1280   10.2320    6.8830 C.3    42  SER42       0.2116
     12  OG        12.1670   11.1840    6.4560 O.3    42  SER42      -0.2180
     13  N         16.5680   10.7230   11.5130 N.3    45  LYS45      -0.1245
     14  CA        15.6380   10.6340   12.6210 C.3    45  LYS45       0.1561
     15  C         16.0330    9.5580   13.6270 C.2    45  LYS45       0.2260
     16  O         15.6720    9.6610   14.7920 O.2    45  LYS45      -0.2867
     17  CB        14.2120   10.4030   12.1120 C.3    45  LYS45       0.0271
     18  CG        13.6600   11.5730   11.3200 C.3    45  LYS45       0.0035
     19  CD        12.3330   11.2180   10.6630 C.3    45  LYS45       0.0206
     20  CE        11.9450   12.2470    9.5940 C.3    45  LYS45       0.1093
     21  NZ        10.6540   11.8530    8.9650 N.3    45  LYS45      -0.1314
     22  N          4.9490   19.0010    6.3110 N.3    74  SER74      -0.1202
     23  CA         5.5580   17.8650    5.6440 C.3    74  SER74       0.2020
     24  C          4.7180   16.6320    5.9650 C.2    74  SER74       0.2618
     25  O          3.7800   16.7060    6.7600 O.2    74  SER74      -0.2717
     26  CB         6.9950   17.6790    6.1300 C.3    74  SER74       0.2103
     27  OG         7.0350   17.4720    7.5390 O.3    74  SER74      -0.2182
     28  N          5.0390   15.5200    5.3680 N.am   75  ILE75      -0.1979
     29  CA         4.3560   14.2770    5.5810 C.3    75  ILE75       0.1595
     30  C          4.4320   13.8810    7.0310 C.2    75  ILE75       0.2287
     31  O          5.4920   13.7280    7.5450 O.2    75  ILE75      -0.2864
     32  CB         5.0090   13.1700    4.7560 C.3    75  ILE75       0.0276
     33  CG1        4.8450   13.4360    3.2690 C.3    75  ILE75       0.0022
     34  CG2        4.4190   11.8440    5.0800 C.3    75  ILE75       0.0022
     35  CD1        5.5800   12.5040    2.3690 C.3    75  ILE75       0.0001
     36  N          1.9020   11.4920    9.0910 N.3    77  PRO77      -0.2116
     37  CA         0.7630   10.6030    9.2970 C.3    77  PRO77       0.1372
     38  C          0.2210   10.5870   10.7270 C.2    77  PRO77       0.2244
     39  O         -0.9800   10.4280   10.9020 O.2    77  PRO77      -0.2868
     40  CB         1.3010    9.2460    8.8810 C.3    77  PRO77       0.0268
     41  CG         2.5720    9.5040    8.1750 C.3    77  PRO77       0.0207
     42  CD         3.0980   10.7430    8.7880 C.3    77  PRO77       0.0892
     43  N          6.8480    5.7380   11.5510 N.3    99  TYR99      -0.1227
     44  CA         6.0500    6.2600   10.4470 C.3    99  TYR99       0.1736
     45  C          6.7870    7.3330    9.6490 C.2    99  TYR99       0.2596
     46  O          6.2430    7.8890    8.7000 O.2    99  TYR99      -0.2718
     47  CB         4.7010    6.7800   10.9560 C.3    99  TYR99       0.0548
     48  CG         3.7600    5.6580   11.3260 C.ar   99  TYR99      -0.0200
     49  CD1        3.0340    4.9960   10.3530 C.ar   99  TYR99      -0.0009
     50  CD2        3.6240    5.2430   12.6420 C.ar   99  TYR99      -0.0009
     51  CE1        2.1770    3.9610   10.6800 C.ar   99  TYR99       0.0417
     52  CE2        2.7750    4.2080   12.9820 C.ar   99  TYR99       0.0417
     53  CZ         2.0540    3.5690   11.9930 C.ar   99  TYR99       0.1957
     54  OH         1.2050    2.5370   12.3150 O.3    99  TYR99      -0.2866
     55  N          8.0380    7.5880   10.0250 N.am  100  SER100     -0.1952
     56  CA         8.8490    8.6360    9.4100 C.3   100  SER100      0.1924
     57  C          8.0910    9.9650    9.3410 C.2   100  SER100      0.2314
     58  O          8.0840   10.6560    8.3250 O.2   100  SER100     -0.2863
     59  CB         9.3620    8.2070    8.0380 C.3   100  SER100      0.2116
     60  OG        10.5560    8.8930    7.7200 O.3   100  SER100     -0.2180
     61  N          7.3980   13.6750    9.6900 N.3   102  GLY102     -0.1225
     62  CA         8.2520   14.8420    9.5590 C.3   102  GLY102      0.1811
     63  C          8.0080   15.9160   10.6050 C.2   102  GLY102      0.2280
     64  O          8.9470   16.5560   11.0780 O.2   102  GLY102     -0.2866
     65  N         12.3830   19.7370    8.3290 N.3   140  GLU140     -0.1231
     66  CA        11.3940   19.3320    7.3340 C.3   140  GLU140      0.1684
     67  C         10.5710   20.5420    6.9080 C.2   140  GLU140      0.2434
     68  O         10.1980   21.3600    7.7510 O.2   140  GLU140     -0.2733
     69  CB        10.4680   18.2540    7.8990 C.3   140  GLU140      0.0402
     70  CG        11.1750   17.0040    8.3810 C.3   140  GLU140      0.1161
     71  CD        11.5940   16.0830    7.2590 C.2   140  GLU140      0.3649
     72  OE1       11.3990   16.4290    6.0710 O.co2 140  GLU140     -0.2457
     73  OE2       12.1150   14.9990    7.5720 O.co2 140  GLU140     -0.2457
     74  N         10.2690   20.6550    5.5980 N.am  141  PRO141     -0.2729
     75  CA        10.6270   19.7070    4.5420 C.3   141  PRO141      0.1401
     76  C         11.8680   20.1080    3.7440 C.2   141  PRO141      0.2269
     77  O         12.2000   19.4010    2.7990 O.2   141  PRO141     -0.2865
     78  CB         9.4220   19.7920    3.6080 C.3   141  PRO141      0.0296
     79  CG         9.0520   21.2250    3.6710 C.3   141  PRO141      0.0237
     80  CD         9.3220   21.6710    5.1010 C.3   141  PRO141      0.0939
     81  N         15.1780   17.7240    2.4910 N.3   144  ASN144     -0.1240
     82  CA        15.0830   16.7040    1.4450 C.3   144  ASN144      0.1653
     83  C         15.3220   17.2330    0.0380 C.2   144  ASN144      0.2266
     84  O         15.3320   16.4620   -0.9200 O.2   144  ASN144     -0.2867
     85  CB        13.6880   16.0750    1.4610 C.3   144  ASN144      0.1155
     86  CG        13.3800   15.3960    2.7730 C.2   144  ASN144      0.2627
     87  OD1       14.1140   14.5140    3.2050 O.2   144  ASN144     -0.2716
     88  ND2       12.3080   15.8290    3.4350 N.am  144  ASN144     -0.0877
     89  N          7.3820    0.6650   10.2880 N.3   189  THR189     -0.1203
     90  CA         6.3490    0.2600    9.3280 C.3   189  THR189      0.1994
     91  C          6.6910    0.6250    7.8860 C.2   189  THR189      0.2618
     92  O          5.9610    0.2620    6.9530 O.2   189  THR189     -0.2717
     93  CB         4.9970    0.9220    9.6290 C.3   189  THR189      0.1784
     94  OG1        5.0790    2.3260    9.3500 O.3   189  THR189     -0.2211
     95  CG2        4.5930    0.7030   11.0810 C.3   189  THR189      0.0376
     96  N          7.7770    1.3610    7.6870 N.am  190  THR190     -0.1952
     97  CA         8.0120    1.9230    6.3570 C.3   190  THR190      0.1897
     98  C          9.0430    1.1850    5.5180 C.2   190  THR190      0.2313
     99  O          9.3310    1.6090    4.4040 O.2   190  THR190     -0.2863
    100  CB         8.4660    3.3790    6.4180 C.3   190  THR190      0.1794
    101  OG1        9.7830    3.4410    6.9780 O.3   190  THR190     -0.2208
    102  CG2        7.5040    4.2210    7.2370 C.3   190  THR190      0.0378
    103  N         12.5750   -2.6420    1.3280 N.3   194  ARG194     -0.1245
    104  CA        13.9610   -2.2120    1.2220 C.3   194  ARG194      0.1563
    105  C         14.9300   -3.2720    1.7540 C.2   194  ARG194      0.2260
    106  O         14.9180   -4.4020    1.2720 O.2   194  ARG194     -0.2867
    107  CB        14.1350   -0.8240    1.8480 C.3   194  ARG194      0.0307
    108  CG        13.2760    0.1950    1.0800 C.3   194  ARG194      0.0489
    109  CD        13.4330    1.6630    1.5010 C.3   194  ARG194      0.2205
    110  NE        12.4230    2.4890    0.8340 N.pl3 194  ARG194     -0.0865
    111  CZ        12.4630    3.8200    0.7390 C.cat 194  ARG194      0.5346
    112  NH1       11.4890    4.4670    0.1180 N.pl3 194  ARG194      0.1354
    113  NH2       13.4710    4.5090    1.2540 N.pl3 194  ARG194      0.1354
    114  N         14.0830    4.2690    7.2070 N.3   209  THR209     -0.1203
    115  CA        14.1720    4.6670    5.8110 C.3   209  THR209      0.1994
    116  C         14.3480    6.1800    5.6210 C.2   209  THR209      0.2618
    117  O         14.2480    6.9800    6.5660 O.2   209  THR209     -0.2717
    118  CB        12.8960    4.2650    5.0740 C.3   209  THR209      0.1784
    119  OG1       11.7660    4.8230    5.7630 O.3   209  THR209     -0.2211
    120  CG2       12.7630    2.7230    5.0170 C.3   209  THR209      0.0376
    121  N         14.5890    6.5590    4.3740 N.am  210  GLY210     -0.1942
    122  CA        14.6070    7.9500    3.9710 C.3   210  GLY210      0.2014
    123  C         14.1350    8.0110    2.5410 C.2   210  GLY210      0.2640
    124  O         14.4570    7.1360    1.7360 O.2   210  GLY210     -0.2714
    125  N         13.3370    9.0190    2.2260 N.am  211  THR211     -0.1936
    126  CA        12.8480    9.1760    0.8590 C.3   211  THR211      0.2028
    127  C         12.8200   10.6640    0.5670 C.2   211  THR211      0.2642
    128  O         12.5400   11.4620    1.4530 O.2   211  THR211     -0.2714
    129  CB        11.4430    8.5560    0.6790 C.3   211  THR211      0.1808
    130  OG1       11.4410    7.1990    1.1490 O.3   211  THR211     -0.2208
    131  CG2       11.0340    8.5660   -0.7740 C.3   211  THR211      0.0379
    132  N         13.1270   11.0510   -0.6640 N.am  212  GLY212     -0.1954
    133  CA        13.1350   12.4570   -0.9860 C.3   212  GLY212      0.1869
    134  C         13.0770   12.7700   -2.4600 C.2   212  GLY212      0.2309
    135  O         12.7890   11.9160   -3.2890 O.2   212  GLY212     -0.2863
    136  N         12.3790    1.8060   -4.7100 N.3   250  GLU250     -0.1245
    137  CA        12.7120    0.9320   -3.5750 C.3   250  GLU250      0.1567
    138  C         13.3650   -0.3730   -4.0010 C.2   250  GLU250      0.2260
    139  O         14.1680   -0.9450   -3.2670 O.2   250  GLU250     -0.2867
    140  CB        11.4550    0.5780   -2.7690 C.3   250  GLU250      0.0388
    141  CG        10.7340    1.7570   -2.1800 C.3   250  GLU250      0.1160
    142  CD         9.6180    1.3320   -1.2600 C.2   250  GLU250      0.3649
    143  OE1        8.5430    0.9410   -1.7650 O.co2 250  GLU250     -0.2457
    144  OE2        9.8320    1.3820   -0.0300 O.co2 250  GLU250     -0.2457
@<TRIPOS>BOND
     1   136   137    1
     2   138   137    1
     3   138   139    2
     4   137   140    1
     5   135   134    2
     6   140   141    1
     7   134   133    1
     8   141   142    1
     9   143   142   ar
    10   142   144   ar
    11   133   132    1
    12    84    83    2
    13   131   129    1
    14   132   127   am
    15    83    82    1
    16   112   111    1
    17   127   126    1
    18   127   128    2
    19   129   126    1
    20   129   130    1
    21   111   110    2
    22   111   113    1
    23   110   109    1
    24   126   125    1
    25   108   109    1
    26   108   107    1
    27   104   103    1
    28   104   105    1
    29   104   107    1
    30   106   105    2
    31     6     5    1
    32    82    85    1
    33    82    81    1
    34    85    86    1
    35   124   123    2
    36   125   123   am
    37    35    33    1
    38   123   122    1
    39    86    87    2
    40    86    88   am
    41    77    76    2
    42     5     2    1
    43    33    32    1
    44    78    79    1
    45    78    75    1
    46    79    80    1
    47    76    75    1
    48   122   121    1
    49     1     2    1
    50     2     3    1
    51   121   116   am
    52    99    98    2
    53    75    74    1
    54    32    34    1
    55    32    29    1
    56   120   118    1
    57   118   119    1
    58   118   115    1
    59    80    74    1
    60    28    29    1
    61    28    24   am
    62     3     7   am
    63     3     4    2
    64    98    97    1
    65    29    30    1
    66    74    67   am
    67   116   115    1
    68   116   117    2
    69     7     8    1
    70    23    24    1
    71    23    26    1
    72    23    22    1
    73   115   114    1
    74    24    25    2
    75    72    71   ar
    76    26    27    1
    77    97   100    1
    78    97    96    1
    79   100   101    1
    80   100   102    1
    81    12    11    1
    82    11     8    1
    83    67    66    1
    84    67    68    2
    85    92    91    2
    86     8     9    1
    87    30    31    2
    88    71    73   ar
    89    71    70    1
    90    66    69    1
    91    66    65    1
    92    96    91   am
    93    60    59    1
    94     9    10    2
    95    91    90    1
    96    69    70    1
    97    59    56    1
    98    41    42    1
    99    41    40    1
   100    58    57    2
   101    46    45    2
   102    42    36    1
   103    40    37    1
   104    21    20    1
   105    36    37    1
   106    37    38    1
   107    90    93    1
   108    90    89    1
   109    57    56    1
   110    94    93    1
   111    56    55    1
   112    62    61    1
   113    62    63    1
   114    20    19    1
   115    93    95    1
   116    45    55   am
   117    45    44    1
   118    49    51   ar
   119    49    48   ar
   120    44    47    1
   121    44    43    1
   122    63    64    2
   123    19    18    1
   124    51    53   ar
   125    38    39    2
   126    47    48    1
   127    18    17    1
   128    48    50   ar
   129    13    14    1
   130    53    54    1
   131    53    52   ar
   132    17    14    1
   133    14    15    1
   134    50    52   ar
   135    15    16    2
