@<TRIPOS>MOLECULE
tmp/4q8sD02.pdb
 107 107 0 0 0
SMALL
GASTEIGER

@<TRIPOS>ATOM
      1  N        -19.9770  -16.7210   -9.4880 N.3    65  GLY65      -0.1210
      2  CA       -18.8680  -16.1440  -10.2260 C.3    65  GLY65       0.1956
      3  C        -19.1680  -15.7990  -11.6750 C.2    65  GLY65       0.2612
      4  O        -18.2470  -15.6320  -12.4710 O.2    65  GLY65      -0.2717
      5  N        -20.4450  -15.6790  -12.0300 N.am   66  TRP66      -0.1962
      6  CA       -20.8380  -15.3490  -13.4050 C.3    66  TRP66       0.1771
      7  C        -20.5370  -13.8910  -13.7960 C.2    66  TRP66       0.2619
      8  O        -20.4830  -13.0120  -12.9370 O.2    66  TRP66      -0.2715
      9  CB       -22.3270  -15.6350  -13.5930 C.3    66  TRP66       0.0590
     10  CG       -22.6860  -17.0990  -13.5770 C.ar   66  TRP66       0.0006
     11  CD1      -21.8340  -18.1570  -13.4410 C.ar   66  TRP66       0.0946
     12  CD2      -23.9870  -17.6590  -13.7960 C.ar   66  TRP66       0.0152
     13  NE1      -22.5220  -19.3390  -13.5750 N.ar   66  TRP66      -0.2442
     14  CE2      -23.8440  -19.0630  -13.7920 C.ar   66  TRP66       0.0810
     15  CE3      -25.2590  -17.1090  -14.0010 C.ar   66  TRP66       0.0012
     16  CZ2      -24.9270  -19.9280  -13.9850 C.ar   66  TRP66       0.0191
     17  CZ3      -26.3380  -17.9730  -14.1950 C.ar   66  TRP66       0.0001
     18  CH2      -26.1620  -19.3650  -14.1850 C.ar   66  TRP66       0.0015
     19  N        -20.3540  -13.6460  -15.0940 N.am   67  CYS67      -0.1968
     20  CA       -20.0500  -12.3080  -15.6230 C.3    67  CYS67       0.1712
     21  C        -21.1590  -11.2640  -15.4960 C.2    67  CYS67       0.2296
     22  O        -20.9610  -10.1130  -15.8800 O.2    67  CYS67      -0.2864
     23  CB       -19.6470  -12.3890  -17.0990 C.3    67  CYS67       0.0983
     24  SG       -20.9500  -13.0520  -18.1940 S.3    67  CYS67      -0.0798
     25  N        -29.0540   -8.7340  -18.8690 N.3    85  ARG85      -0.1245
     26  CA       -28.0450   -8.7430  -19.9060 C.3    85  ARG85       0.1563
     27  C        -28.6030   -8.0610  -21.1430 C.2    85  ARG85       0.2260
     28  O        -27.8510   -7.6830  -22.0330 O.2    85  ARG85      -0.2867
     29  CB       -27.6230  -10.1740  -20.2320 C.3    85  ARG85       0.0307
     30  CG       -26.9150  -10.8620  -19.0790 C.3    85  ARG85       0.0489
     31  CD       -26.2510  -12.1650  -19.5040 C.3    85  ARG85       0.2205
     32  NE       -25.6650  -12.8430  -18.3510 N.pl3  85  ARG85      -0.0865
     33  CZ       -24.8230  -13.8670  -18.4250 C.cat  85  ARG85       0.5346
     34  NH1      -24.4540  -14.3500  -19.6040 N.pl3  85  ARG85       0.1354
     35  NH2      -24.3360  -14.3980  -17.3150 N.pl3  85  ARG85       0.1354
     36  N        -27.3420  -16.5710  -19.3200 N.3    92  ALA92      -0.1231
     37  CA       -26.9260  -17.8060  -18.6800 C.3    92  ALA92       0.1694
     38  C        -28.1890  -18.1750  -17.9220 C.2    92  ALA92       0.2592
     39  O        -28.2610  -18.0050  -16.7070 O.2    92  ALA92      -0.2718
     40  CB       -25.7850  -17.5360  -17.7220 C.3    92  ALA92       0.0304
     41  N        -29.1810  -18.6930  -18.6390 N.am   93  HIS93      -0.1962
     42  CA       -30.4610  -19.0100  -18.0210 C.3    93  HIS93       0.1787
     43  C        -31.1720  -20.3000  -18.4530 C.2    93  HIS93       0.2620
     44  O        -32.1560  -20.6880  -17.8280 O.2    93  HIS93      -0.2715
     45  CB       -31.3990  -17.8390  -18.2830 C.3    93  HIS93       0.0785
     46  CG       -31.6630  -17.6160  -19.7380 C.ar   93  HIS93       0.0821
     47  ND1      -32.6920  -18.2410  -20.4060 N.ar   93  HIS93      -0.2267
     48  CD2      -30.9630  -16.9340  -20.6750 C.ar   93  HIS93       0.1154
     49  CE1      -32.6130  -17.9600  -21.6940 C.ar   93  HIS93       0.1986
     50  NE2      -31.5710  -17.1690  -21.8840 N.ar   93  HIS93      -0.2212
     51  N        -30.7050  -20.9590  -19.5130 N.am   94  ALA94      -0.1963
     52  CA       -31.3880  -22.1650  -19.9650 C.3    94  ALA94       0.1728
     53  C        -30.4940  -23.2520  -20.5750 C.2    94  ALA94       0.2617
     54  O        -30.9630  -24.0600  -21.3740 O.2    94  ALA94      -0.2715
     55  CB       -32.4840  -21.7790  -20.9500 C.3    94  ALA94       0.0334
     56  N        -29.2180  -23.2790  -20.1970 N.am   95  GLY95      -0.1941
     57  CA       -28.3140  -24.2740  -20.7360 C.3    95  GLY95       0.1998
     58  C        -27.5860  -23.8150  -21.9880 C.2    95  GLY95       0.2480
     59  O        -27.9990  -22.8470  -22.6420 O.2    95  GLY95      -0.2729
     60  N        -26.4970  -24.5080  -22.3610 N.am   96  PRO96      -0.2726
     61  CA       -25.7050  -24.1590  -23.5450 C.3    96  PRO96       0.1402
     62  C        -26.4130  -24.3310  -24.9000 C.2    96  PRO96       0.2269
     63  O        -25.9720  -23.7830  -25.9160 O.2    96  PRO96      -0.2865
     64  CB       -24.4590  -25.0300  -23.3880 C.3    96  PRO96       0.0296
     65  CG       -24.9890  -26.2480  -22.6780 C.3    96  PRO96       0.0237
     66  CD       -25.8960  -25.6410  -21.6340 C.3    96  PRO96       0.0939
     67  N        -29.2740  -20.9960  -24.5400 N.3    99  ASN99      -0.1240
     68  CA       -28.7370  -19.6610  -24.2350 C.3    99  ASN99       0.1653
     69  C        -28.3330  -18.8100  -25.4540 C.2    99  ASN99       0.2266
     70  O        -28.6510  -17.6220  -25.5090 O.2    99  ASN99      -0.2867
     71  CB       -27.5300  -19.7490  -23.2780 C.3    99  ASN99       0.1155
     72  CG       -27.9340  -19.9880  -21.8060 C.2    99  ASN99       0.2627
     73  OD1      -29.0730  -19.7530  -21.4100 O.2    99  ASN99      -0.2716
     74  ND2      -26.9780  -20.4380  -20.9990 N.am   99  ASN99      -0.0877
     75  N        -39.3540  -22.6150  -18.9320 N.3   146  HIS146     -0.1241
     76  CA       -38.0200  -23.0940  -18.6070 C.3   146  HIS146      0.1621
     77  C        -38.0080  -24.6420  -18.5130 C.2   146  HIS146      0.2264
     78  O        -37.0740  -25.2920  -18.9870 O.2   146  HIS146     -0.2867
     79  CB       -37.6160  -22.4450  -17.2790 C.3   146  HIS146      0.0745
     80  CG       -36.1860  -22.6510  -16.8870 C.ar  146  HIS146      0.0817
     81  ND1      -35.6790  -22.1790  -15.6950 N.ar  146  HIS146     -0.2268
     82  CD2      -35.1620  -23.2750  -17.5110 C.ar  146  HIS146      0.1154
     83  CE1      -34.4050  -22.5070  -15.6020 C.ar  146  HIS146      0.1986
     84  NE2      -34.0670  -23.1730  -16.6910 N.ar  146  HIS146     -0.2212
     85  N        -35.2460  -27.4030  -19.7580 N.3   150  GLN150     -0.1231
     86  CA       -34.2950  -27.7650  -18.7190 C.3   150  GLN150      0.1683
     87  C        -35.0880  -28.4910  -17.6500 C.2   150  GLN150      0.2434
     88  O        -36.2920  -28.3020  -17.5370 O.2   150  GLN150     -0.2733
     89  CB       -33.6310  -26.5280  -18.1020 C.3   150  GLN150      0.0380
     90  CG       -32.7670  -25.6880  -19.0390 C.3   150  GLN150      0.0905
     91  CD       -31.3950  -26.2670  -19.2810 C.2   150  GLN150      0.2608
     92  OE1      -31.2250  -27.1980  -20.0740 O.2   150  GLN150     -0.2717
     93  NE2      -30.4000  -25.7220  -18.5940 N.am  150  GLN150     -0.0878
     94  N        -34.4330  -29.3670  -16.8810 N.am  151  PRO151     -0.2718
     95  CA       -35.1290  -30.0990  -15.8200 C.3   151  PRO151      0.1535
     96  C        -35.1620  -29.1790  -14.5990 C.2   151  PRO151      0.2599
     97  O        -34.1440  -28.9380  -13.9430 O.2   151  PRO151     -0.2715
     98  CB       -34.2660  -31.3460  -15.6440 C.3   151  PRO151      0.0310
     99  CG       -32.9040  -30.8360  -15.9010 C.3   151  PRO151      0.0237
    100  CD       -33.0830  -29.9150  -17.1030 C.3   151  PRO151      0.0939
    101  N        -36.3540  -28.6540  -14.3370 N.am  152  THR152     -0.1951
    102  CA       -36.5910  -27.7100  -13.2620 C.3   152  THR152      0.1897
    103  C        -38.0870  -27.5180  -13.1240 C.2   152  THR152      0.2313
    104  O        -38.8450  -27.8640  -14.0240 O.2   152  THR152     -0.2863
    105  CB       -36.0010  -26.3320  -13.6210 C.3   152  THR152      0.1794
    106  OG1      -36.4170  -25.3630  -12.6560 O.3   152  THR152     -0.2208
    107  CG2      -36.4870  -25.8930  -14.9970 C.3   152  THR152      0.0378
@<TRIPOS>BOND
     1    63    62    2
     2    70    69    2
     3    69    68    1
     4    62    61    1
     5    67    68    1
     6    68    71    1
     7    61    64    1
     8    61    60    1
     9    64    65    1
    10    71    72    1
    11    65    66    1
    12    59    58    2
    13    60    58   am
    14    60    66    1
    15    28    27    2
    16    58    57    1
    17    50    49   ar
    18    50    48   ar
    19    72    73    2
    20    72    74   am
    21    49    47   ar
    22    54    53    2
    23    27    26    1
    24    55    52    1
    25    57    56    1
    26    48    46   ar
    27    53    56   am
    28    53    52    1
    29    47    46   ar
    30    29    26    1
    31    29    30    1
    32    92    91    2
    33    52    51    1
    34    26    25    1
    35    85    86    1
    36    46    45    1
    37    34    33    1
    38    51    43   am
    39    31    30    1
    40    31    32    1
    41    36    37    1
    42    91    90    1
    43    91    93   am
    44    90    89    1
    45    78    77    2
    46    75    76    1
    47    86    89    1
    48    86    87    1
    49    37    38    1
    50    37    40    1
    51    41    42    1
    52    41    38   am
    53    76    77    1
    54    76    79    1
    55    43    42    1
    56    43    44    2
    57    33    32    2
    58    33    35    1
    59    45    42    1
    60    24    23    1
    61    38    39    2
    62    87    88    2
    63    87    94   am
    64    82    80   ar
    65    82    84   ar
    66    79    80    1
    67   100    94    1
    68   100    99    1
    69    23    20    1
    70    80    81   ar
    71    94    95    1
    72    84    83   ar
    73    99    98    1
    74    22    21    2
    75    95    98    1
    76    95    96    1
    77    81    83   ar
    78    20    21    1
    79    20    19    1
    80    19     7   am
    81   107   105    1
    82    96   101   am
    83    96    97    2
    84   101   102    1
    85    17    18   ar
    86    17    15   ar
    87    18    16   ar
    88   104   103    2
    89    15    12   ar
    90    16    14   ar
    91     7     6    1
    92     7     8    2
    93    12    14   ar
    94    12    10   ar
    95    14    13   ar
    96   105   102    1
    97   105   106    1
    98     9    10    1
    99     9     6    1
   100    10    11   ar
   101    13    11   ar
   102     6     5    1
   103   102   103    1
   104     4     3    2
   105     5     3   am
   106     3     2    1
   107     2     1    1
