@<TRIPOS>MOLECULE
tmp/4q8tA00.pdb
 150 140 0 0 0
SMALL
GASTEIGER

@<TRIPOS>ATOM
      1  N          9.5550   12.5870   22.5300 N.3    92  ASP92      -0.1225
      2  CA        10.3360   13.6440   23.1650 C.3    92  ASP92       0.1805
      3  C          9.4600   14.3180   24.2240 C.2    92  ASP92       0.2598
      4  O          8.2330   14.2480   24.1560 O.2    92  ASP92      -0.2718
      5  CB        10.8610   14.6600   22.1430 C.3    92  ASP92       0.1424
      6  CG        12.0380   15.4630   22.6760 C.2    92  ASP92       0.3668
      7  OD1       12.4100   15.2590   23.8510 O.co2  92  ASP92      -0.2456
      8  OD2       12.5940   16.2860   21.9180 O.co2  92  ASP92      -0.2456
      9  N         10.1000   14.9480   25.2040 N.am   93  SER93      -0.1952
     10  CA         9.4320   15.3940   26.4250 C.3    93  SER93       0.1924
     11  C          8.8390   16.7960   26.3560 C.2    93  SER93       0.2314
     12  O          8.1260   17.2220   27.2690 O.2    93  SER93      -0.2863
     13  CB        10.4330   15.3350   27.5750 C.3    93  SER93       0.2116
     14  OG        11.5930   16.0820   27.2380 O.3    93  SER93      -0.2180
     15  N         12.6470   20.6570   24.3780 N.3    96  TYR96      -0.1227
     16  CA        13.3160   21.3090   23.2640 C.3    96  TYR96       0.1736
     17  C         12.3100   22.0860   22.4200 C.2    96  TYR96       0.2595
     18  O         12.5380   23.2500   22.0830 O.2    96  TYR96      -0.2718
     19  CB        14.0400   20.2480   22.4310 C.3    96  TYR96       0.0548
     20  CG        14.5700   20.6820   21.0820 C.ar   96  TYR96      -0.0200
     21  CD1       15.8810   21.1170   20.9340 C.ar   96  TYR96      -0.0009
     22  CD2       13.7740   20.6030   19.9450 C.ar   96  TYR96      -0.0009
     23  CE1       16.3750   21.4910   19.6940 C.ar   96  TYR96       0.0417
     24  CE2       14.2560   20.9760   18.7050 C.ar   96  TYR96       0.0417
     25  CZ        15.5560   21.4190   18.5850 C.ar   96  TYR96       0.1957
     26  OH        16.0360   21.7870   17.3510 O.3    96  TYR96      -0.2866
     27  N         11.1930   21.4450   22.0910 N.am   97  GLN97      -0.1979
     28  CA        10.2020   22.0560   21.2100 C.3    97  GLN97       0.1601
     29  C          9.5450   23.2920   21.8140 C.2    97  GLN97       0.2287
     30  O          9.2440   24.2380   21.0880 O.2    97  GLN97      -0.2864
     31  CB         9.1360   21.0390   20.7710 C.3    97  GLN97       0.0394
     32  CG         9.6750   19.8470   19.9720 C.3    97  GLN97       0.0908
     33  CD        10.2380   20.2340   18.6150 C.2    97  GLN97       0.2608
     34  OE1        9.9780   21.3220   18.1090 O.2    97  GLN97      -0.2717
     35  NE2       11.0140   19.3340   18.0180 N.am   97  GLN97      -0.0878
     36  N         13.7150   17.9990   30.0490 N.3   142  ASP142     -0.1239
     37  CA        15.0140   18.6540   30.1740 C.3   142  ASP142      0.1674
     38  C         14.9940   20.0650   29.6190 C.2   142  ASP142      0.2266
     39  O         13.9650   20.5470   29.1550 O.2   142  ASP142     -0.2867
     40  CB        16.0870   17.8530   29.4260 C.3   142  ASP142      0.1410
     41  CG        15.8590   17.8330   27.9210 C.2   142  ASP142      0.3668
     42  OD1       14.6890   17.8450   27.4810 O.co2 142  ASP142     -0.2456
     43  OD2       16.8590   17.8050   27.1720 O.co2 142  ASP142     -0.2456
     44  N         17.2580   22.1930   26.7690 N.3   144  CYS144     -0.1235
     45  CA        18.3040   22.1560   25.7570 C.3   144  CYS144      0.1677
     46  C         19.0460   23.4870   25.7870 C.2   144  CYS144      0.2270
     47  O         18.4970   24.5220   25.4110 O.2   144  CYS144     -0.2867
     48  CB        17.7080   21.8970   24.3660 C.3   144  CYS144      0.0956
     49  SG        18.9180   21.8420   23.0160 S.3   144  CYS144     -0.0801
     50  N         18.4850   12.4370   29.7520 N.3   187  ILE187     -0.1245
     51  CA        19.1320   13.2490   28.7190 C.3   187  ILE187      0.1561
     52  C         20.3310   14.0130   29.2720 C.2   187  ILE187      0.2260
     53  O         20.1940   14.8630   30.1570 O.2   187  ILE187     -0.2867
     54  CB        18.1560   14.2520   28.0650 C.3   187  ILE187      0.0252
     55  CG1       16.9090   13.5240   27.5520 C.3   187  ILE187      0.0019
     56  CG2       18.8620   15.0170   26.9470 C.3   187  ILE187      0.0019
     57  CD1       15.7980   14.4440   27.0350 C.3   187  ILE187      0.0001
     58  N         23.1950   16.7470   29.3550 N.3   189  GLN189     -0.1245
     59  CA        23.4350   18.1060   28.8730 C.3   189  GLN189      0.1566
     60  C         24.8590   18.5250   29.2310 C.2   189  GLN189      0.2260
     61  O         25.6950   17.6670   29.5070 O.2   189  GLN189     -0.2867
     62  CB        22.3820   19.0730   29.4260 C.3   189  GLN189      0.0367
     63  CG        20.9530   18.7400   28.9690 C.3   189  GLN189      0.0905
     64  CD        20.6890   19.0600   27.5010 C.2   189  GLN189      0.2608
     65  OE1       21.4600   19.7720   26.8540 O.2   189  GLN189     -0.2717
     66  NE2       19.5830   18.5410   26.9720 N.am  189  GLN189     -0.0878
     67  N         21.8410   15.0070   24.7290 N.3   215  GLY215     -0.1210
     68  CA        21.0830   16.1910   24.3770 C.3   215  GLY215      0.1956
     69  C         21.9920   17.3690   24.0880 C.2   215  GLY215      0.2612
     70  O         23.2140   17.2800   24.2380 O.2   215  GLY215     -0.2717
     71  N         21.3940   18.4780   23.6700 N.am  216  GLY216     -0.1942
     72  CA        22.1230   19.7220   23.5040 C.3   216  GLY216      0.2014
     73  C         23.0610   19.7790   22.3120 C.2   216  GLY216      0.2639
     74  O         23.8840   20.6810   22.2290 O.2   216  GLY216     -0.2714
     75  N         22.9390   18.8270   21.3890 N.am  217  LEU217     -0.1963
     76  CA        23.7250   18.8460   20.1580 C.3   217  LEU217      0.1728
     77  C         22.7930   18.9730   18.9530 C.2   217  LEU217      0.2616
     78  O         21.5700   19.0030   19.1120 O.2   217  LEU217     -0.2715
     79  CB        24.6160   17.6030   20.0670 C.3   217  LEU217      0.0311
     80  CG        25.7210   17.5420   21.1310 C.3   217  LEU217      0.0022
     81  CD1       26.5450   16.2800   20.9790 C.3   217  LEU217      0.0001
     82  CD2       26.6210   18.7840   21.0800 C.3   217  LEU217      0.0001
     83  N         23.3650   19.0550   17.7530 N.am  218  ALA218     -0.1963
     84  CA        22.6020   19.4280   16.5620 C.3   218  ALA218      0.1728
     85  C         21.8020   20.7040   16.8350 C.2   218  ALA218      0.2616
     86  O         20.5880   20.7600   16.6180 O.2   218  ALA218     -0.2715
     87  CB        21.6920   18.2840   16.0940 C.3   218  ALA218      0.0334
     88  N         22.5030   21.7170   17.3370 N.am  219  VAL219     -0.1977
     89  CA        21.8990   23.0020   17.6680 C.3   219  VAL219      0.1596
     90  C         22.6820   24.1410   17.0250 C.2   219  VAL219      0.2287
     91  O         22.6320   25.2830   17.4900 O.2   219  VAL219     -0.2864
     92  CB        21.8420   23.2140   19.1890 C.3   219  VAL219      0.0276
     93  CG1       20.8050   22.2910   19.8120 C.3   219  VAL219      0.0022
     94  CG2       23.2150   22.9720   19.8020 C.3   219  VAL219      0.0022
     95  N         19.8710   12.8620   19.9210 N.3   246  MET246     -0.1230
     96  CA        18.6160   13.5270   19.5540 C.3   246  MET246      0.1702
     97  C         18.7750   14.4830   18.3710 C.2   246  MET246      0.2592
     98  O         19.6310   15.3660   18.3880 O.2   246  MET246     -0.2718
     99  CB        18.0400   14.2690   20.7680 C.3   246  MET246      0.0401
    100  CG        18.0170   13.4070   22.0380 C.3   246  MET246      0.0596
    101  SD        16.9810   14.0880   23.3530 S.3   246  MET246     -0.1393
    102  CE        15.3500   13.8090   22.6660 C.3   246  MET246      0.0692
    103  N         17.9450   14.3000   17.3470 N.am  247  GLY247     -0.1957
    104  CA        17.8830   15.2300   16.2280 C.3   247  GLY247      0.1869
    105  C         18.9160   15.0450   15.1240 C.2   247  GLY247      0.2309
    106  O         19.0520   15.9000   14.2540 O.2   247  GLY247     -0.2863
    107  N         20.3850   12.5410   11.9680 N.3   249  GLY249     -0.1225
    108  CA        20.9080   13.6820   11.2360 C.3   249  GLY249      0.1811
    109  C         21.1170   13.2740    9.7830 C.2   249  GLY249      0.2280
    110  O         20.4450   12.3580    9.2860 O.2   249  GLY249     -0.2866
    111  N         17.0440   10.1410   15.3980 N.3   266  ASP266     -0.1225
    112  CA        15.8070   10.6150   14.7840 C.3   266  ASP266      0.1805
    113  C         16.1300   11.9040   14.0680 C.2   266  ASP266      0.2598
    114  O         16.9900   12.6600   14.5130 O.2   266  ASP266     -0.2718
    115  CB        14.7300   10.9130   15.8280 C.3   266  ASP266      0.1424
    116  CG        14.9780   12.2240   16.5600 C.2   266  ASP266      0.3668
    117  OD1       15.7750   12.2230   17.5260 O.co2 266  ASP266     -0.2456
    118  OD2       14.3990   13.2580   16.1580 O.co2 266  ASP266     -0.2456
    119  N         15.4380   12.1620   12.9650 N.am  267  CYS267     -0.1956
    120  CA        15.6260   13.3980   12.2220 C.3   267  CYS267      0.1843
    121  C         14.4800   13.6230   11.2420 C.2   267  CYS267      0.2625
    122  O         14.0010   12.6520   10.6490 O.2   267  CYS267     -0.2714
    123  CB        16.9360   13.3080   11.4460 C.3   267  CYS267      0.0997
    124  SG        17.5400   14.8760   10.8630 S.3   267  CYS267     -0.0797
    125  N         14.0980   14.8750   11.0190 N.am  268  VAL268     -0.1963
    126  CA        13.0780   15.1740   10.0210 C.3   268  VAL268      0.1727
    127  C         13.6440   15.2440    8.6060 C.2   268  VAL268      0.2616
    128  O         12.8800   15.3460    7.6560 O.2   268  VAL268     -0.2715
    129  CB        12.3430   16.5110   10.3080 C.3   268  VAL268      0.0290
    130  CG1       11.5970   16.4500   11.6340 C.3   268  VAL268      0.0023
    131  CG2       13.3160   17.6830   10.2670 C.3   268  VAL268      0.0023
    132  N         14.9650   15.1700    8.4530 N.am  269  LEU269     -0.1977
    133  CA        15.5810   15.3430    7.1330 C.3   269  LEU269      0.1596
    134  C         14.9990   14.4610    6.0100 C.2   269  LEU269      0.2287
    135  O         14.6130   14.9770    4.9660 O.2   269  LEU269     -0.2864
    136  CB        17.1080   15.2100    7.2110 C.3   269  LEU269      0.0297
    137  CG        17.9120   15.6070    5.9740 C.3   269  LEU269      0.0022
    138  CD1       17.7120   17.0800    5.6440 C.3   269  LEU269      0.0001
    139  CD2       19.3780   15.3090    6.2170 C.3   269  LEU269      0.0001
    140  N         11.1590   15.7080    5.4760 N.3   272  ARG272     -0.1245
    141  CA        11.0800   17.1010    5.0530 C.3   272  ARG272      0.1563
    142  C         11.7860   17.3460    3.7210 C.2   272  ARG272      0.2260
    143  O         11.2410   17.9890    2.8250 O.2   272  ARG272     -0.2867
    144  CB        11.6610   18.0220    6.1260 C.3   272  ARG272      0.0307
    145  CG        11.4840   19.5030    5.8200 C.3   272  ARG272      0.0489
    146  CD        12.2360   20.3570    6.8240 C.3   272  ARG272      0.2205
    147  NE        13.6820   20.1930    6.7000 N.pl3 272  ARG272     -0.0865
    148  CZ        14.5640   20.6780    7.5650 C.cat 272  ARG272      0.5346
    149  NH1       15.8620   20.4850    7.3760 N.pl3 272  ARG272      0.1354
    150  NH2       14.1450   21.3510    8.6270 N.pl3 272  ARG272      0.1354
@<TRIPOS>BOND
     1   143   142    2
     2   142   141    1
     3   135   134    2
     4   141   140    1
     5   141   144    1
     6   138   137    1
     7   145   144    1
     8   145   146    1
     9   137   139    1
    10   137   136    1
    11   134   133    1
    12   147   146    1
    13   147   148    2
    14   133   136    1
    15   133   132    1
    16   149   148    1
    17   148   150    1
    18   128   127    2
    19   132   127   am
    20   127   126    1
    21   110   109    2
    22   109   108    1
    23   126   129    1
    24   126   125    1
    25   131   129    1
    26   129   130    1
    27   122   121    2
    28   124   123    1
    29   125   121   am
    30   108   107    1
    31   121   120    1
    32   123   120    1
    33   120   119    1
    34   119   113   am
    35   113   114    2
    36   113   112    1
    37   106   105    2
    38   112   111    1
    39   112   115    1
    40   105   104    1
    41   115   116    1
    42    87    84    1
    43   118   116   ar
    44   104   103    1
    45   116   117   ar
    46    84    85    1
    47    84    83    1
    48    86    85    2
    49    85    88   am
    50    90    91    2
    51    90    89    1
    52    88    89    1
    53   103    97   am
    54    26    25    1
    55    89    92    1
    56    83    77   am
    57    35    33   am
    58    34    33    2
    59    97    98    2
    60    97    96    1
    61    25    24   ar
    62    25    23   ar
    63    33    32    1
    64    24    22   ar
    65    77    78    2
    66    77    76    1
    67    92    94    1
    68    92    93    1
    69    96    95    1
    70    96    99    1
    71    23    21   ar
    72    22    20   ar
    73    32    31    1
    74    79    76    1
    75    79    80    1
    76    76    75    1
    77    99   100    1
    78    31    28    1
    79    21    20   ar
    80    81    80    1
    81    82    80    1
    82    20    19    1
    83    30    29    2
    84    28    29    1
    85    28    27    1
    86    75    73   am
    87     8     6   ar
    88   100   101    1
    89    18    17    2
    90    27    17   am
    91     5     6    1
    92     5     2    1
    93    74    73    2
    94    73    72    1
    95    17    16    1
    96    19    16    1
    97     1     2    1
    98   102   101    1
    99     6     7   ar
   100    49    48    1
   101     2     3    1
   102    16    15    1
   103    72    71    1
   104    71    69   am
   105    69    70    2
   106    69    68    1
   107     4     3    2
   108     3     9   am
   109    48    45    1
   110    68    67    1
   111     9    10    1
   112    47    46    2
   113    45    46    1
   114    45    44    1
   115    11    10    1
   116    11    12    2
   117    10    13    1
   118    65    64    2
   119    56    54    1
   120    66    64   am
   121    57    55    1
   122    43    41   ar
   123    14    13    1
   124    42    41   ar
   125    64    63    1
   126    55    54    1
   127    41    40    1
   128    54    51    1
   129    51    52    1
   130    51    50    1
   131    59    60    1
   132    59    58    1
   133    59    62    1
   134    63    62    1
   135    39    38    2
   136    60    61    2
   137    52    53    2
   138    40    37    1
   139    38    37    1
   140    36    37    1
