@<TRIPOS>MOLECULE
tmp/4q8uA00.pdb
 120 112 0 0 0
SMALL
GASTEIGER

@<TRIPOS>ATOM
      1  N         99.2640   12.5490   22.5170 N.3    92  ASP92      -0.1225
      2  CA       100.0400   13.6040   23.1570 C.3    92  ASP92       0.1805
      3  C         99.1660   14.2690   24.2210 C.2    92  ASP92       0.2598
      4  O         97.9360   14.1810   24.1700 O.2    92  ASP92      -0.2718
      5  CB       100.5560   14.6130   22.1270 C.3    92  ASP92       0.1424
      6  CG       101.7550   15.4000   22.6370 C.2    92  ASP92       0.3668
      7  OD1      102.2960   16.2290   21.8740 O.co2  92  ASP92      -0.2456
      8  OD2      102.1470   15.2040   23.8100 O.co2  92  ASP92      -0.2456
      9  N         99.8080   14.9140   25.1890 N.am   93  SER93      -0.1952
     10  CA        99.1510   15.3360   26.4260 C.3    93  SER93       0.1924
     11  C         98.5480   16.7280   26.3630 C.2    93  SER93       0.2314
     12  O         97.8430   17.1490   27.2780 O.2    93  SER93      -0.2863
     13  CB       100.1670   15.3040   27.5580 C.3    93  SER93       0.2116
     14  OG       101.2910   16.0870   27.1980 O.3    93  SER93      -0.2180
     15  N        102.3730   20.5830   24.3980 N.3    96  TYR96      -0.1227
     16  CA       103.0150   21.2700   23.2930 C.3    96  TYR96       0.1736
     17  C        102.0000   22.0620   22.4770 C.2    96  TYR96       0.2595
     18  O        102.2180   23.2340   22.1740 O.2    96  TYR96      -0.2718
     19  CB       103.7320   20.2290   22.4400 C.3    96  TYR96       0.0548
     20  CG       104.2720   20.6910   21.1160 C.ar   96  TYR96      -0.0200
     21  CD1      105.5560   21.2060   21.0080 C.ar   96  TYR96      -0.0009
     22  CD2      103.5160   20.5630   19.9610 C.ar   96  TYR96      -0.0009
     23  CE1      106.0600   21.6080   19.7890 C.ar   96  TYR96       0.0417
     24  CE2      104.0070   20.9630   18.7420 C.ar   96  TYR96       0.0417
     25  CZ       105.2800   21.4870   18.6610 C.ar   96  TYR96       0.1957
     26  OH       105.7740   21.8830   17.4440 O.3    96  TYR96      -0.2866
     27  N        100.8890   21.4230   22.1210 N.am   97  GLN97      -0.1979
     28  CA        99.9070   22.0630   21.2480 C.3    97  GLN97       0.1601
     29  C         99.2280   23.2630   21.9020 C.2    97  GLN97       0.2287
     30  O         98.9090   24.2270   21.2130 O.2    97  GLN97      -0.2864
     31  CB        98.8570   21.0610   20.7390 C.3    97  GLN97       0.0394
     32  CG        99.4180   19.8870   19.9240 C.3    97  GLN97       0.0908
     33  CD       100.0350   20.2970   18.6010 C.2    97  GLN97       0.2608
     34  OE1       99.8100   21.4000   18.1080 O.2    97  GLN97      -0.2717
     35  NE2      100.8210   19.3990   18.0160 N.am   97  GLN97      -0.0878
     36  N        103.4400   17.9880   30.0240 N.3   142  ASP142     -0.1239
     37  CA       104.7440   18.6260   30.1430 C.3   142  ASP142      0.1674
     38  C        104.7050   20.0180   29.5520 C.2   142  ASP142      0.2266
     39  O        103.6510   20.5020   29.1390 O.2   142  ASP142     -0.2867
     40  CB       105.8120   17.8140   29.4020 C.3   142  ASP142      0.1410
     41  CG       105.5860   17.7850   27.8990 C.2   142  ASP142      0.3668
     42  OD1      104.4130   17.7960   27.4740 O.co2 142  ASP142     -0.2456
     43  OD2      106.5800   17.7520   27.1420 O.co2 142  ASP142     -0.2456
     44  N        106.9850   22.0500   26.6080 N.3   144  CYS144     -0.1235
     45  CA       108.0480   22.0040   25.6190 C.3   144  CYS144      0.1677
     46  C        108.7640   23.3440   25.6320 C.2   144  CYS144      0.2270
     47  O        108.2420   24.3360   25.1340 O.2   144  CYS144     -0.2867
     48  CB       107.4740   21.7280   24.2300 C.3   144  CYS144      0.0956
     49  SG       108.7130   21.6650   22.9150 S.3   144  CYS144     -0.0801
     50  N        108.1910   12.4370   29.7080 N.3   187  ILE187     -0.1245
     51  CA       108.8320   13.2510   28.6710 C.3   187  ILE187      0.1561
     52  C        110.0310   14.0140   29.2300 C.2   187  ILE187      0.2260
     53  O        109.8890   14.8640   30.1150 O.2   187  ILE187     -0.2867
     54  CB       107.8520   14.2450   28.0170 C.3   187  ILE187      0.0252
     55  CG1      106.6020   13.5080   27.5150 C.3   187  ILE187      0.0019
     56  CG2      108.5550   14.9810   26.8790 C.3   187  ILE187      0.0019
     57  CD1      105.4970   14.4180   26.9860 C.3   187  ILE187      0.0001
     58  N        112.8750   16.7420   29.3160 N.3   189  GLN189     -0.1245
     59  CA       113.1160   18.1040   28.8360 C.3   189  GLN189      0.1566
     60  C        114.5490   18.5150   29.1750 C.2   189  GLN189      0.2260
     61  O        115.3850   17.6490   29.4300 O.2   189  GLN189     -0.2867
     62  CB       112.0610   19.0780   29.3840 C.3   189  GLN189      0.0367
     63  CG       110.6310   18.7360   28.9360 C.3   189  GLN189      0.0905
     64  CD       110.3630   19.0470   27.4580 C.2   189  GLN189      0.2608
     65  OE1      111.1200   19.7660   26.8070 O.2   189  GLN189     -0.2717
     66  NE2      109.2680   18.5120   26.9320 N.am  189  GLN189     -0.0878
     67  N        111.5020   14.9880   24.6840 N.3   215  GLY215     -0.1210
     68  CA       110.7600   16.1790   24.3300 C.3   215  GLY215      0.1956
     69  C        111.6810   17.3470   24.0470 C.2   215  GLY215      0.2612
     70  O        112.9110   17.2480   24.1830 O.2   215  GLY215     -0.2717
     71  N        111.0890   18.4640   23.6450 N.am  216  GLY216     -0.1942
     72  CA       111.8330   19.7010   23.5060 C.3   216  GLY216      0.2014
     73  C        112.7460   19.7800   22.2950 C.2   216  GLY216      0.2639
     74  O        113.5650   20.6890   22.2080 O.2   216  GLY216     -0.2714
     75  N        112.6170   18.8400   21.3630 N.am  217  LEU217     -0.1963
     76  CA       113.3960   18.8800   20.1300 C.3   217  LEU217      0.1728
     77  C        112.4540   19.0140   18.9370 C.2   217  LEU217      0.2616
     78  O        111.2330   19.0450   19.1100 O.2   217  LEU217     -0.2715
     79  CB       114.2960   17.6460   20.0130 C.3   217  LEU217      0.0311
     80  CG       115.4070   17.5950   21.0730 C.3   217  LEU217      0.0022
     81  CD1      116.2240   16.3250   20.9210 C.3   217  LEU217      0.0001
     82  CD2      116.3030   18.8420   21.0190 C.3   217  LEU217      0.0001
     83  N        113.0150   19.0810   17.7320 N.am  218  ALA218     -0.1963
     84  CA       112.2460   19.4380   16.5460 C.3   218  ALA218      0.1728
     85  C        111.4550   20.7160   16.8140 C.2   218  ALA218      0.2616
     86  O        110.2370   20.7710   16.6310 O.2   218  ALA218     -0.2715
     87  CB       111.3330   18.2910   16.1030 C.3   218  ALA218      0.0334
     88  N        112.1730   21.7370   17.2730 N.am  219  VAL219     -0.1977
     89  CA       111.5850   23.0310   17.6030 C.3   219  VAL219      0.1596
     90  C        112.3720   24.1590   16.9460 C.2   219  VAL219      0.2287
     91  O        112.3240   25.3070   17.3960 O.2   219  VAL219     -0.2864
     92  CB       111.5320   23.2580   19.1260 C.3   219  VAL219      0.0276
     93  CG1      110.4700   22.3740   19.7580 C.3   219  VAL219      0.0022
     94  CG2      112.8930   22.9880   19.7470 C.3   219  VAL219      0.0022
     95  N        109.6160   12.8800   19.9030 N.3   246  MET246     -0.1230
     96  CA       108.3510   13.5200   19.5530 C.3   246  MET246      0.1702
     97  C        108.5000   14.4830   18.3710 C.2   246  MET246      0.2592
     98  O        109.3580   15.3670   18.3870 O.2   246  MET246     -0.2718
     99  CB       107.7750   14.2580   20.7660 C.3   246  MET246      0.0401
    100  CG       107.7160   13.3710   22.0110 C.3   246  MET246      0.0596
    101  SD       106.7120   14.0860   23.3410 S.3   246  MET246     -0.1393
    102  CE       105.0620   13.8150   22.7030 C.3   246  MET246      0.0692
    103  N        107.6610   14.3080   17.3510 N.am  247  GLY247     -0.1957
    104  CA       107.6010   15.2450   16.2420 C.3   247  GLY247      0.1869
    105  C        108.6420   15.0700   15.1440 C.2   247  GLY247      0.2309
    106  O        108.7930   15.9460   14.3060 O.2   247  GLY247     -0.2863
    107  N        106.7870   10.1530   15.3770 N.3   266  ASP266     -0.1225
    108  CA       105.5480   10.6210   14.7630 C.3   266  ASP266      0.1805
    109  C        105.8740   11.9030   14.0430 C.2   266  ASP266      0.2598
    110  O        106.7410   12.6640   14.4810 O.2   266  ASP266     -0.2718
    111  CB       104.4730   10.9340   15.8080 C.3   266  ASP266      0.1424
    112  CG       104.7380   12.2420   16.5430 C.2   266  ASP266      0.3668
    113  OD1      105.5310   12.2370   17.5070 O.co2 266  ASP266     -0.2456
    114  OD2      104.1750   13.2810   16.1410 O.co2 266  ASP266     -0.2456
    115  N        105.1670   12.1690   12.9510 N.am  267  CYS267     -0.1970
    116  CA       105.3660   13.3990   12.2060 C.3   267  CYS267      0.1712
    117  C        104.2170   13.6320   11.2250 C.2   267  CYS267      0.2296
    118  O        103.7410   12.6610   10.6260 O.2   267  CYS267     -0.2864
    119  CB       106.6770   13.2810   11.4390 C.3   267  CYS267      0.0983
    120  SG       107.2550   14.8170   10.7690 S.3   267  CYS267     -0.0798
@<TRIPOS>BOND
     1   118   117    2
     2   120   119    1
     3   117   116    1
     4   119   116    1
     5   116   115    1
     6   115   109   am
     7   109   110    2
     8   109   108    1
     9   106   105    2
    10   108   107    1
    11   108   111    1
    12   105   104    1
    13   111   112    1
    14    87    84    1
    15   114   112   ar
    16   104   103    1
    17   112   113   ar
    18    84    85    1
    19    84    83    1
    20    86    85    2
    21    85    88   am
    22    90    91    2
    23    90    89    1
    24    88    89    1
    25   103    97   am
    26    26    25    1
    27    89    92    1
    28    83    77   am
    29    35    33   am
    30    34    33    2
    31    97    98    2
    32    97    96    1
    33    33    32    1
    34    25    24   ar
    35    25    23   ar
    36    24    22   ar
    37    77    78    2
    38    77    76    1
    39    92    94    1
    40    92    93    1
    41    96    95    1
    42    96    99    1
    43    23    21   ar
    44    32    31    1
    45    22    20   ar
    46    79    76    1
    47    79    80    1
    48    76    75    1
    49    31    28    1
    50    99   100    1
    51    81    80    1
    52    21    20   ar
    53    82    80    1
    54    20    19    1
    55    30    29    2
    56    28    29    1
    57    28    27    1
    58    75    73   am
    59     7     6   ar
    60   100   101    1
    61    27    17   am
    62     5     6    1
    63     5     2    1
    64    18    17    2
    65    74    73    2
    66    73    72    1
    67    19    16    1
    68    17    16    1
    69     1     2    1
    70     6     8   ar
    71   102   101    1
    72    49    48    1
    73     2     3    1
    74    16    15    1
    75    72    71    1
    76    71    69   am
    77    69    70    2
    78    69    68    1
    79     4     3    2
    80     3     9   am
    81    48    45    1
    82    68    67    1
    83    47    46    2
    84     9    10    1
    85    45    46    1
    86    45    44    1
    87    11    10    1
    88    11    12    2
    89    10    13    1
    90    65    64    2
    91    56    54    1
    92    66    64   am
    93    57    55    1
    94    43    41   ar
    95    14    13    1
    96    64    63    1
    97    42    41   ar
    98    55    54    1
    99    41    40    1
   100    54    51    1
   101    51    52    1
   102    51    50    1
   103    59    60    1
   104    59    58    1
   105    59    62    1
   106    63    62    1
   107    39    38    2
   108    60    61    2
   109    52    53    2
   110    40    37    1
   111    38    37    1
   112    36    37    1
