@<TRIPOS>MOLECULE
tmp/4q8wA00.pdb
 150 140 0 0 0
SMALL
GASTEIGER

@<TRIPOS>ATOM
      1  N         99.4260   13.0650   22.1390 N.3    93  ASP93      -0.1225
      2  CA       100.2190   14.1240   22.7350 C.3    93  ASP93       0.1805
      3  C         99.3490   14.8530   23.7610 C.2    93  ASP93       0.2598
      4  O         98.1180   14.7800   23.7190 O.2    93  ASP93      -0.2718
      5  CB       100.7760   15.0580   21.6680 C.3    93  ASP93       0.1424
      6  CG       101.9480   15.8830   22.1680 C.2    93  ASP93       0.3668
      7  OD1      102.3740   15.7040   23.3350 O.co2  93  ASP93      -0.2456
      8  OD2      102.4430   16.7210   21.3880 O.co2  93  ASP93      -0.2456
      9  N        100.0060   15.5280   24.6940 N.am   94  SER94      -0.1952
     10  CA        99.3640   16.0170   25.9020 C.3    94  SER94       0.1924
     11  C         98.8190   17.4330   25.8140 C.2    94  SER94       0.2314
     12  O         98.1190   17.8930   26.7200 O.2    94  SER94      -0.2863
     13  CB       100.3860   15.9720   27.0200 C.3    94  SER94       0.2116
     14  OG       101.5280   16.7290   26.6550 O.3    94  SER94      -0.2180
     15  N        102.6040   21.1980   23.7760 N.3    97  TYR97      -0.1227
     16  CA       103.2840   21.8300   22.6640 C.3    97  TYR97       0.1736
     17  C        102.3050   22.5870   21.7700 C.2    97  TYR97       0.2595
     18  O        102.5870   23.7030   21.3450 O.2    97  TYR97      -0.2718
     19  CB       104.0140   20.7380   21.8880 C.3    97  TYR97       0.0548
     20  CG       104.5070   21.0950   20.5110 C.ar   97  TYR97      -0.0200
     21  CD1      105.7980   21.5670   20.3170 C.ar   97  TYR97      -0.0009
     22  CD2      103.7040   20.9050   19.3980 C.ar   97  TYR97      -0.0009
     23  CE1      106.2630   21.8690   19.0530 C.ar   97  TYR97       0.0417
     24  CE2      104.1580   21.2060   18.1330 C.ar   97  TYR97       0.0417
     25  CZ       105.4390   21.6870   17.9670 C.ar   97  TYR97       0.1957
     26  OH       105.8930   21.9900   16.7080 O.3    97  TYR97      -0.2866
     27  N        101.1730   21.9500   21.4700 N.am   98  GLN98      -0.1979
     28  CA       100.2180   22.4920   20.5140 C.3    98  GLN98       0.1601
     29  C         99.5400   23.7450   21.0360 C.2    98  GLN98       0.2287
     30  O         99.2640   24.6620   20.2650 O.2    98  GLN98      -0.2864
     31  CB        99.1600   21.4580   20.1280 C.3    98  GLN98       0.0394
     32  CG        99.6850   20.2520   19.3530 C.3    98  GLN98       0.0908
     33  CD       100.2060   20.5920   17.9700 C.2    98  GLN98       0.2608
     34  OE1       99.9080   21.6510   17.4220 O.2    98  GLN98      -0.2717
     35  NE2      100.9900   19.6820   17.3950 N.am   98  GLN98      -0.0878
     36  N        103.6310   18.6440   29.5080 N.3   143  ASP143     -0.1239
     37  CA       104.9330   19.2760   29.5940 C.3   143  ASP143      0.1674
     38  C        104.8970   20.6540   28.9720 C.2   143  ASP143      0.2266
     39  O        103.8560   21.1270   28.5020 O.2   143  ASP143     -0.2867
     40  CB       105.9910   18.4280   28.8770 C.3   143  ASP143      0.1410
     41  CG       105.7700   18.3510   27.3780 C.2   143  ASP143      0.3668
     42  OD1      104.6010   18.3700   26.9380 O.co2 143  ASP143     -0.2456
     43  OD2      106.7740   18.2490   26.6410 O.co2 143  ASP143     -0.2456
     44  N        107.1410   22.4900   25.9970 N.3   145  CYS145     -0.1235
     45  CA       108.1890   22.4080   24.9890 C.3   145  CYS145      0.1677
     46  C        108.9080   23.7400   24.9510 C.2   145  CYS145      0.2270
     47  O        108.3770   24.7230   24.4430 O.2   145  CYS145     -0.2867
     48  CB       107.6050   22.0960   23.6160 C.3   145  CYS145      0.0956
     49  SG       108.8360   21.9800   22.3120 S.3   145  CYS145     -0.0801
     50  N        108.3340   13.0600   29.3310 N.3   188  ILE188     -0.1245
     51  CA       108.9770   13.8250   28.2670 C.3   188  ILE188      0.1561
     52  C        110.1670   14.6000   28.8120 C.2   188  ILE188      0.2260
     53  O        110.0230   15.4820   29.6630 O.2   188  ILE188     -0.2867
     54  CB       108.0070   14.8000   27.5680 C.3   188  ILE188      0.0252
     55  CG1      106.7550   14.0680   27.0900 C.3   188  ILE188      0.0019
     56  CG2      108.7080   15.4910   26.4040 C.3   188  ILE188      0.0019
     57  CD1      105.6690   14.9750   26.5670 C.3   188  ILE188      0.0001
     58  N        113.0310   17.3220   28.8090 N.3   190  GLN190     -0.1245
     59  CA       113.2740   18.6660   28.3040 C.3   190  GLN190      0.1566
     60  C        114.7080   19.0600   28.6350 C.2   190  GLN190      0.2260
     61  O        115.5400   18.1920   28.9110 O.2   190  GLN190     -0.2867
     62  CB       112.2390   19.6430   28.8600 C.3   190  GLN190      0.0367
     63  CG       110.8120   19.3030   28.4190 C.3   190  GLN190      0.0905
     64  CD       110.5430   19.5760   26.9420 C.2   190  GLN190      0.2608
     65  OE1      111.2760   20.3090   26.2780 O.2   190  GLN190     -0.2717
     66  NE2      109.4730   18.9860   26.4280 N.am  190  GLN190     -0.0878
     67  N        111.6570   15.4100   24.2490 N.3   216  GLY216     -0.1210
     68  CA       110.9030   16.5830   23.8660 C.3   216  GLY216      0.1956
     69  C        111.8350   17.7340   23.5600 C.2   216  GLY216      0.2612
     70  O        113.0580   17.6140   23.6950 O.2   216  GLY216     -0.2717
     71  N        111.2630   18.8540   23.1370 N.am  217  GLY217     -0.1942
     72  CA       112.0390   20.0680   22.9760 C.3   217  GLY217      0.2014
     73  C        112.9360   20.1050   21.7530 C.2   217  GLY217      0.2639
     74  O        113.7790   20.9900   21.6450 O.2   217  GLY217     -0.2714
     75  N        112.7750   19.1500   20.8390 N.am  218  LEU218     -0.1963
     76  CA       113.5460   19.1580   19.6050 C.3   218  LEU218      0.1728
     77  C        112.6010   19.2750   18.4210 C.2   218  LEU218      0.2616
     78  O        111.3850   19.3430   18.6000 O.2   218  LEU218     -0.2715
     79  CB       114.4540   17.9350   19.5090 C.3   218  LEU218      0.0311
     80  CG       115.5310   17.8820   20.5980 C.3   218  LEU218      0.0022
     81  CD1      116.3310   16.6000   20.4560 C.3   218  LEU218      0.0001
     82  CD2      116.4480   19.0940   20.5370 C.3   218  LEU218      0.0001
     83  N        113.1660   19.3250   17.2220 N.am  219  ALA219     -0.1963
     84  CA       112.3930   19.6550   16.0260 C.3   219  ALA219      0.1728
     85  C        111.6080   20.9460   16.2650 C.2   219  ALA219      0.2616
     86  O        110.4030   21.0250   16.0260 O.2   219  ALA219     -0.2715
     87  CB       111.4760   18.4960   15.6160 C.3   219  ALA219      0.0334
     88  N        112.3240   21.9450   16.7650 N.am  220  VAL220     -0.1977
     89  CA       111.7540   23.2550   17.0510 C.3   220  VAL220      0.1596
     90  C        112.5670   24.3530   16.3800 C.2   220  VAL220      0.2287
     91  O        112.5650   25.5010   16.8240 O.2   220  VAL220     -0.2864
     92  CB       111.6940   23.5190   18.5620 C.3   220  VAL220      0.0276
     93  CG1      110.5630   22.7250   19.1880 C.3   220  VAL220      0.0022
     94  CG2      113.0280   23.1780   19.2150 C.3   220  VAL220      0.0022
     95  N        109.7690   13.2290   19.5310 N.3   247  MET247     -0.1230
     96  CA       108.5090   13.8550   19.1640 C.3   247  MET247      0.1702
     97  C        108.6660   14.7960   17.9810 C.2   247  MET247      0.2592
     98  O        109.5370   15.6730   17.9730 O.2   247  MET247     -0.2718
     99  CB       107.9240   14.6150   20.3570 C.3   247  MET247      0.0401
    100  CG       107.8490   13.7670   21.6180 C.3   247  MET247      0.0596
    101  SD       106.8620   14.4990   22.9320 S.3   247  MET247     -0.1393
    102  CE       105.2100   14.2200   22.2770 C.3   247  MET247      0.0692
    103  N        107.8190   14.6000   16.9720 N.am  248  GLY248     -0.1957
    104  CA       107.7260   15.5110   15.8460 C.3   248  GLY248      0.1869
    105  C        108.7640   15.3150   14.7630 C.2   248  GLY248      0.2309
    106  O        108.9060   16.1760   13.9030 O.2   248  GLY248     -0.2863
    107  N        110.2640   12.7950   11.6310 N.3   250  GLY250     -0.1225
    108  CA       110.8310   13.9100   10.8900 C.3   250  GLY250      0.1811
    109  C        111.0200   13.4620    9.4490 C.2   250  GLY250      0.2280
    110  O        110.3170   12.5690    8.9810 O.2   250  GLY250     -0.2866
    111  N        106.8410   10.4270   15.2890 N.3   267  ASP267     -0.1225
    112  CA       105.6260   10.9030   14.6420 C.3   267  ASP267      0.1805
    113  C        105.9850   12.1580   13.8800 C.2   267  ASP267      0.2598
    114  O        106.8700   12.8990   14.3050 O.2   267  ASP267     -0.2718
    115  CB       104.5490   11.2730   15.6600 C.3   267  ASP267      0.1424
    116  CG       104.8350   12.5970   16.3530 C.2   267  ASP267      0.3668
    117  OD1      105.6390   12.5970   17.3060 O.co2 267  ASP267     -0.2456
    118  OD2      104.2880   13.6360   15.9280 O.co2 267  ASP267     -0.2456
    119  N        105.3110   12.4080   12.7670 N.am  268  CYS268     -0.1956
    120  CA       105.5050   13.6510   12.0570 C.3   268  CYS268      0.1843
    121  C        104.3730   13.8870   11.0670 C.2   268  CYS268      0.2625
    122  O        103.9240   12.9370   10.4210 O.2   268  CYS268     -0.2714
    123  CB       106.8380   13.6040   11.3240 C.3   268  CYS268      0.0997
    124  SG       107.3720   15.2050   10.7840 S.3   268  CYS268     -0.0797
    125  N        103.9470   15.1360   10.9170 N.am  269  VAL269     -0.1963
    126  CA       102.9420   15.4550    9.9150 C.3   269  VAL269      0.1727
    127  C        103.5400   15.5400    8.5160 C.2   269  VAL269      0.2616
    128  O        102.8060   15.6320    7.5450 O.2   269  VAL269     -0.2715
    129  CB       102.1900   16.7730   10.2120 C.3   269  VAL269      0.0290
    130  CG1      101.4030   16.6670   11.5010 C.3   269  VAL269      0.0023
    131  CG2      103.1520   17.9520   10.2430 C.3   269  VAL269      0.0023
    132  N        104.8630   15.5030    8.4010 N.am  270  LEU270     -0.1977
    133  CA       105.5030   15.6990    7.1020 C.3   270  LEU270      0.1596
    134  C        104.9480   14.8300    5.9480 C.2   270  LEU270      0.2287
    135  O        104.5840   15.3630    4.8990 O.2   270  LEU270     -0.2864
    136  CB       107.0260   15.5860    7.2170 C.3   270  LEU270      0.0297
    137  CG       107.8120   15.7930    5.9240 C.3   270  LEU270      0.0022
    138  CD1      107.6080   17.1950    5.3610 C.3   270  LEU270      0.0001
    139  CD2      109.2840   15.5110    6.1550 C.3   270  LEU270      0.0001
    140  N        101.0270   16.0200    5.4110 N.3   273  ARG273     -0.1245
    141  CA       100.9130   17.4050    4.9800 C.3   273  ARG273      0.1563
    142  C        101.6280   17.6620    3.6620 C.2   273  ARG273      0.2260
    143  O        101.0720   18.2820    2.7490 O.2   273  ARG273     -0.2867
    144  CB       101.4700   18.3340    6.0550 C.3   273  ARG273      0.0307
    145  CG       101.2130   19.7820    5.7090 C.3   273  ARG273      0.0489
    146  CD       102.1500   20.7400    6.4130 C.3   273  ARG273      0.2205
    147  NE       103.5710   20.4550    6.1880 N.pl3 273  ARG273     -0.0865
    148  CZ       104.2230   20.6330    5.0380 C.cat 273  ARG273      0.5346
    149  NH1      105.5210   20.3570    4.9710 N.pl3 273  ARG273      0.1354
    150  NH2      103.5930   21.0760    3.9560 N.pl3 273  ARG273      0.1354
@<TRIPOS>BOND
     1   143   142    2
     2   142   141    1
     3   150   148    1
     4   135   134    2
     5   149   148    1
     6   141   140    1
     7   141   144    1
     8   148   147    2
     9   138   137    1
    10   145   144    1
    11   145   146    1
    12   137   139    1
    13   137   136    1
    14   134   133    1
    15   147   146    1
    16   133   136    1
    17   133   132    1
    18   128   127    2
    19   132   127   am
    20   127   126    1
    21   110   109    2
    22   109   108    1
    23   126   129    1
    24   126   125    1
    25   129   131    1
    26   129   130    1
    27   122   121    2
    28   124   123    1
    29   108   107    1
    30   125   121   am
    31   121   120    1
    32   123   120    1
    33   120   119    1
    34   119   113   am
    35   113   114    2
    36   113   112    1
    37   106   105    2
    38   112   111    1
    39   112   115    1
    40   105   104    1
    41    87    84    1
    42   115   116    1
    43   104   103    1
    44   118   116   ar
    45    84    85    1
    46    84    83    1
    47    86    85    2
    48    85    88   am
    49   116   117   ar
    50    90    91    2
    51    90    89    1
    52    26    25    1
    53    88    89    1
    54   103    97   am
    55    89    92    1
    56    83    77   am
    57    35    33   am
    58    34    33    2
    59    25    24   ar
    60    25    23   ar
    61    33    32    1
    62    98    97    2
    63    97    96    1
    64    24    22   ar
    65    77    78    2
    66    77    76    1
    67    92    93    1
    68    92    94    1
    69    23    21   ar
    70    96    95    1
    71    96    99    1
    72    32    31    1
    73    22    20   ar
    74    79    76    1
    75    79    80    1
    76    76    75    1
    77    31    28    1
    78    30    29    2
    79    21    20   ar
    80    99   100    1
    81    81    80    1
    82    20    19    1
    83    28    29    1
    84    28    27    1
    85    82    80    1
    86    75    73   am
    87    18    17    2
    88     8     6   ar
    89    27    17   am
    90   100   101    1
    91    74    73    2
    92     5     6    1
    93     5     2    1
    94    73    72    1
    95    17    16    1
    96    19    16    1
    97     1     2    1
    98     6     7   ar
    99   102   101    1
   100    49    48    1
   101    16    15    1
   102     2     3    1
   103    72    71    1
   104    71    69   am
   105    69    70    2
   106    69    68    1
   107    48    45    1
   108     4     3    2
   109     3     9   am
   110    68    67    1
   111    47    46    2
   112     9    10    1
   113    46    45    1
   114    45    44    1
   115    11    10    1
   116    11    12    2
   117    10    13    1
   118    65    64    2
   119    56    54    1
   120    66    64   am
   121    57    55    1
   122    43    41   ar
   123    14    13    1
   124    42    41   ar
   125    64    63    1
   126    55    54    1
   127    41    40    1
   128    54    51    1
   129    51    52    1
   130    51    50    1
   131    59    60    1
   132    59    58    1
   133    59    62    1
   134    63    62    1
   135    39    38    2
   136    60    61    2
   137    52    53    2
   138    40    37    1
   139    38    37    1
   140    36    37    1
