@<TRIPOS>MOLECULE
tmp/4q8xA01.pdb
 126 122 0 0 0
SMALL
GASTEIGER

@<TRIPOS>ATOM
      1  N         12.7040    0.3080    5.8230 N.3    64  ASN64      -0.1240
      2  CA        11.8600    1.2450    6.5490 C.3    64  ASN64       0.1653
      3  C         10.6740    1.6330    5.7000 C.2    64  ASN64       0.2266
      4  O         10.8390    2.0860    4.5930 O.2    64  ASN64      -0.2867
      5  CB        12.6200    2.5620    6.9450 C.3    64  ASN64       0.1155
      6  CG        13.6470    2.3420    7.9820 C.2    64  ASN64       0.2627
      7  OD1       13.7390    1.2660    8.5580 O.2    64  ASN64      -0.2716
      8  ND2       14.5040    3.3510    8.1980 N.am   64  ASN64      -0.0877
      9  N          8.4010    6.0900   11.1870 N.3    89  GLN89      -0.1245
     10  CA         8.6850    4.9490   10.3110 C.3    89  GLN89       0.1566
     11  C          8.4900    3.6840   11.0880 C.2    89  GLN89       0.2260
     12  O          8.3800    3.7100   12.3400 O.2    89  GLN89      -0.2867
     13  CB        10.1500    4.9860    9.8130 C.3    89  GLN89       0.0367
     14  CG        11.1540    5.0780   10.9820 C.3    89  GLN89       0.0905
     15  CD        11.9840    3.8170   11.1680 C.2    89  GLN89       0.2608
     16  OE1       11.4800    2.7120   11.1340 O.2    89  GLN89      -0.2717
     17  NE2       13.2810    4.0010   11.3830 N.am   89  GLN89      -0.0878
     18  N          9.8910   -0.6300   10.8830 N.3    91  HIS91      -0.1241
     19  CA        10.7890   -1.5680   10.2630 C.3    91  HIS91       0.1621
     20  C         10.7320   -2.8440   11.0890 C.2    91  HIS91       0.2264
     21  O         10.0650   -2.8910   12.1190 O.2    91  HIS91      -0.2867
     22  CB        12.2830   -1.0750   10.1820 C.3    91  HIS91       0.0745
     23  CG        12.8420   -0.7910   11.5310 C.ar   91  HIS91       0.0817
     24  ND1       12.6240    0.4110   12.1820 N.ar   91  HIS91      -0.2268
     25  CD2       13.4490   -1.6260   12.4010 C.ar   91  HIS91       0.1154
     26  CE1       13.1770    0.3080   13.3880 C.ar   91  HIS91       0.1986
     27  NE2       13.6580   -0.9290   13.5670 N.ar   91  HIS91      -0.2212
     28  N          9.0800   -2.7990   14.7890 N.3   116  HIS116     -0.1241
     29  CA         9.3100   -1.5810   15.5840 C.3   116  HIS116      0.1621
     30  C          8.6510   -0.4340   14.8880 C.2   116  HIS116      0.2264
     31  O          9.0390   -0.0320   13.7390 O.2   116  HIS116     -0.2867
     32  CB        10.8290   -1.2870   15.5830 C.3   116  HIS116      0.0745
     33  CG        11.5340   -2.2460   16.5120 C.ar  116  HIS116      0.0817
     34  ND1       12.9020   -2.4330   16.5280 N.ar  116  HIS116     -0.2268
     35  CD2       11.0290   -3.0770   17.4330 C.ar  116  HIS116      0.1154
     36  CE1       13.2220   -3.3320   17.4450 C.ar  116  HIS116      0.1986
     37  NE2       12.0970   -3.7610   18.0200 N.ar  116  HIS116     -0.2212
     38  N          8.2990    3.4040   15.1430 N.3   118  VAL118     -0.1245
     39  CA         9.1410    4.4350   15.7990 C.3   118  VAL118      0.1561
     40  C          8.4330    5.7560   15.8170 C.2   118  VAL118      0.2260
     41  O          7.9550    6.2440   14.7870 O.2   118  VAL118     -0.2867
     42  CB        10.4200    4.5740   15.0080 C.3   118  VAL118      0.0252
     43  CG1       11.3370    5.6420   15.6280 C.3   118  VAL118      0.0019
     44  CG2       11.1740    3.1770   14.7930 C.3   118  VAL118      0.0019
     45  N         12.5260   14.8080   14.6820 N.3   127  PHE127     -0.1241
     46  CA        13.1910   13.5710   15.0160 C.3   127  PHE127      0.1605
     47  C         14.5980   13.8150   15.4200 C.2   127  PHE127      0.2264
     48  O         15.0780   13.2140   16.4270 O.2   127  PHE127     -0.2867
     49  CB        13.0600   12.5200   13.8640 C.3   127  PHE127      0.0534
     50  CG        13.7720   11.2160   14.1370 C.ar  127  PHE127     -0.0203
     51  CD1       13.1240   10.1730   14.8430 C.ar  127  PHE127     -0.0042
     52  CD2       15.1200   11.0600   13.7840 C.ar  127  PHE127     -0.0042
     53  CE1       13.7770    9.0080   15.0800 C.ar  127  PHE127     -0.0003
     54  CE2       15.7420    9.8580   14.0150 C.ar  127  PHE127     -0.0003
     55  CZ        15.0710    8.8660   14.6990 C.ar  127  PHE127     -0.0000
     56  N         16.1260   12.7470   19.2610 N.3   131  VAL131     -0.1245
     57  CA        17.1740   11.7330   19.6120 C.3   131  VAL131      0.1561
     58  C         18.3420   12.3230   20.3990 C.2   131  VAL131      0.2260
     59  O         19.2070   11.5450   20.8140 O.2   131  VAL131     -0.2867
     60  CB        17.6890   10.8980   18.4080 C.3   131  VAL131      0.0252
     61  CG1       16.4730   10.2160   17.6830 C.3   131  VAL131      0.0019
     62  CG2       18.5360   11.7330   17.4280 C.3   131  VAL131      0.0019
     63  N          9.1040    3.5660   21.0410 N.3   139  VAL139     -0.1245
     64  CA         9.0900    2.5290   20.0310 C.3   139  VAL139      0.1561
     65  C          8.1030    1.4810   20.5310 C.2   139  VAL139      0.2260
     66  O          8.2160    0.9680   21.6400 O.2   139  VAL139     -0.2867
     67  CB        10.4480    1.9460   19.7130 C.3   139  VAL139      0.0252
     68  CG1       10.3110    0.9100   18.5470 C.3   139  VAL139      0.0019
     69  CG2       11.3490    3.0490   19.2340 C.3   139  VAL139      0.0019
     70  N         17.9510    2.9290   21.0340 N.3   194  LEU194     -0.1231
     71  CA        17.8740    2.3340   19.6760 C.3   194  LEU194      0.1693
     72  C         18.6330    1.0040   19.7180 C.2   194  LEU194      0.2593
     73  O         19.6630    0.8280   20.4520 O.2   194  LEU194     -0.2718
     74  CB        18.6820    3.2220   18.7100 C.3   194  LEU194      0.0284
     75  CG        18.3290    4.7140   18.7370 C.3   194  LEU194      0.0019
     76  CD1       19.0700    5.5550   17.6340 C.3   194  LEU194      0.0001
     77  CD2       16.7890    4.9850   18.5170 C.3   194  LEU194      0.0001
     78  N         18.2430    0.0720   18.8730 N.am  195  THR195     -0.1939
     79  CA        18.9700   -1.2130   18.8650 C.3   195  THR195      0.2028
     80  C         19.9720   -1.3660   17.6860 C.2   195  THR195      0.2643
     81  O         20.5500   -2.4260   17.5270 O.2   195  THR195     -0.2714
     82  CB        17.9780   -2.4140   18.7880 C.3   195  THR195      0.1808
     83  OG1       17.2830   -2.3850   17.5350 O.3   195  THR195     -0.2208
     84  CG2       16.9480   -2.4100   19.9350 C.3   195  THR195      0.0379
     85  N         20.0990   -0.2820   16.8790 N.am  196  THR196     -0.1937
     86  CA        21.2280   -0.2320   15.9450 C.3   196  THR196      0.2013
     87  C         21.9930    0.9890   16.2880 C.2   196  THR196      0.2484
     88  O         21.4910    1.9640   16.8640 O.2   196  THR196     -0.2729
     89  CB        20.7100   -0.1100   14.4940 C.3   196  THR196      0.1807
     90  OG1       20.0080    1.1310   14.2880 O.3   196  THR196     -0.2208
     91  CG2       19.9000   -1.3000   14.0980 C.3   196  THR196      0.0379
     92  N         23.2960    0.9970   15.8300 N.am  197  PRO197     -0.2715
     93  CA        24.0210    2.3030   15.9390 C.3   197  PRO197      0.1521
     94  C         23.1410    3.4560   15.3810 C.2   197  PRO197      0.2440
     95  O         22.4990    3.3130   14.2720 O.2   197  PRO197     -0.2731
     96  CB        25.2600    2.0430   15.0380 C.3   197  PRO197      0.0310
     97  CG        25.5250    0.5500   15.2930 C.3   197  PRO197      0.0237
     98  CD        24.1070   -0.0920   15.2260 C.3   197  PRO197      0.0939
     99  N         23.1620    4.6180   15.9900 N.am  198  PRO198     -0.2727
    100  CA        24.1090    4.9920   17.0570 C.3   198  PRO198      0.1402
    101  C         23.7360    4.5890   18.5040 C.2   198  PRO198      0.2269
    102  O         24.3080    5.0830   19.4730 O.2   198  PRO198     -0.2865
    103  CB        24.1490    6.4990   16.9420 C.3   198  PRO198      0.0296
    104  CG        22.7690    6.8540   16.4050 C.3   198  PRO198      0.0237
    105  CD        22.4410    5.7820   15.4350 C.3   198  PRO198      0.0939
    106  N         14.8630    6.0760   24.2110 N.3   203  VAL203     -0.1245
    107  CA        13.6050    5.2990   23.8810 C.3   203  VAL203      0.1561
    108  C         12.8350    4.8440   25.1240 C.2   203  VAL203      0.2260
    109  O         13.3720    4.1330   25.9800 O.2   203  VAL203     -0.2867
    110  CB        13.9310    4.0230   23.0840 C.3   203  VAL203      0.0252
    111  CG1       12.5700    3.3570   22.6750 C.3   203  VAL203      0.0019
    112  CG2       14.7200    4.3770   21.7630 C.3   203  VAL203      0.0019
    113  N         10.4550    2.1260   25.6270 N.3   205  TRP205     -0.1241
    114  CA        10.0140    0.9130   24.9040 C.3   205  TRP205      0.1605
    115  C          8.6530    0.5110   25.4040 C.2   205  TRP205      0.2264
    116  O          8.4290    0.5030   26.6130 O.2   205  TRP205     -0.2867
    117  CB        11.0330   -0.2810   25.1120 C.3   205  TRP205      0.0550
    118  CG        12.1540   -0.1270   24.1500 C.ar  205  TRP205      0.0003
    119  CD1       13.4020    0.4510   24.3230 C.ar  205  TRP205      0.0946
    120  CD2       12.1240   -0.5730   22.7870 C.ar  205  TRP205      0.0152
    121  NE1       14.1280    0.4190   23.1450 N.ar  205  TRP205     -0.2442
    122  CE2       13.3590   -0.2190   22.1850 C.ar  205  TRP205      0.0810
    123  CE3       11.1380   -1.1820   22.0010 C.ar  205  TRP205      0.0012
    124  CZ2       13.6240   -0.4640   20.8290 C.ar  205  TRP205      0.0191
    125  CZ3       11.3970   -1.4620   20.7110 C.ar  205  TRP205      0.0001
    126  CH2       12.6460   -1.1580   20.1140 C.ar  205  TRP205      0.0015
@<TRIPOS>BOND
     1     4     3    2
     2     3     2    1
     3     1     2    1
     4     2     5    1
     5     5     6    1
     6     6     8   am
     7     6     7    2
     8    13    10    1
     9    13    14    1
    10    22    19    1
    11    22    23    1
    12    19    18    1
    13    19    20    1
    14    10    11    1
    15    10     9    1
    16    14    15    1
    17    11    12    2
    18    20    21    2
    19    16    15    2
    20    15    17   am
    21    23    24   ar
    22    23    25   ar
    23    24    26   ar
    24    25    27   ar
    25    26    27   ar
    26    31    30    2
    27    52    54   ar
    28    52    50   ar
    29    49    50    1
    30    49    46    1
    31    54    55   ar
    32    91    89    1
    33    50    51   ar
    34    95    94    2
    35    90    89    1
    36    89    86    1
    37    45    46    1
    38    55    53   ar
    39    41    40    2
    40    28    29    1
    41    44    42    1
    42    51    53   ar
    43    30    29    1
    44    42    43    1
    45    42    39    1
    46    46    47    1
    47    96    97    1
    48    96    93    1
    49    38    39    1
    50    98    97    1
    51    98    92    1
    52    94    93    1
    53    94    99   am
    54    47    48    2
    55   105    99    1
    56   105   104    1
    57    32    29    1
    58    32    33    1
    59    39    40    1
    60    92    93    1
    61    92    87   am
    62    86    87    1
    63    86    85    1
    64    99   100    1
    65    87    88    2
    66   104   103    1
    67    33    34   ar
    68    33    35   ar
    69    34    36   ar
    70    85    80   am
    71   103   100    1
    72   100   101    1
    73    62    60    1
    74    35    37   ar
    75    36    37   ar
    76    81    80    2
    77    83    82    1
    78    76    75    1
    79    61    60    1
    80    80    79    1
    81    60    57    1
    82   101   102    2
    83    77    75    1
    84    68    67    1
    85    74    75    1
    86    74    71    1
    87    82    79    1
    88    82    84    1
    89    79    78    1
    90    78    72   am
    91    69    67    1
    92    56    57    1
    93    57    58    1
    94    71    72    1
    95    71    70    1
    96    67    64    1
    97    72    73    2
    98    64    65    1
    99    64    63    1
   100   126   125   ar
   101   126   124   ar
   102    58    59    2
   103    65    66    2
   104   125   123   ar
   105   124   122   ar
   106   112   110    1
   107   123   120   ar
   108   122   120   ar
   109   122   121   ar
   110   111   110    1
   111   120   118   ar
   112   110   107    1
   113   121   119   ar
   114   107   106    1
   115   107   108    1
   116   118   119   ar
   117   118   117    1
   118   114   117    1
   119   114   115    1
   120   114   113    1
   121   108   109    2
   122   115   116    2
