@<TRIPOS>MOLECULE
tmp/4q8yA01.pdb
 123 117 0 0 0
SMALL
GASTEIGER

@<TRIPOS>ATOM
      1  N         12.8070    0.3240    5.8080 N.3    64  ASN64      -0.1240
      2  CA        11.9820    1.2330    6.5450 C.3    64  ASN64       0.1653
      3  C         10.7540    1.6280    5.7540 C.2    64  ASN64       0.2266
      4  O         10.9440    2.0560    4.5990 O.2    64  ASN64      -0.2867
      5  CB        12.7360    2.5510    6.8750 C.3    64  ASN64       0.1155
      6  CG        13.8220    2.3670    7.8840 C.2    64  ASN64       0.2627
      7  OD1       13.9420    1.2920    8.5300 O.2    64  ASN64      -0.2716
      8  ND2       14.6970    3.3510    8.0030 N.am   64  ASN64      -0.0877
      9  N          8.5090    6.1000   11.2050 N.3    89  GLN89      -0.1245
     10  CA         8.8200    4.9660   10.3530 C.3    89  GLN89       0.1566
     11  C          8.5590    3.7020   11.1110 C.2    89  GLN89       0.2260
     12  O          8.4480    3.7010   12.3340 O.2    89  GLN89      -0.2867
     13  CB        10.2810    5.0120    9.8350 C.3    89  GLN89       0.0367
     14  CG        11.3250    5.0290   10.9800 C.3    89  GLN89       0.0905
     15  CD        12.0320    3.7030   11.1650 C.2    89  GLN89       0.2608
     16  OE1       11.4030    2.6270   11.2900 O.2    89  GLN89      -0.2717
     17  NE2       13.3280    3.7640   11.2630 N.am   89  GLN89      -0.0878
     18  N          9.9130   -0.6010   10.8850 N.3    91  HIS91      -0.1241
     19  CA        10.8240   -1.5610   10.2830 C.3    91  HIS91       0.1621
     20  C         10.7400   -2.8210   11.1130 C.2    91  HIS91       0.2264
     21  O         10.0810   -2.8940   12.1390 O.2    91  HIS91      -0.2867
     22  CB        12.3210   -1.0570   10.2450 C.3    91  HIS91       0.0745
     23  CG        12.8510   -0.7900   11.6180 C.ar   91  HIS91       0.0817
     24  ND1       12.5890    0.3810   12.2860 N.ar   91  HIS91      -0.2268
     25  CD2       13.4960   -1.6170   12.4900 C.ar   91  HIS91       0.1154
     26  CE1       13.1010    0.2890   13.4990 C.ar   91  HIS91       0.1986
     27  NE2       13.6290   -0.9180   13.6710 N.ar   91  HIS91      -0.2212
     28  N         13.0490   -6.5190   12.4660 N.3    93  HIS93      -0.1241
     29  CA        14.2530   -7.3800   12.6410 C.3    93  HIS93       0.1621
     30  C         13.8360   -8.8170   12.5330 C.2    93  HIS93       0.2264
     31  O         12.7560   -9.1350   13.0380 O.2    93  HIS93      -0.2867
     32  CB        14.9340   -7.1160   14.0160 C.3    93  HIS93       0.0745
     33  CG        15.2110   -5.6780   14.2930 C.ar   93  HIS93       0.0817
     34  ND1       16.4730   -5.1670   14.1110 N.ar   93  HIS93      -0.2268
     35  CD2       14.4160   -4.6440   14.6810 C.ar   93  HIS93       0.1154
     36  CE1       16.4630   -3.8970   14.4770 C.ar   93  HIS93       0.1986
     37  NE2       15.2160   -3.5090   14.7490 N.ar   93  HIS93      -0.2212
     38  N          9.0920   -2.7960   14.7930 N.3   116  HIS116     -0.1241
     39  CA         9.3720   -1.5810   15.5910 C.3   116  HIS116      0.1621
     40  C          8.7340   -0.4150   14.8890 C.2   116  HIS116      0.2264
     41  O          9.0970   -0.0390   13.7390 O.2   116  HIS116     -0.2867
     42  CB        10.8930   -1.3420   15.6320 C.3   116  HIS116      0.0745
     43  CG        11.5780   -2.3170   16.5220 C.ar  116  HIS116      0.0817
     44  ND1       12.9430   -2.5340   16.5280 N.ar  116  HIS116     -0.2268
     45  CD2       11.0490   -3.1740   17.4220 C.ar  116  HIS116      0.1154
     46  CE1       13.2480   -3.4720   17.4120 C.ar  116  HIS116      0.1986
     47  NE2       12.1140   -3.8900   17.9690 N.ar  116  HIS116     -0.2212
     48  N          8.4170    3.4200   15.1540 N.3   118  VAL118     -0.1245
     49  CA         9.2110    4.5030   15.7900 C.3   118  VAL118      0.1561
     50  C          8.4890    5.8220   15.7980 C.2   118  VAL118      0.2260
     51  O          7.9750    6.2550   14.7610 O.2   118  VAL118     -0.2867
     52  CB        10.5090    4.6470   15.0000 C.3   118  VAL118      0.0252
     53  CG1       11.3860    5.7920   15.6240 C.3   118  VAL118      0.0019
     54  CG2       11.3270    3.3090   14.9160 C.3   118  VAL118      0.0019
     55  N         12.4790   14.8460   14.6630 N.3   127  PHE127     -0.1241
     56  CA        13.1630   13.6390   15.0330 C.3   127  PHE127      0.1605
     57  C         14.5820   13.8950   15.4090 C.2   127  PHE127      0.2264
     58  O         15.0860   13.3270   16.3880 O.2   127  PHE127     -0.2867
     59  CB        13.0410   12.6060   13.8630 C.3   127  PHE127      0.0534
     60  CG        13.7950   11.2960   14.0980 C.ar  127  PHE127     -0.0203
     61  CD1       13.1960   10.2700   14.8390 C.ar  127  PHE127     -0.0042
     62  CD2       15.1440   11.1750   13.7330 C.ar  127  PHE127     -0.0042
     63  CE1       13.8590    9.0950   15.0460 C.ar  127  PHE127     -0.0003
     64  CE2       15.8420    9.9910   13.9970 C.ar  127  PHE127     -0.0003
     65  CZ        15.1560    8.9400   14.6730 C.ar  127  PHE127     -0.0000
     66  N         12.0610    9.4990   22.2240 N.3   137  LEU137     -0.1245
     67  CA        11.4430    8.5310   21.3320 C.3   137  LEU137      0.1561
     68  C         10.5400    7.5550   22.1200 C.2   137  LEU137      0.2260
     69  O         10.7780    7.2620   23.2510 O.2   137  LEU137     -0.2867
     70  CB        12.5120    7.7090   20.5710 C.3   137  LEU137      0.0270
     71  CG        13.4580    8.5900   19.7630 C.3   137  LEU137      0.0019
     72  CD1       14.4550    7.5950   19.0730 C.3   137  LEU137      0.0001
     73  CD2       12.7680    9.4090   18.6160 C.3   137  LEU137      0.0001
     74  N          9.1400    3.6040   21.0540 N.3   139  VAL139     -0.1245
     75  CA         9.0590    2.5620   20.0180 C.3   139  VAL139      0.1561
     76  C          8.0550    1.5120   20.5130 C.2   139  VAL139      0.2260
     77  O          8.1680    0.9830   21.6430 O.2   139  VAL139     -0.2867
     78  CB        10.4190    1.9540   19.6910 C.3   139  VAL139      0.0252
     79  CG1       10.2690    0.8760   18.5820 C.3   139  VAL139      0.0019
     80  CG2       11.4030    2.9860   19.2520 C.3   139  VAL139      0.0019
     81  N         17.8800    2.8510   20.8800 N.3   194  LEU194     -0.1231
     82  CA        17.9100    2.2290   19.5550 C.3   194  LEU194      0.1693
     83  C         18.6200    0.8640   19.6520 C.2   194  LEU194      0.2593
     84  O         19.6630    0.7290   20.3850 O.2   194  LEU194     -0.2718
     85  CB        18.7220    3.0820   18.5940 C.3   194  LEU194      0.0284
     86  CG        18.0020    4.2230   17.8940 C.3   194  LEU194      0.0019
     87  CD1       17.4740    5.2610   18.9160 C.3   194  LEU194      0.0001
     88  CD2       18.9950    4.9630   16.9220 C.3   194  LEU194      0.0001
     89  N         18.2440   -0.1060   18.8480 N.am  195  THR195     -0.1939
     90  CA        19.0030   -1.3710   18.9070 C.3   195  THR195      0.2028
     91  C         20.0040   -1.5030   17.7510 C.2   195  THR195      0.2642
     92  O         20.6500   -2.5290   17.5620 O.2   195  THR195     -0.2714
     93  CB        18.0240   -2.5170   18.7750 C.3   195  THR195      0.1808
     94  OG1       17.3790   -2.4090   17.4990 O.3   195  THR195     -0.2208
     95  CG2       16.9680   -2.4330   19.8700 C.3   195  THR195      0.0379
     96  N         20.1170   -0.4030   16.9790 N.am  196  THR196     -0.1950
     97  CA        21.1430   -0.2900   15.9290 C.3   196  THR196      0.1897
     98  C         21.9790    0.9140   16.1730 C.2   196  THR196      0.2313
     99  O         21.4720    1.8750   16.7430 O.2   196  THR196     -0.2863
    100  CB        20.5050   -0.1720   14.5430 C.3   196  THR196      0.1794
    101  OG1       19.4060    0.7560   14.6360 O.3   196  THR196     -0.2208
    102  CG2       19.9290   -1.4380   14.1330 C.3   196  THR196      0.0378
    103  N         14.8830    6.0370   24.1300 N.3   203  VAL203     -0.1245
    104  CA        13.6200    5.3110   23.7720 C.3   203  VAL203      0.1561
    105  C         12.8730    4.8820   25.0410 C.2   203  VAL203      0.2260
    106  O         13.3890    4.1790   25.8860 O.2   203  VAL203     -0.2867
    107  CB        13.9470    4.0280   23.0300 C.3   203  VAL203      0.0252
    108  CG1       12.6290    3.3800   22.6410 C.3   203  VAL203      0.0019
    109  CG2       14.6150    4.3910   21.6760 C.3   203  VAL203      0.0019
    110  N         10.4830    2.1470   25.5970 N.3   205  TRP205     -0.1241
    111  CA        10.0370    0.9500   24.8420 C.3   205  TRP205      0.1605
    112  C          8.6920    0.4970   25.3810 C.2   205  TRP205      0.2264
    113  O          8.4620    0.4520   26.6060 O.2   205  TRP205     -0.2867
    114  CB        11.0360   -0.2320   25.0880 C.3   205  TRP205      0.0550
    115  CG        12.1700   -0.1560   24.1060 C.ar  205  TRP205      0.0003
    116  CD1       13.4380    0.4370   24.2580 C.ar  205  TRP205      0.0946
    117  CD2       12.1230   -0.5980   22.7290 C.ar  205  TRP205      0.0152
    118  NE1       14.1440    0.3910   23.0800 N.ar  205  TRP205     -0.2442
    119  CE2       13.3660   -0.2390   22.1120 C.ar  205  TRP205      0.0810
    120  CE3       11.1210   -1.2040   21.9540 C.ar  205  TRP205      0.0012
    121  CZ2       13.6370   -0.5390   20.7480 C.ar  205  TRP205      0.0191
    122  CZ3       11.3930   -1.4990   20.6710 C.ar  205  TRP205      0.0001
    123  CH2       12.6260   -1.1430   20.0420 C.ar  205  TRP205      0.0015
@<TRIPOS>BOND
     1     4     3    2
     2     3     2    1
     3     1     2    1
     4     2     5    1
     5     5     6    1
     6     6     8   am
     7     6     7    2
     8    13    10    1
     9    13    14    1
    10    22    19    1
    11    22    23    1
    12    19    18    1
    13    19    20    1
    14    10    11    1
    15    10     9    1
    16    14    15    1
    17    11    12    2
    18    20    21    2
    19    15    17   am
    20    15    16    2
    21    23    24   ar
    22    23    25   ar
    23    24    26   ar
    24    28    29    1
    25    25    27   ar
    26    30    29    1
    27    30    31    2
    28    29    32    1
    29    26    27   ar
    30    62    64   ar
    31    62    60   ar
    32    41    40    2
    33    59    60    1
    34    59    56    1
    35    64    65   ar
    36    32    33    1
    37    60    61   ar
    38    34    33   ar
    39    34    36   ar
    40   102   100    1
    41    33    35   ar
    42    36    37   ar
    43   100   101    1
    44   100    97    1
    45    55    56    1
    46    65    63   ar
    47    35    37   ar
    48    51    50    2
    49    38    39    1
    50    61    63   ar
    51    40    39    1
    52    54    52    1
    53    52    53    1
    54    52    49    1
    55    56    57    1
    56    48    49    1
    57    57    58    2
    58    39    42    1
    59    42    43    1
    60    49    50    1
    61    97    98    1
    62    97    96    1
    63    98    99    2
    64    43    44   ar
    65    43    45   ar
    66    44    46   ar
    67    88    86    1
    68    96    91   am
    69    46    47   ar
    70    45    47   ar
    71    94    93    1
    72    92    91    2
    73    91    90    1
    74    86    85    1
    75    86    87    1
    76    79    78    1
    77    85    82    1
    78    73    71    1
    79    93    90    1
    80    93    95    1
    81    89    90    1
    82    89    83   am
    83    72    71    1
    84    80    78    1
    85    82    83    1
    86    82    81    1
    87    83    84    2
    88    78    75    1
    89    71    70    1
    90    75    76    1
    91    75    74    1
    92   123   122   ar
    93   123   121   ar
    94    76    77    2
    95    70    67    1
    96   122   120   ar
    97   121   119   ar
    98    67    68    1
    99    67    66    1
   100   109   107    1
   101   120   117   ar
   102   119   117   ar
   103   119   118   ar
   104    68    69    2
   105   108   107    1
   106   117   115   ar
   107   107   104    1
   108   118   116   ar
   109   104   103    1
   110   104   105    1
   111   115   116   ar
   112   115   114    1
   113   111   114    1
   114   111   112    1
   115   111   110    1
   116   105   106    2
   117   112   113    2
