@<TRIPOS>MOLECULE
tmp/4q8zA01.pdb
 122 120 0 0 0
SMALL
GASTEIGER

@<TRIPOS>ATOM
      1  N          8.4890    6.0410   11.1480 N.3    89  GLN89      -0.1245
      2  CA         8.7750    4.9120   10.2740 C.3    89  GLN89       0.1566
      3  C          8.5530    3.6360   11.0350 C.2    89  GLN89       0.2260
      4  O          8.5080    3.6530   12.2650 O.2    89  GLN89      -0.2867
      5  CB        10.2340    4.9970    9.7020 C.3    89  GLN89       0.0367
      6  CG        11.3550    5.0470   10.7640 C.3    89  GLN89       0.0905
      7  CD        12.0330    3.7570   11.0490 C.2    89  GLN89       0.2608
      8  OE1       11.4830    2.6700   10.9170 O.2    89  GLN89      -0.2717
      9  NE2       13.2650    3.8810   11.4560 N.am   89  GLN89      -0.0878
     10  N          9.8410   -0.7470   10.7940 N.3    91  HIS91      -0.1241
     11  CA        10.6990   -1.7280   10.1370 C.3    91  HIS91       0.1621
     12  C         10.6250   -2.9450   11.0300 C.2    91  HIS91       0.2264
     13  O         10.0260   -2.9890   12.0780 O.2    91  HIS91      -0.2867
     14  CB        12.1550   -1.1950    9.9910 C.3    91  HIS91       0.0745
     15  CG        12.7620   -0.8890   11.3180 C.ar   91  HIS91       0.0817
     16  ND1       12.5900    0.3380   11.9360 N.ar   91  HIS91      -0.2268
     17  CD2       13.3440   -1.7080   12.2330 C.ar   91  HIS91       0.1154
     18  CE1       13.1100    0.2520   13.1650 C.ar   91  HIS91       0.1986
     19  NE2       13.5770   -0.9660   13.3800 N.ar   91  HIS91      -0.2212
     20  N         13.0620   -6.5740   12.4170 N.3    93  HIS93      -0.1241
     21  CA        14.3100   -7.3450   12.5950 C.3    93  HIS93       0.1621
     22  C         13.8610   -8.8130   12.5410 C.2    93  HIS93       0.2264
     23  O         12.7990   -9.1620   13.0620 O.2    93  HIS93      -0.2867
     24  CB        14.9210   -7.0560   14.0120 C.3    93  HIS93       0.0745
     25  CG        15.1920   -5.6330   14.2870 C.ar   93  HIS93       0.0817
     26  ND1       16.4810   -5.1380   14.1440 N.ar   93  HIS93      -0.2268
     27  CD2       14.3770   -4.5760   14.5840 C.ar   93  HIS93       0.1154
     28  CE1       16.4400   -3.8350   14.4350 C.ar   93  HIS93       0.1986
     29  NE2       15.1780   -3.4540   14.6490 N.ar   93  HIS93      -0.2212
     30  N          9.1580   -2.8220   14.7890 N.3   116  HIS116     -0.1241
     31  CA         9.3910   -1.5530   15.5430 C.3   116  HIS116      0.1621
     32  C          8.6910   -0.4450   14.8180 C.2   116  HIS116      0.2264
     33  O          9.0560   -0.0860   13.6720 O.2   116  HIS116     -0.2867
     34  CB        10.9210   -1.2320   15.5520 C.3   116  HIS116      0.0745
     35  CG        11.6610   -2.1850   16.4920 C.ar  116  HIS116      0.0817
     36  ND1       13.0370   -2.3540   16.5080 N.ar  116  HIS116     -0.2268
     37  CD2       11.1600   -3.0690   17.3950 C.ar  116  HIS116      0.1154
     38  CE1       13.3810   -3.2740   17.4000 C.ar  116  HIS116      0.1986
     39  NE2       12.2610   -3.7480   17.9430 N.ar  116  HIS116     -0.2212
     40  N          8.3940    3.3550   15.0880 N.3   118  VAL118     -0.1245
     41  CA         9.2760    4.4130   15.7320 C.3   118  VAL118      0.1561
     42  C          8.5750    5.7340   15.7770 C.2   118  VAL118      0.2260
     43  O          8.1280    6.2260   14.7420 O.2   118  VAL118     -0.2867
     44  CB        10.6020    4.4960   14.9640 C.3   118  VAL118      0.0252
     45  CG1       11.5710    5.4960   15.6530 C.3   118  VAL118      0.0019
     46  CG2       11.2600    3.1030   14.7530 C.3   118  VAL118      0.0019
     47  N         12.5370   14.6400   14.5620 N.3   127  PHE127     -0.1241
     48  CA        13.2710   13.4730   14.9760 C.3   127  PHE127      0.1605
     49  C         14.6760   13.7930   15.3470 C.2   127  PHE127      0.2264
     50  O         15.2020   13.2240   16.3410 O.2   127  PHE127     -0.2867
     51  CB        13.1750   12.4180   13.8360 C.3   127  PHE127      0.0534
     52  CG        13.9480   11.1290   14.0990 C.ar  127  PHE127     -0.0203
     53  CD1       13.3400   10.0700   14.7640 C.ar  127  PHE127     -0.0042
     54  CD2       15.2700   11.0120   13.7070 C.ar  127  PHE127     -0.0042
     55  CE1       14.0800    8.9220   14.9610 C.ar  127  PHE127     -0.0003
     56  CE2       16.0010    9.8150   13.8910 C.ar  127  PHE127     -0.0003
     57  CZ        15.3860    8.7820   14.5420 C.ar  127  PHE127     -0.0000
     58  N         12.2950    9.3670   22.1460 N.3   137  LEU137     -0.1245
     59  CA        11.6210    8.3890   21.2630 C.3   137  LEU137      0.1561
     60  C         10.6830    7.4610   22.0710 C.2   137  LEU137      0.2260
     61  O         10.9270    7.1930   23.2530 O.2   137  LEU137     -0.2867
     62  CB        12.6400    7.5140   20.5230 C.3   137  LEU137      0.0270
     63  CG        13.5490    8.3270   19.6520 C.3   137  LEU137      0.0019
     64  CD1       14.5430    7.2810   18.9880 C.3   137  LEU137      0.0001
     65  CD2       12.8900    9.1010   18.4890 C.3   137  LEU137      0.0001
     66  N          9.2920    3.5360   21.0440 N.3   139  VAL139     -0.1245
     67  CA         9.2000    2.4890   20.0040 C.3   139  VAL139      0.1561
     68  C          8.2290    1.4460   20.5350 C.2   139  VAL139      0.2260
     69  O          8.3420    0.9490   21.6560 O.2   139  VAL139     -0.2867
     70  CB        10.5720    1.8950   19.7310 C.3   139  VAL139      0.0252
     71  CG1       10.3540    0.7640   18.5500 C.3   139  VAL139      0.0019
     72  CG2       11.5600    2.9210   19.2860 C.3   139  VAL139      0.0019
     73  N         18.1420    2.8220   21.0910 N.3   194  LEU194     -0.1231
     74  CA        18.0750    2.2030   19.7560 C.3   194  LEU194      0.1693
     75  C         18.8540    0.9320   19.7870 C.2   194  LEU194      0.2593
     76  O         19.9040    0.7960   20.4980 O.2   194  LEU194     -0.2718
     77  CB        18.7690    3.1160   18.7850 C.3   194  LEU194      0.0284
     78  CG        18.2250    4.5160   18.6770 C.3   194  LEU194      0.0019
     79  CD1       18.9640    5.3680   17.5510 C.3   194  LEU194      0.0001
     80  CD2       16.7040    4.3140   18.2640 C.3   194  LEU194      0.0001
     81  N         18.4310   -0.0320   18.9900 N.am  195  THR195     -0.1939
     82  CA        19.1420   -1.3580   18.9780 C.3   195  THR195      0.2028
     83  C         20.1430   -1.4350   17.8180 C.2   195  THR195      0.2643
     84  O         20.7690   -2.4800   17.6220 O.2   195  THR195     -0.2714
     85  CB        18.1000   -2.4950   18.8420 C.3   195  THR195      0.1808
     86  OG1       17.3270   -2.3250   17.6310 O.3   195  THR195     -0.2208
     87  CG2       17.1560   -2.4870   20.0410 C.3   195  THR195      0.0379
     88  N         20.3070   -0.3730   17.0300 N.am  196  THR196     -0.1937
     89  CA        21.4000   -0.3450   16.0300 C.3   196  THR196      0.2013
     90  C         22.1760    0.9150   16.3090 C.2   196  THR196      0.2484
     91  O         21.6880    1.8410   16.9490 O.2   196  THR196     -0.2729
     92  CB        20.8990   -0.2410   14.5910 C.3   196  THR196      0.1807
     93  OG1       20.3260    1.0580   14.3390 O.3   196  THR196     -0.2208
     94  CG2       19.8540   -1.2870   14.2630 C.3   196  THR196      0.0379
     95  N         23.4710    0.9060   15.8900 N.am  197  PRO197     -0.2715
     96  CA        24.1460    2.2110   15.9360 C.3   197  PRO197      0.1521
     97  C         23.2330    3.3420   15.4020 C.2   197  PRO197      0.2440
     98  O         22.5530    3.1640   14.3720 O.2   197  PRO197     -0.2731
     99  CB        25.3750    1.9420   15.0190 C.3   197  PRO197      0.0310
    100  CG        25.6850    0.5410   15.3330 C.3   197  PRO197      0.0237
    101  CD        24.2750   -0.1760   15.2470 C.3   197  PRO197      0.0939
    102  N         23.2370    4.5080   15.9760 N.am  198  PRO198     -0.2727
    103  CA        24.1600    4.9630   16.9830 C.3   198  PRO198      0.1402
    104  C         23.8360    4.5900   18.4630 C.2   198  PRO198      0.2269
    105  O         24.4900    5.0430   19.3910 O.2   198  PRO198     -0.2865
    106  CB        24.1410    6.4740   16.7760 C.3   198  PRO198      0.0296
    107  CG        22.7790    6.7820   16.3610 C.3   198  PRO198      0.0237
    108  CD        22.4780    5.6440   15.3780 C.3   198  PRO198      0.0939
    109  N         10.5890    2.1030   25.6320 N.3   205  TRP205     -0.1241
    110  CA        10.1280    0.9050   24.9120 C.3   205  TRP205      0.1605
    111  C          8.7740    0.4960   25.4380 C.2   205  TRP205      0.2264
    112  O          8.5490    0.4490   26.6390 O.2   205  TRP205     -0.2867
    113  CB        11.1210   -0.3100   25.1650 C.3   205  TRP205      0.0550
    114  CG        12.3310   -0.2170   24.2080 C.ar  205  TRP205      0.0003
    115  CD1       13.5230    0.3680   24.4010 C.ar  205  TRP205      0.0946
    116  CD2       12.2690   -0.5920   22.8550 C.ar  205  TRP205      0.0152
    117  NE1       14.2520    0.3620   23.2300 N.ar  205  TRP205     -0.2442
    118  CE2       13.5230   -0.2780   22.2520 C.ar  205  TRP205      0.0810
    119  CE3       11.2920   -1.2370   22.0920 C.ar  205  TRP205      0.0012
    120  CZ2       13.7990   -0.5180   20.9240 C.ar  205  TRP205      0.0191
    121  CZ3       11.5460   -1.4860   20.7470 C.ar  205  TRP205      0.0001
    122  CH2       12.8210   -1.1830   20.1580 C.ar  205  TRP205      0.0015
@<TRIPOS>BOND
     1     5     2    1
     2     5     6    1
     3    14    11    1
     4    14    15    1
     5    11    10    1
     6    11    12    1
     7     2     3    1
     8     2     1    1
     9     6     7    1
    10     8     7    2
    11    12    13    2
    12     3     4    2
    13     7     9   am
    14    15    16   ar
    15    15    17   ar
    16    16    18   ar
    17    17    19   ar
    18    20    21    1
    19    22    21    1
    20    22    23    2
    21    21    24    1
    22    18    19   ar
    23    33    32    2
    24    54    56   ar
    25    54    52   ar
    26    51    52    1
    27    51    48    1
    28    56    57   ar
    29    24    25    1
    30    52    53   ar
    31    26    25   ar
    32    26    28   ar
    33    94    92    1
    34    25    27   ar
    35    93    92    1
    36    98    97    2
    37    28    29   ar
    38    57    55   ar
    39    47    48    1
    40    27    29   ar
    41    92    89    1
    42    43    42    2
    43    46    44    1
    44    53    55   ar
    45    30    31    1
    46    32    31    1
    47    44    45    1
    48    44    41    1
    49    48    49    1
    50    99   100    1
    51    99    96    1
    52    40    41    1
    53   101   100    1
    54   101    95    1
    55    49    50    2
    56   108   102    1
    57   108   107    1
    58    97    96    1
    59    97   102   am
    60    31    34    1
    61    34    35    1
    62    41    42    1
    63    95    96    1
    64    95    90   am
    65   102   103    1
    66    89    90    1
    67    89    88    1
    68    90    91    2
    69   107   106    1
    70    35    36   ar
    71    35    37   ar
    72    36    38   ar
    73   106   103    1
    74   103   104    1
    75    88    83   am
    76    37    39   ar
    77    38    39   ar
    78    79    78    1
    79    84    83    2
    80    86    85    1
    81    83    82    1
    82    80    78    1
    83   104   105    2
    84    65    63    1
    85    71    70    1
    86    78    77    1
    87    77    74    1
    88    85    82    1
    89    85    87    1
    90    82    81    1
    91    64    63    1
    92    81    75   am
    93    72    70    1
    94    63    62    1
    95    70    67    1
    96    74    75    1
    97    74    73    1
    98    75    76    2
    99    67    68    1
   100    67    66    1
   101   122   121   ar
   102   122   120   ar
   103    62    59    1
   104    68    69    2
   105   121   119   ar
   106   120   118   ar
   107    59    60    1
   108    59    58    1
   109    60    61    2
   110   119   116   ar
   111   118   116   ar
   112   118   117   ar
   113   116   114   ar
   114   117   115   ar
   115   114   115   ar
   116   114   113    1
   117   110   113    1
   118   110   111    1
   119   110   109    1
   120   111   112    2
