@<TRIPOS>MOLECULE
tmp/4q90A00.pdb
 116 111 0 0 0
SMALL
GASTEIGER

@<TRIPOS>ATOM
      1  N         12.7370    0.3830    5.9350 N.3    64  ASN64      -0.1240
      2  CA        11.9160    1.3330    6.6890 C.3    64  ASN64       0.1653
      3  C         10.7180    1.7320    5.8760 C.2    64  ASN64       0.2266
      4  O         10.8780    2.1360    4.7450 O.2    64  ASN64      -0.2867
      5  CB        12.6610    2.6050    7.0240 C.3    64  ASN64       0.1155
      6  CG        13.7780    2.3980    7.9870 C.2    64  ASN64       0.2627
      7  OD1       13.8670    1.3890    8.6600 O.2    64  ASN64      -0.2716
      8  ND2       14.7140    3.3890    8.0210 N.am   64  ASN64      -0.0877
      9  N          8.5200    6.1210   11.3620 N.3    89  GLN89      -0.1245
     10  CA         8.7890    4.9710   10.4740 C.3    89  GLN89       0.1566
     11  C          8.5340    3.6980   11.2230 C.2    89  GLN89       0.2260
     12  O          8.4810    3.7220   12.4650 O.2    89  GLN89      -0.2867
     13  CB        10.2390    4.9430    9.9340 C.3    89  GLN89       0.0367
     14  CG        11.2870    4.9990   11.1110 C.3    89  GLN89       0.0905
     15  CD        12.0220    3.7140   11.3180 C.2    89  GLN89       0.2608
     16  OE1       11.4390    2.6480   11.3070 O.2    89  GLN89      -0.2717
     17  NE2       13.3470    3.8300   11.4880 N.am   89  GLN89      -0.0878
     18  N          9.9160   -0.5690   11.0400 N.3    91  HIS91      -0.1241
     19  CA        10.8100   -1.5360   10.4140 C.3    91  HIS91       0.1621
     20  C         10.7060   -2.8240   11.1990 C.2    91  HIS91       0.2264
     21  O         10.0720   -2.8600   12.2460 O.2    91  HIS91      -0.2867
     22  CB        12.2800   -1.0610   10.3740 C.3    91  HIS91       0.0745
     23  CG        12.7970   -0.8020   11.7470 C.ar   91  HIS91       0.0817
     24  ND1       12.6310    0.4170   12.3560 N.ar   91  HIS91      -0.2268
     25  CD2       13.4580   -1.5990   12.6150 C.ar   91  HIS91       0.1154
     26  CE1       13.1400    0.3570   13.5740 C.ar   91  HIS91       0.1986
     27  NE2       13.6360   -0.8680   13.7590 N.ar   91  HIS91      -0.2212
     28  N         13.0310   -6.5410   12.5560 N.3    93  HIS93      -0.1241
     29  CA        14.2290   -7.3520   12.7180 C.3    93  HIS93       0.1621
     30  C         13.8230   -8.8180   12.6060 C.2    93  HIS93       0.2264
     31  O         12.7420   -9.1760   13.1260 O.2    93  HIS93      -0.2867
     32  CB        14.8580   -7.0980   14.0840 C.3    93  HIS93       0.0745
     33  CG        15.1330   -5.6370   14.3960 C.ar   93  HIS93       0.0817
     34  ND1       16.3990   -5.1060   14.2000 N.ar   93  HIS93      -0.2268
     35  CD2       14.3490   -4.6180   14.8180 C.ar   93  HIS93       0.1154
     36  CE1       16.3810   -3.8060   14.5490 C.ar   93  HIS93       0.1986
     37  NE2       15.1370   -3.4860   14.8700 N.ar   93  HIS93      -0.2212
     38  N          9.0810   -2.7580   14.9110 N.3   116  HIS116     -0.1241
     39  CA         9.3470   -1.5440   15.6980 C.3   116  HIS116      0.1621
     40  C          8.6690   -0.4260   15.0150 C.2   116  HIS116      0.2264
     41  O          9.0950   -0.0400   13.9130 O.2   116  HIS116     -0.2867
     42  CB        10.8260   -1.2930   15.7290 C.3   116  HIS116      0.0745
     43  CG        11.4910   -2.3040   16.6320 C.ar  116  HIS116      0.0817
     44  ND1       12.8520   -2.5050   16.6620 N.ar  116  HIS116     -0.2268
     45  CD2       10.9630   -3.1430   17.5620 C.ar  116  HIS116      0.1154
     46  CE1       13.1510   -3.4320   17.5560 C.ar  116  HIS116      0.1986
     47  NE2       12.0270   -3.8360   18.1530 N.ar  116  HIS116     -0.2212
     48  N          8.3890    3.4040   15.2760 N.3   118  VAL118     -0.1245
     49  CA         9.1950    4.4560   15.9740 C.3   118  VAL118      0.1561
     50  C          8.4550    5.7850   15.9540 C.2   118  VAL118      0.2260
     51  O          8.0040    6.2550   14.9100 O.2   118  VAL118     -0.2867
     52  CB        10.4670    4.6450   15.2020 C.3   118  VAL118      0.0252
     53  CG1       11.3260    5.7250   15.8420 C.3   118  VAL118      0.0019
     54  CG2       11.2540    3.2970   15.0850 C.3   118  VAL118      0.0019
     55  N         12.7790   14.9100   14.8190 N.3   127  PHE127     -0.1241
     56  CA        13.3920   13.6490   15.2220 C.3   127  PHE127      0.1605
     57  C         14.8300   13.8230   15.6340 C.2   127  PHE127      0.2264
     58  O         15.2900   13.1890   16.5930 O.2   127  PHE127     -0.2867
     59  CB        13.2580   12.6510   14.0380 C.3   127  PHE127      0.0534
     60  CG        13.9230   11.3330   14.2990 C.ar  127  PHE127     -0.0203
     61  CD1       13.2630   10.3150   14.9670 C.ar  127  PHE127     -0.0042
     62  CD2       15.2650   11.1710   13.9740 C.ar  127  PHE127     -0.0042
     63  CE1       13.8550    9.1520   15.2380 C.ar  127  PHE127     -0.0003
     64  CE2       15.9170    9.9920   14.2490 C.ar  127  PHE127     -0.0003
     65  CZ        15.2060    8.9510   14.8940 C.ar  127  PHE127     -0.0000
     66  N         12.0610    9.3890   22.3080 N.3   137  LEU137     -0.1245
     67  CA        11.4100    8.4000   21.4080 C.3   137  LEU137      0.1561
     68  C         10.5050    7.4810   22.2120 C.2   137  LEU137      0.2260
     69  O         10.7480    7.2030   23.4100 O.2   137  LEU137     -0.2867
     70  CB        12.4550    7.5110   20.6930 C.3   137  LEU137      0.0270
     71  CG        13.3470    8.2490   19.7080 C.3   137  LEU137      0.0019
     72  CD1       14.0920    7.1460   18.8720 C.3   137  LEU137      0.0001
     73  CD2       12.7620    9.2030   18.6870 C.3   137  LEU137      0.0001
     74  N          9.0740    3.5960   21.2240 N.3   139  VAL139     -0.1245
     75  CA         9.0590    2.5590   20.1820 C.3   139  VAL139      0.1561
     76  C          8.0770    1.5000   20.6220 C.2   139  VAL139      0.2260
     77  O          8.2000    0.9450   21.7320 O.2   139  VAL139     -0.2867
     78  CB        10.4210    1.9220   19.8470 C.3   139  VAL139      0.0252
     79  CG1       10.2810    0.9480   18.6810 C.3   139  VAL139      0.0019
     80  CG2       11.3950    3.0070   19.3670 C.3   139  VAL139      0.0019
     81  N         17.9790    2.7960   21.1700 N.3   194  LEU194     -0.1231
     82  CA        17.9040    2.2610   19.7340 C.3   194  LEU194      0.1693
     83  C         18.6540    0.9260   19.8090 C.2   194  LEU194      0.2593
     84  O         19.6780    0.7560   20.5490 O.2   194  LEU194     -0.2718
     85  CB        18.7160    3.1220   18.7980 C.3   194  LEU194      0.0284
     86  CG        18.2980    4.5980   18.7250 C.3   194  LEU194      0.0019
     87  CD1       19.1720    5.3880   17.6300 C.3   194  LEU194      0.0001
     88  CD2       16.8520    4.7650   18.4820 C.3   194  LEU194      0.0001
     89  N         18.3140   -0.0340   18.9720 N.am  195  THR195     -0.1939
     90  CA        19.0570   -1.3290   18.9930 C.3   195  THR195      0.2028
     91  C         20.0320   -1.4460   17.8380 C.2   195  THR195      0.2642
     92  O         20.6490   -2.4970   17.6680 O.2   195  THR195     -0.2714
     93  CB        18.0660   -2.4900   18.9010 C.3   195  THR195      0.1808
     94  OG1       17.3700   -2.4100   17.6510 O.3   195  THR195     -0.2208
     95  CG2       17.0520   -2.4220   20.0400 C.3   195  THR195      0.0379
     96  N         20.2370   -0.3490   17.0620 N.am  196  THR196     -0.1950
     97  CA        21.3650   -0.3060   16.1240 C.3   196  THR196      0.1897
     98  C         22.1120    0.9980   16.4020 C.2   196  THR196      0.2313
     99  O         21.5800    1.9750   16.9580 O.2   196  THR196     -0.2863
    100  CB        20.9160   -0.1460   14.6680 C.3   196  THR196      0.1794
    101  OG1       19.7560    0.6290   14.6230 O.3   196  THR196     -0.2208
    102  CG2       20.6480   -1.5120   14.0850 C.3   196  THR196      0.0378
    103  N         10.4980    2.1010   25.7530 N.3   205  TRP205     -0.1241
    104  CA        10.0190    0.9160   25.0360 C.3   205  TRP205      0.1605
    105  C          8.6700    0.4560   25.5330 C.2   205  TRP205      0.2264
    106  O          8.4380    0.3800   26.7300 O.2   205  TRP205     -0.2867
    107  CB        11.0630   -0.2910   25.2410 C.3   205  TRP205      0.0550
    108  CG        12.1770   -0.2010   24.2620 C.ar  205  TRP205      0.0003
    109  CD1       13.3730    0.3700   24.4520 C.ar  205  TRP205      0.0946
    110  CD2       12.1240   -0.6200   22.8840 C.ar  205  TRP205      0.0152
    111  NE1       14.1330    0.3260   23.2890 N.ar  205  TRP205     -0.2442
    112  CE2       13.3610   -0.2580   22.2780 C.ar  205  TRP205      0.0810
    113  CE3       11.1250   -1.2470   22.1130 C.ar  205  TRP205      0.0012
    114  CZ2       13.6500   -0.5120   20.9260 C.ar  205  TRP205      0.0191
    115  CZ3       11.3850   -1.4970   20.7890 C.ar  205  TRP205      0.0001
    116  CH2       12.6380   -1.1700   20.1970 C.ar  205  TRP205      0.0015
@<TRIPOS>BOND
     1     4     3    2
     2     3     2    1
     3     1     2    1
     4     2     5    1
     5     5     6    1
     6     6     8   am
     7     6     7    2
     8    13    10    1
     9    13    14    1
    10    22    19    1
    11    22    23    1
    12    19    18    1
    13    19    20    1
    14    10    11    1
    15    10     9    1
    16    14    15    1
    17    20    21    2
    18    11    12    2
    19    16    15    2
    20    15    17   am
    21    23    24   ar
    22    23    25   ar
    23    24    26   ar
    24    28    29    1
    25    30    29    1
    26    30    31    2
    27    25    27   ar
    28    29    32    1
    29    26    27   ar
    30    41    40    2
    31    62    64   ar
    32    62    60   ar
    33    59    60    1
    34    59    56    1
    35    32    33    1
    36   102   100    1
    37    34    33   ar
    38    34    36   ar
    39    64    65   ar
    40    60    61   ar
    41    33    35   ar
    42    36    37   ar
    43   101   100    1
    44   100    97    1
    45    35    37   ar
    46    55    56    1
    47    65    63   ar
    48    51    50    2
    49    38    39    1
    50    61    63   ar
    51    40    39    1
    52    54    52    1
    53    52    53    1
    54    52    49    1
    55    56    57    1
    56    48    49    1
    57    57    58    2
    58    39    42    1
    59    42    43    1
    60    50    49    1
    61    97    98    1
    62    97    96    1
    63    98    99    2
    64    43    44   ar
    65    43    45   ar
    66    44    46   ar
    67    96    91   am
    68    46    47   ar
    69    45    47   ar
    70    87    86    1
    71    94    93    1
    72    92    91    2
    73    91    90    1
    74    88    86    1
    75    79    78    1
    76    73    71    1
    77    86    85    1
    78    85    82    1
    79    72    71    1
    80    93    90    1
    81    93    95    1
    82    89    90    1
    83    89    83   am
    84    80    78    1
    85    71    70    1
    86    82    83    1
    87    82    81    1
    88    83    84    2
    89    78    75    1
    90    75    76    1
    91    75    74    1
    92   116   115   ar
    93   116   114   ar
    94    76    77    2
    95    70    67    1
    96   115   113   ar
    97   114   112   ar
    98    67    68    1
    99    67    66    1
   100   113   110   ar
   101    68    69    2
   102   112   110   ar
   103   112   111   ar
   104   110   108   ar
   105   111   109   ar
   106   108   109   ar
   107   108   107    1
   108   104   107    1
   109   104   105    1
   110   104   103    1
   111   105   106    2
