@<TRIPOS>MOLECULE
tmp/4q93A00.pdb
 128 118 0 0 0
SMALL
GASTEIGER

@<TRIPOS>ATOM
      1  N         -5.7110   22.2060  -16.6620 N.3    36  TYR36      -0.1241
      2  CA        -6.7790   21.2750  -16.6480 C.3    36  TYR36       0.1605
      3  C         -7.4860   21.1180  -15.3310 C.2    36  TYR36       0.2264
      4  O         -7.0100   21.5310  -14.2710 O.2    36  TYR36      -0.2867
      5  CB        -6.3110   19.8740  -17.1720 C.3    36  TYR36       0.0534
      6  CG        -5.8510   18.9020  -16.1500 C.ar   36  TYR36      -0.0201
      7  CD1       -4.6150   18.9880  -15.5980 C.ar   36  TYR36      -0.0009
      8  CD2       -6.6640   17.8280  -15.7510 C.ar   36  TYR36      -0.0009
      9  CE1       -4.1860   18.0580  -14.6510 C.ar   36  TYR36       0.0417
     10  CE2       -6.2690   16.9290  -14.7830 C.ar   36  TYR36       0.0417
     11  CZ        -4.9780   17.0490  -14.2610 C.ar   36  TYR36       0.1957
     12  OH        -4.5310   16.1240  -13.3330 O.3    36  TYR36      -0.2866
     13  N        -10.0750   17.8850  -13.7310 N.3    38  GLY38      -0.1210
     14  CA       -10.5810   16.5150  -13.8850 C.3    38  GLY38       0.1956
     15  C        -11.8180   16.1980  -13.1080 C.2    38  GLY38       0.2613
     16  O        -12.0250   16.7140  -12.0370 O.2    38  GLY38      -0.2717
     17  N        -12.6810   15.3690  -13.6840 N.am   39  THR39      -0.1938
     18  CA       -13.8290   14.9120  -12.9480 C.3    39  THR39       0.2028
     19  C        -14.0710   13.4600  -13.2480 C.2    39  THR39       0.2642
     20  O        -13.9330   12.9950  -14.4050 O.2    39  THR39      -0.2714
     21  CB       -15.0850   15.7280  -13.3400 C.3    39  THR39       0.1808
     22  OG1      -16.1670   15.3970  -12.4800 O.3    39  THR39      -0.2208
     23  CG2      -15.4420   15.4840  -14.7230 C.3    39  THR39       0.0379
     24  N        -14.4060   12.7060  -12.2240 N.am   40  ALA40      -0.1977
     25  CA       -14.6820   11.2940  -12.5050 C.3    40  ALA40       0.1597
     26  C        -16.1660   11.2070  -12.9290 C.2    40  ALA40       0.2287
     27  O        -16.9590   11.9880  -12.5340 O.2    40  ALA40      -0.2864
     28  CB       -14.3880   10.4150  -11.2960 C.3    40  ALA40       0.0319
     29  N        -10.4960   16.7530  -18.2340 N.3    69  LEU69      -0.1245
     30  CA       -10.2790   15.3150  -18.2070 C.3    69  LEU69       0.1561
     31  C        -11.4590   14.6150  -17.6590 C.2    69  LEU69       0.2260
     32  O        -11.8550   14.7780  -16.4990 O.2    69  LEU69      -0.2867
     33  CB        -9.0640   14.9550  -17.3500 C.3    69  LEU69       0.0270
     34  CG        -8.7030   13.4970  -17.1670 C.3    69  LEU69       0.0019
     35  CD1       -8.2460   12.8350  -18.4390 C.3    69  LEU69       0.0001
     36  CD2       -7.6330   13.3280  -16.0630 C.3    69  LEU69       0.0001
     37  N        -12.4450   11.2940  -16.1860 N.3    71  ALA71      -0.1245
     38  CA       -11.6170   10.2320  -15.6230 C.3    71  ALA71       0.1562
     39  C        -12.3860    8.9470  -15.6130 C.2    71  ALA71       0.2260
     40  O        -12.9140    8.4700  -14.5920 O.2    71  ALA71      -0.2867
     41  CB       -11.1570   10.6530  -14.2260 C.3    71  ALA71       0.0290
     42  N        -10.9240    5.8350  -13.5120 N.3    74  HIS74      -0.1241
     43  CA       -11.3220    5.8540  -12.0900 C.3    74  HIS74       0.1621
     44  C        -12.7660    5.4070  -11.9300 C.2    74  HIS74       0.2264
     45  O        -13.1140    4.6960  -10.9900 O.2    74  HIS74      -0.2867
     46  CB       -11.1760    7.2250  -11.5140 C.3    74  HIS74       0.0745
     47  CG        -9.7930    7.7790  -11.5800 C.ar   74  HIS74       0.0817
     48  ND1       -9.1500    8.0430  -12.7660 N.ar   74  HIS74      -0.2268
     49  CD2       -8.9530    8.1850  -10.6000 C.ar   74  HIS74       0.1154
     50  CE1       -7.9570    8.5330  -12.5180 C.ar   74  HIS74       0.1986
     51  NE2       -7.8060    8.6280  -11.2090 N.ar   74  HIS74      -0.2212
     52  N        -14.3360    1.9920   -9.7520 N.3    78  ASP78      -0.1239
     53  CA       -15.3320    1.8920   -8.6860 C.3    78  ASP78       0.1674
     54  C        -16.1760    0.6800   -8.9370 C.2    78  ASP78       0.2266
     55  O        -16.1930   -0.2050   -8.1110 O.2    78  ASP78      -0.2867
     56  CB       -16.1950    3.1330   -8.5720 C.3    78  ASP78       0.1410
     57  CG       -15.4310    4.2850   -8.0240 C.2    78  ASP78       0.3668
     58  OD1      -14.4670    4.0450   -7.2680 O.co2  78  ASP78      -0.2456
     59  OD2      -15.7630    5.4280   -8.3550 O.co2  78  ASP78      -0.2456
     60  N         -9.5640   12.2180   -0.2310 N.3   149  VAL149     -0.1231
     61  CA       -10.1520   11.9660   -1.5600 C.3   149  VAL149      0.1692
     62  C        -10.4550   10.5020   -1.8700 C.2   149  VAL149      0.2591
     63  O        -11.1400   10.1990   -2.8390 O.2   149  VAL149     -0.2718
     64  CB        -9.2250   12.4980   -2.6720 C.3   149  VAL149      0.0266
     65  CG1       -9.8330   12.2590   -4.0570 C.3   149  VAL149      0.0020
     66  CG2       -8.9360   13.9820   -2.4610 C.3   149  VAL149      0.0020
     67  N         -9.9480    9.5870   -1.0620 N.am  150  VAL150     -0.1980
     68  CA       -10.1940    8.1720   -1.2840 C.3   150  VAL150      0.1595
     69  C        -10.8220    7.5800   -0.0090 C.2   150  VAL150      0.2287
     70  O        -10.2400    7.6950    1.0690 O.2   150  VAL150     -0.2864
     71  CB        -8.8760    7.4870   -1.7410 C.3   150  VAL150      0.0276
     72  CG1       -7.9080    7.2480   -0.5780 C.3   150  VAL150      0.0022
     73  CG2       -9.1900    6.2100   -2.5100 C.3   150  VAL150      0.0022
     74  N         -4.0730    6.1890   -6.9740 N.3   163  TYR163     -0.1241
     75  CA        -4.6970    7.4510   -7.3940 C.3   163  TYR163      0.1605
     76  C         -3.7850    8.7040   -7.3670 C.2   163  TYR163      0.2264
     77  O         -3.7180    9.4170   -8.3700 O.2   163  TYR163     -0.2867
     78  CB        -6.0610    7.6160   -6.6510 C.3   163  TYR163      0.0534
     79  CG        -7.0680    6.5650   -7.1960 C.ar  163  TYR163     -0.0201
     80  CD1       -6.7470    5.8160   -8.3530 C.ar  163  TYR163     -0.0009
     81  CD2       -8.3150    6.2900   -6.5760 C.ar  163  TYR163     -0.0009
     82  CE1       -7.6190    4.8600   -8.8790 C.ar  163  TYR163      0.0417
     83  CE2       -9.2200    5.3460   -7.1330 C.ar  163  TYR163      0.0417
     84  CZ        -8.8510    4.6400   -8.2860 C.ar  163  TYR163      0.1957
     85  OH        -9.6190    3.6700   -8.9200 O.3   163  TYR163     -0.2866
     86  N         -2.9710   10.8120  -10.8220 N.3   167  GLN167     -0.1245
     87  CA        -3.3570   12.2270  -10.9500 C.3   167  GLN167      0.1566
     88  C         -2.1410   13.1130  -11.1840 C.2   167  GLN167      0.2260
     89  O         -2.2010   14.0140  -11.9750 O.2   167  GLN167     -0.2867
     90  CB        -4.1590   12.6740   -9.7180 C.3   167  GLN167      0.0367
     91  CG        -4.7790   14.0240   -9.9010 C.3   167  GLN167      0.0905
     92  CD        -5.9010   14.3200   -8.9490 C.2   167  GLN167      0.2608
     93  OE1       -6.2630   13.4950   -8.1430 O.2   167  GLN167     -0.2717
     94  NE2       -6.3650   15.5520   -8.9550 N.am  167  GLN167     -0.0878
     95  N         -1.1010   12.6840  -14.8480 N.3   170  ASP170     -0.1239
     96  CA        -2.0190   13.4720  -15.6750 C.3   170  ASP170      0.1674
     97  C         -1.5190   14.8690  -16.0300 C.2   170  ASP170      0.2266
     98  O         -1.6040   15.3100  -17.1830 O.2   170  ASP170     -0.2867
     99  CB        -3.4200   13.4840  -15.0430 C.3   170  ASP170      0.1410
    100  CG        -4.1010   12.1080  -15.0850 C.2   170  ASP170      0.3668
    101  OD1       -3.7270   11.2330  -15.9390 O.co2 170  ASP170     -0.2456
    102  OD2       -4.9700   11.8710  -14.1950 O.co2 170  ASP170     -0.2456
    103  N         -2.9420   22.7110  -12.6600 N.3   179  GLN179     -0.1245
    104  CA        -4.1690   21.9950  -12.4610 C.3   179  GLN179      0.1566
    105  C         -5.0220   22.8080  -11.4780 C.2   179  GLN179      0.2260
    106  O         -4.4840   23.3540  -10.5220 O.2   179  GLN179     -0.2867
    107  CB        -3.9260   20.5900  -11.8550 C.3   179  GLN179      0.0367
    108  CG        -5.2300   19.7360  -11.7370 C.3   179  GLN179      0.0905
    109  CD        -5.0380   18.3280  -11.1200 C.2   179  GLN179      0.2608
    110  OE1       -6.0170   17.6070  -10.7740 O.2   179  GLN179     -0.2717
    111  NE2       -3.7660   17.9350  -10.9570 N.am  179  GLN179     -0.0878
    112  N         -8.1870   18.7070   -2.3720 N.3   185  GLN185     -0.1245
    113  CA        -7.1250   18.0010   -3.0820 C.3   185  GLN185      0.1566
    114  C         -5.7280   18.4580   -2.8170 C.2   185  GLN185      0.2260
    115  O         -4.8080   18.0270   -3.5270 O.2   185  GLN185     -0.2867
    116  CB        -7.3910   18.0910   -4.5610 C.3   185  GLN185      0.0367
    117  CG        -8.6120   17.2320   -4.9260 C.3   185  GLN185      0.0905
    118  CD        -9.0110   17.3770   -6.3570 C.2   185  GLN185      0.2608
    119  OE1       -8.9790   16.4210   -7.1370 O.2   185  GLN185     -0.2717
    120  NE2       -9.3660   18.5780   -6.7310 N.am  185  GLN185     -0.0878
    121  N         -2.9680   15.8670   -2.5890 N.3   188  ILE188     -0.1245
    122  CA        -2.7020   15.2990   -3.8870 C.3   188  ILE188      0.1561
    123  C         -1.8520   16.2220   -4.7250 C.2   188  ILE188      0.2260
    124  O         -0.9240   15.8030   -5.4110 O.2   188  ILE188     -0.2867
    125  CB        -4.0350   15.0160   -4.5870 C.3   188  ILE188      0.0252
    126  CG1       -4.7490   13.9890   -3.7780 C.3   188  ILE188      0.0019
    127  CG2       -3.8440   14.6300   -6.0330 C.3   188  ILE188      0.0019
    128  CD1       -4.7060   12.6030   -4.3470 C.3   188  ILE188      0.0001
@<TRIPOS>BOND
     1    35    34    1
     2    29    30    1
     3    30    31    1
     4    30    33    1
     5    31    32    2
     6    33    34    1
     7    98    97    2
     8     5     2    1
     9     5     6    1
    10    34    36    1
    11     1     2    1
    12     2     3    1
    13    37    38    1
    14     6     8   ar
    15     6     7   ar
    16    97    96    1
    17   101   100   ar
    18     8    10   ar
    19    96    99    1
    20    96    95    1
    21    38    39    1
    22    38    41    1
    23    39    40    2
    24     7     9   ar
    25     3     4    2
    26   100    99    1
    27   100   102   ar
    28    10    11   ar
    29    23    21    1
    30     9    11   ar
    31    20    19    2
    32    11    12    1
    33    14    13    1
    34    14    15    1
    35    17    15   am
    36    17    18    1
    37    42    43    1
    38    21    18    1
    39    21    22    1
    40    19    18    1
    41    19    24   am
    42    15    16    2
    43    26    27    2
    44    26    25    1
    45    48    50   ar
    46    48    47   ar
    47   103   104    1
    48    50    51   ar
    49    25    24    1
    50    25    28    1
    51   104   107    1
    52   104   105    1
    53    43    44    1
    54    43    46    1
    55    89    88    2
    56    44    45    2
    57   107   108    1
    58   108   109    1
    59    47    46    1
    60    47    49   ar
    61   105   106    2
    62    51    49   ar
    63    88    87    1
    64   109   111   am
    65   109   110    2
    66    87    86    1
    67    87    90    1
    68    91    90    1
    69    91    92    1
    70    52    53    1
    71    94    92   am
    72    92    93    2
    73    54    53    1
    74    54    55    2
    75    85    84    1
    76    82    80   ar
    77    82    84   ar
    78    53    56    1
    79    56    57    1
    80    77    76    2
    81    59    57   ar
    82    80    79   ar
    83    84    83   ar
    84    57    58   ar
    85    75    76    1
    86    75    74    1
    87    75    78    1
    88    79    78    1
    89    79    81   ar
    90   119   118    2
    91    83    81   ar
    92   120   118   am
    93   118   117    1
    94   127   125    1
    95   124   123    2
    96   117   116    1
    97   123   122    1
    98   125   122    1
    99   125   126    1
   100   116   113    1
   101   128   126    1
   102    65    64    1
   103   122   121    1
   104   115   114    2
   105   113   114    1
   106   113   112    1
   107    63    62    2
   108    64    66    1
   109    64    61    1
   110    73    71    1
   111    62    61    1
   112    62    67   am
   113    71    68    1
   114    71    72    1
   115    61    60    1
   116    68    67    1
   117    68    69    1
   118    69    70    2
