@<TRIPOS>MOLECULE
tmp/4q94A00.pdb
 103 99 0 0 0
SMALL
GASTEIGER

@<TRIPOS>ATOM
      1  N         -2.1870  -11.2210    1.0760 N.3    17  ASN17      -0.1225
      2  CA        -3.3810  -10.4800    1.4910 C.3    17  ASN17       0.1785
      3  C         -4.4950  -10.5050    0.4370 C.2    17  ASN17       0.2598
      4  O         -5.5170   -9.8610    0.6300 O.2    17  ASN17      -0.2718
      5  CB        -3.0020   -9.0330    1.8510 C.3    17  ASN17       0.1169
      6  CG        -4.1070   -8.3100    2.6150 C.2    17  ASN17       0.2627
      7  OD1       -4.7160   -8.8540    3.5720 O.2    17  ASN17      -0.2716
      8  ND2       -4.3840   -7.0700    2.1970 N.am   17  ASN17      -0.0877
      9  N         -4.2730  -11.2120   -0.6620 N.am   18  SER18      -0.1938
     10  CA        -5.2920  -11.3230   -1.7190 C.3    18  SER18       0.2055
     11  C         -6.4950  -12.1070   -1.2390 C.2    18  SER18       0.2643
     12  O         -6.3780  -12.9930   -0.4390 O.2    18  SER18      -0.2714
     13  CB        -4.7260  -11.9370   -2.9730 C.3    18  SER18       0.2130
     14  OG        -4.7500  -13.3450   -2.9670 O.3    18  SER18      -0.2179
     15  N         -7.6610  -11.7230   -1.7140 N.am   19  GLN19      -0.1963
     16  CA        -8.8620  -12.4750   -1.4130 C.3    19  GLN19       0.1733
     17  C         -8.7200  -13.9170   -1.7760 C.2    19  GLN19       0.2616
     18  O         -9.0840  -14.8060   -1.0050 O.2    19  GLN19      -0.2715
     19  CB       -10.0490  -11.8420   -2.1360 C.3    19  GLN19       0.0408
     20  CG       -11.3670  -12.5490   -1.9110 C.3    19  GLN19       0.0908
     21  CD       -11.9720  -12.3090   -0.5600 C.2    19  GLN19       0.2608
     22  OE1      -11.8880  -11.2290   -0.0120 O.2    19  GLN19      -0.2717
     23  NE2      -12.6580  -13.3300   -0.0430 N.am   19  GLN19      -0.0878
     24  N         -8.1850  -14.1870   -2.9590 N.am   20  HIS20      -0.1973
     25  CA        -7.9950  -15.5200   -3.4090 C.3    20  HIS20       0.1656
     26  C         -7.0290  -16.3280   -2.5680 C.2    20  HIS20       0.2291
     27  O         -7.2680  -17.5140   -2.3050 O.2    20  HIS20      -0.2864
     28  CB        -7.5430  -15.5170   -4.8820 C.3    20  HIS20       0.0771
     29  CG        -7.3970  -16.8850   -5.4580 C.ar   20  HIS20       0.0820
     30  ND1       -6.1880  -17.5540   -5.4930 N.ar   20  HIS20      -0.2267
     31  CD2       -8.3240  -17.7490   -5.9550 C.ar   20  HIS20       0.1154
     32  CE1       -6.3760  -18.7710   -5.9940 C.ar   20  HIS20       0.1986
     33  NE2       -7.6550  -18.8970   -6.3110 N.ar   20  HIS20      -0.2212
     34  N         -6.2660  -16.0130    0.7640 N.3    22  VAL22      -0.1231
     35  CA        -6.8390  -16.3070    2.0720 C.3    22  VAL22       0.1692
     36  C         -7.9450  -17.3510    1.9290 C.2    22  VAL22       0.2591
     37  O         -7.9930  -18.3400    2.6500 O.2    22  VAL22      -0.2718
     38  CB        -7.4180  -15.0420    2.6850 C.3    22  VAL22       0.0266
     39  CG1       -8.2750  -15.3540    3.9220 C.3    22  VAL22       0.0020
     40  CG2       -6.3130  -14.0410    3.0250 C.3    22  VAL22       0.0020
     41  N         -8.8150  -17.1260    0.9420 N.am   23  GLN23      -0.1979
     42  CA        -9.9640  -18.0150    0.6710 C.3    23  GLN23       0.1601
     43  C         -9.5380  -19.4310    0.2950 C.2    23  GLN23       0.2287
     44  O        -10.1020  -20.4180    0.8100 O.2    23  GLN23      -0.2864
     45  CB       -10.8230  -17.3700   -0.4760 C.3    23  GLN23       0.0394
     46  CG       -12.0820  -18.1550   -0.8990 C.3    23  GLN23       0.0908
     47  CD       -11.7710  -19.2320   -1.9240 C.2    23  GLN23       0.2608
     48  OE1      -11.9020  -20.4150   -1.6380 O.2    23  GLN23      -0.2717
     49  NE2      -11.3190  -18.8240   -3.1130 N.am   23  GLN23      -0.0878
     50  N         -6.6750  -12.6760    9.3170 N.3    60  TYR60      -0.1241
     51  CA        -7.6970  -12.7350    8.2510 C.3    60  TYR60       0.1605
     52  C         -7.9780  -14.1840    7.8460 C.2    60  TYR60       0.2264
     53  O         -9.1130  -14.5360    7.5760 O.2    60  TYR60      -0.2867
     54  CB        -7.2590  -11.9090    7.0420 C.3    60  TYR60       0.0534
     55  CG        -7.4470  -10.4270    7.1660 C.ar   60  TYR60      -0.0201
     56  CD1       -8.3000   -9.8910    8.1350 C.ar   60  TYR60      -0.0009
     57  CD2       -6.7880   -9.5520    6.3060 C.ar   60  TYR60      -0.0009
     58  CE1       -8.4770   -8.5370    8.2690 C.ar   60  TYR60       0.0417
     59  CE2       -6.9730   -8.1630    6.4200 C.ar   60  TYR60       0.0417
     60  CZ        -7.8220   -7.6680    7.4180 C.ar   60  TYR60       0.1957
     61  OH        -8.0910   -6.3090    7.5930 O.3    60  TYR60      -0.2866
     62  N        -10.1070  -15.5690   10.5350 N.3    63  ASN63      -0.1225
     63  CA       -11.4210  -15.0570   10.2920 C.3    63  ASN63       0.1785
     64  C        -12.1670  -15.9260    9.2890 C.2    63  ASN63       0.2597
     65  O        -13.3450  -16.3170    9.5000 O.2    63  ASN63      -0.2718
     66  CB       -11.3470  -13.6410    9.7600 C.3    63  ASN63       0.1169
     67  CG       -12.7340  -13.1030    9.4020 C.2    63  ASN63       0.2627
     68  OD1      -13.5990  -12.9220   10.2750 O.2    63  ASN63      -0.2716
     69  ND2      -12.9640  -12.9250    8.1470 N.am   63  ASN63      -0.0877
     70  N        -11.4810  -16.1910    8.1750 N.am   64  ASP64      -0.1974
     71  CA       -12.1340  -16.8850    7.0480 C.3    64  ASP64       0.1709
     72  C        -12.4280  -18.3370    7.4480 C.2    64  ASP64       0.2293
     73  O        -13.4910  -18.8630    7.1730 O.2    64  ASP64      -0.2864
     74  CB       -11.2840  -16.8340    5.8130 C.3    64  ASP64       0.1436
     75  CG       -12.1100  -16.9140    4.5670 C.2    64  ASP64       0.3671
     76  OD1      -12.8020  -15.8990    4.2400 O.co2  64  ASP64      -0.2456
     77  OD2      -12.1320  -18.0110    4.0200 O.co2  64  ASP64      -0.2456
     78  N        -15.2700  -18.3710   10.2790 N.3    67  GLN67      -0.1231
     79  CA       -16.6110  -18.0580    9.7720 C.3    67  GLN67       0.1698
     80  C        -17.1300  -19.1740    8.8530 C.2    67  GLN67       0.2592
     81  O        -18.2930  -19.6260    8.9720 O.2    67  GLN67      -0.2718
     82  CB       -16.6490  -16.7030    9.0680 C.3    67  GLN67       0.0381
     83  CG       -16.5250  -15.4960    9.9620 C.3    67  GLN67       0.0905
     84  CD       -17.0650  -14.2440    9.3360 C.2    67  GLN67       0.2608
     85  OE1      -18.1910  -14.1990    8.8520 O.2    67  GLN67      -0.2717
     86  NE2      -16.2540  -13.2090    9.3320 N.am   67  GLN67      -0.0878
     87  N        -16.2940  -19.5970    7.9160 N.am   68  ASN68      -0.1974
     88  CA       -16.7030  -20.6080    6.9490 C.3    68  ASN68       0.1688
     89  C        -16.8780  -22.0030    7.5440 C.2    68  ASN68       0.2292
     90  O        -17.6180  -22.8160    6.9790 O.2    68  ASN68      -0.2864
     91  CB       -15.7620  -20.6150    5.7200 C.3    68  ASN68       0.1181
     92  CG       -16.0290  -19.4180    4.7920 C.2    68  ASN68       0.2629
     93  OD1      -17.1570  -19.1760    4.3920 O.2    68  ASN68      -0.2716
     94  ND2      -15.0140  -18.6550    4.4950 N.am   68  ASN68      -0.0877
     95  N        -18.3050  -22.7010   10.4310 N.3    70  LYS70      -0.1245
     96  CA       -19.5450  -22.8010   11.2490 C.3    70  LYS70       0.1561
     97  C        -20.5660  -23.7960   10.6720 C.2    70  LYS70       0.2260
     98  O        -21.2080  -24.5420   11.4250 O.2    70  LYS70      -0.2867
     99  CB       -20.2320  -21.4550   11.3780 C.3    70  LYS70       0.0271
    100  CG       -19.3950  -20.3470   11.9630 C.3    70  LYS70       0.0035
    101  CD       -19.2840  -20.4650   13.4420 C.3    70  LYS70       0.0206
    102  CE       -18.7290  -19.1900   14.0440 C.3    70  LYS70       0.1093
    103  NZ       -18.3830  -19.4210   15.4490 N.3    70  LYS70      -0.1314
@<TRIPOS>BOND
     1    33    32   ar
     2    33    31   ar
     3    32    30   ar
     4    31    29   ar
     5    30    29   ar
     6    29    28    1
     7    28    25    1
     8    25    24    1
     9    25    26    1
    10    49    47   am
    11    13    14    1
    12    13    10    1
    13    24    17   am
    14    26    27    2
    15    19    20    1
    16    19    16    1
    17    47    48    2
    18    47    46    1
    19    20    21    1
    20    17    16    1
    21    17    18    2
    22    10    11    1
    23    10     9    1
    24    15    16    1
    25    15    11   am
    26    11    12    2
    27    46    45    1
    28     9     3   am
    29    21    23   am
    30    21    22    2
    31    45    42    1
    32    43    42    1
    33    43    44    2
    34     3     4    2
    35     3     2    1
    36    42    41    1
    37    34    35    1
    38    41    36   am
    39     1     2    1
    40     2     5    1
    41     5     6    1
    42    36    35    1
    43    36    37    2
    44    35    38    1
    45     8     6   am
    46     6     7    2
    47    38    40    1
    48    38    39    1
    49    77    75   ar
    50    76    75   ar
    51    93    92    2
    52    94    92   am
    53    75    74    1
    54    92    91    1
    55    91    88    1
    56    74    71    1
    57    57    59   ar
    58    57    55   ar
    59    59    60   ar
    60    88    89    1
    61    88    87    1
    62    90    89    2
    63    54    55    1
    64    54    51    1
    65    71    72    1
    66    71    70    1
    67    55    56   ar
    68    73    72    2
    69    60    61    1
    70    60    58   ar
    71    53    52    2
    72    52    51    1
    73    87    80   am
    74    56    58   ar
    75    69    67   am
    76    70    64   am
    77    51    50    1
    78    85    84    2
    79    80    81    2
    80    80    79    1
    81    82    79    1
    82    82    83    1
    83    64    65    2
    84    64    63    1
    85    86    84   am
    86    84    83    1
    87    67    66    1
    88    67    68    2
    89    66    63    1
    90    79    78    1
    91    63    62    1
    92    95    96    1
    93    97    96    1
    94    97    98    2
    95    96    99    1
    96    99   100    1
    97   100   101    1
    98   101   102    1
    99   102   103    1
