@<TRIPOS>MOLECULE
tmp/4q99A00.pdb
 115 110 0 0 0
SMALL
GASTEIGER

@<TRIPOS>ATOM
      1  N          8.4140    6.1410   11.2160 N.3    89  GLN89      -0.1245
      2  CA         8.7540    5.0150   10.3420 C.3    89  GLN89       0.1566
      3  C          8.5100    3.7490   11.1030 C.2    89  GLN89       0.2260
      4  O          8.3710    3.7790   12.3680 O.2    89  GLN89      -0.2867
      5  CB        10.2260    5.0630    9.8900 C.3    89  GLN89       0.0367
      6  CG        11.2100    5.0550   11.0650 C.3    89  GLN89       0.0905
      7  CD        12.0240    3.8060   11.1690 C.2    89  GLN89       0.2608
      8  OE1       11.4910    2.6790   11.2360 O.2    89  GLN89      -0.2717
      9  NE2       13.3280    3.9840   11.2050 N.am   89  GLN89      -0.0878
     10  N          9.9840   -0.5340   10.9170 N.3    91  HIS91      -0.1241
     11  CA        10.8820   -1.5020   10.3250 C.3    91  HIS91       0.1621
     12  C         10.7920   -2.7710   11.1320 C.2    91  HIS91       0.2264
     13  O         10.1680   -2.8030   12.1710 O.2    91  HIS91      -0.2867
     14  CB        12.3550   -0.9850   10.2600 C.3    91  HIS91       0.0745
     15  CG        12.9310   -0.7080   11.6200 C.ar   91  HIS91       0.0817
     16  ND1       12.7410    0.5030   12.2540 N.ar   91  HIS91      -0.2268
     17  CD2       13.5320   -1.5190   12.5120 C.ar   91  HIS91       0.1154
     18  CE1       13.2860    0.4270   13.4480 C.ar   91  HIS91       0.1986
     19  NE2       13.7820   -0.7830   13.6370 N.ar   91  HIS91      -0.2212
     20  N         13.0620   -6.5060   12.4360 N.3    93  HIS93      -0.1241
     21  CA        14.2680   -7.2980   12.6410 C.3    93  HIS93       0.1621
     22  C         13.8390   -8.7710   12.5700 C.2    93  HIS93       0.2264
     23  O         12.8040   -9.1190   13.1220 O.2    93  HIS93      -0.2867
     24  CB        14.9030   -7.0160   14.0470 C.3    93  HIS93       0.0745
     25  CG        15.2040   -5.5830   14.3300 C.ar   93  HIS93       0.0817
     26  ND1       16.4750   -5.0920   14.0830 N.ar   93  HIS93      -0.2268
     27  CD2       14.4230   -4.5240   14.6550 C.ar   93  HIS93       0.1154
     28  CE1       16.4930   -3.8030   14.4390 C.ar   93  HIS93       0.1986
     29  NE2       15.2490   -3.4120   14.7300 N.ar   93  HIS93      -0.2212
     30  N          9.1760   -2.6890   14.8080 N.3   116  HIS116     -0.1241
     31  CA         9.4160   -1.4620   15.5900 C.3   116  HIS116      0.1621
     32  C          8.7330   -0.3580   14.8980 C.2   116  HIS116      0.2264
     33  O          9.1370    0.0550   13.7900 O.2   116  HIS116     -0.2867
     34  CB        10.9410   -1.1940   15.6360 C.3   116  HIS116      0.0745
     35  CG        11.6600   -2.1640   16.5220 C.ar  116  HIS116      0.0817
     36  ND1       13.0730   -2.2840   16.5470 N.ar  116  HIS116     -0.2268
     37  CD2       11.1560   -3.0460   17.4170 C.ar  116  HIS116      0.1154
     38  CE1       13.3660   -3.2400   17.4230 C.ar  116  HIS116      0.1986
     39  NE2       12.2480   -3.7020   17.9730 N.ar  116  HIS116     -0.2212
     40  N          8.3010    3.4410   15.1540 N.3   118  VAL118     -0.1245
     41  CA         9.1600    4.4770   15.8320 C.3   118  VAL118      0.1561
     42  C          8.4220    5.8150   15.8510 C.2   118  VAL118      0.2260
     43  O          7.9490    6.2920   14.8050 O.2   118  VAL118     -0.2867
     44  CB        10.4520    4.6490   15.0280 C.3   118  VAL118      0.0252
     45  CG1       11.3310    5.6950   15.6540 C.3   118  VAL118      0.0019
     46  CG2       11.1480    3.2590   14.8150 C.3   118  VAL118      0.0019
     47  N         12.5070   14.6780   14.6680 N.3   127  PHE127     -0.1241
     48  CA        13.1930   13.4570   15.0890 C.3   127  PHE127      0.1605
     49  C         14.6070   13.7690   15.4740 C.2   127  PHE127      0.2264
     50  O         15.1210   13.1960   16.4390 O.2   127  PHE127     -0.2867
     51  CB        13.1270   12.4530   13.9190 C.3   127  PHE127      0.0534
     52  CG        13.8100   11.1470   14.1490 C.ar  127  PHE127     -0.0203
     53  CD1       13.2070   10.0820   14.8490 C.ar  127  PHE127     -0.0042
     54  CD2       15.1520   11.0230   13.7980 C.ar  127  PHE127     -0.0042
     55  CE1       13.8710    8.9010   15.0130 C.ar  127  PHE127     -0.0003
     56  CE2       15.7970    9.8470   13.9630 C.ar  127  PHE127     -0.0003
     57  CZ        15.1380    8.7940   14.5970 C.ar  127  PHE127     -0.0000
     58  N         12.1110    9.3290   22.1530 N.3   137  LEU137     -0.1245
     59  CA        11.4380    8.3530   21.2690 C.3   137  LEU137      0.1561
     60  C         10.5180    7.4640   22.1250 C.2   137  LEU137      0.2260
     61  O         10.7630    7.1680   23.2670 O.2   137  LEU137     -0.2867
     62  CB        12.4250    7.4730   20.4910 C.3   137  LEU137      0.0270
     63  CG        13.3230    8.2680   19.5870 C.3   137  LEU137      0.0019
     64  CD1       14.1670    7.1990   18.8610 C.3   137  LEU137      0.0001
     65  CD2       12.6450    9.0870   18.4770 C.3   137  LEU137      0.0001
     66  N          9.0360    3.6130   21.1270 N.3   139  VAL139     -0.1245
     67  CA         9.0030    2.5410   20.1070 C.3   139  VAL139      0.1561
     68  C          8.0090    1.4810   20.5580 C.2   139  VAL139      0.2260
     69  O          8.1350    0.9410   21.6550 O.2   139  VAL139     -0.2867
     70  CB        10.3910    1.9620   19.7880 C.3   139  VAL139      0.0252
     71  CG1       10.2310    0.9280   18.6060 C.3   139  VAL139      0.0019
     72  CG2       11.3440    3.0460   19.3600 C.3   139  VAL139      0.0019
     73  N         17.9670    2.7290   20.9530 N.3   194  LEU194     -0.1231
     74  CA        17.9280    2.0770   19.6440 C.3   194  LEU194      0.1693
     75  C         18.6650    0.7630   19.7560 C.2   194  LEU194      0.2593
     76  O         19.6990    0.6310   20.5030 O.2   194  LEU194     -0.2718
     77  CB        18.6960    2.9280   18.6750 C.3   194  LEU194      0.0284
     78  CG        17.9860    4.0660   17.9770 C.3   194  LEU194      0.0019
     79  CD1       17.1550    5.0380   18.7820 C.3   194  LEU194      0.0001
     80  CD2       18.9470    4.8150   17.0180 C.3   194  LEU194      0.0001
     81  N         18.2810   -0.1920   18.9910 N.am  195  THR195     -0.1939
     82  CA        18.9810   -1.5160   18.9900 C.3   195  THR195      0.2028
     83  C         19.9740   -1.5400   17.8250 C.2   195  THR195      0.2642
     84  O         20.6490   -2.5350   17.6030 O.2   195  THR195     -0.2714
     85  CB        17.9820   -2.6010   18.8200 C.3   195  THR195      0.1808
     86  OG1       17.3870   -2.4390   17.5320 O.3   195  THR195     -0.2208
     87  CG2       16.9040   -2.4710   19.8940 C.3   195  THR195      0.0379
     88  N         20.0890   -0.4460   17.0790 N.am  196  THR196     -0.1950
     89  CA        21.1300   -0.3730   16.0090 C.3   196  THR196      0.1897
     90  C         21.9640    0.8460   16.2330 C.2   196  THR196      0.2313
     91  O         21.5030    1.8390   16.8020 O.2   196  THR196     -0.2863
     92  CB        20.4160   -0.2200   14.6450 C.3   196  THR196      0.1794
     93  OG1       19.4170    0.8170   14.7630 O.3   196  THR196     -0.2208
     94  CG2       19.7290   -1.4640   14.2630 C.3   196  THR196      0.0378
     95  N         14.9100    6.0010   24.1830 N.3   203  VAL203     -0.1245
     96  CA        13.6380    5.2600   23.8560 C.3   203  VAL203      0.1561
     97  C         12.8660    4.8280   25.1060 C.2   203  VAL203      0.2260
     98  O         13.3730    4.1320   25.9690 O.2   203  VAL203     -0.2867
     99  CB        13.9160    3.9520   23.1040 C.3   203  VAL203      0.0252
    100  CG1       12.6200    3.2680   22.6500 C.3   203  VAL203      0.0019
    101  CG2       14.6360    4.2430   21.7760 C.3   203  VAL203      0.0019
    102  N         10.4570    2.0640   25.6610 N.3   205  TRP205     -0.1241
    103  CA        10.0070    0.8600   24.9460 C.3   205  TRP205      0.1605
    104  C          8.6700    0.4350   25.4540 C.2   205  TRP205      0.2264
    105  O          8.4410    0.4120   26.6610 O.2   205  TRP205     -0.2867
    106  CB        10.9950   -0.3100   25.1430 C.3   205  TRP205      0.0550
    107  CG        12.1510   -0.2160   24.1920 C.ar  205  TRP205      0.0003
    108  CD1       13.3900    0.2990   24.4390 C.ar  205  TRP205      0.0946
    109  CD2       12.1330   -0.6460   22.8150 C.ar  205  TRP205      0.0152
    110  NE1       14.1270    0.2980   23.2500 N.ar  205  TRP205     -0.2442
    111  CE2       13.4020   -0.3240   22.2410 C.ar  205  TRP205      0.0810
    112  CE3       11.1620   -1.2240   22.0030 C.ar  205  TRP205      0.0012
    113  CZ2       13.7050   -0.5540   20.8950 C.ar  205  TRP205      0.0191
    114  CZ3       11.4420   -1.4810   20.7030 C.ar  205  TRP205      0.0001
    115  CH2       12.7110   -1.1690   20.1160 C.ar  205  TRP205      0.0015
@<TRIPOS>BOND
     1     5     2    1
     2     5     6    1
     3    14    11    1
     4    14    15    1
     5    11    10    1
     6    11    12    1
     7     2     3    1
     8     2     1    1
     9     6     7    1
    10     3     4    2
    11    12    13    2
    12     7     9   am
    13     7     8    2
    14    15    16   ar
    15    15    17   ar
    16    16    18   ar
    17    20    21    1
    18    17    19   ar
    19    22    21    1
    20    22    23    2
    21    21    24    1
    22    18    19   ar
    23    33    32    2
    24    54    56   ar
    25    54    52   ar
    26    51    52    1
    27    51    48    1
    28    56    57   ar
    29    24    25    1
    30    26    25   ar
    31    26    28   ar
    32    52    53   ar
    33    94    92    1
    34    25    27   ar
    35    28    29   ar
    36    57    55   ar
    37    92    93    1
    38    92    89    1
    39    27    29   ar
    40    47    48    1
    41    43    42    2
    42    30    31    1
    43    46    44    1
    44    53    55   ar
    45    32    31    1
    46    44    45    1
    47    44    41    1
    48    48    49    1
    49    40    41    1
    50    49    50    2
    51    31    34    1
    52    34    35    1
    53    41    42    1
    54    89    90    1
    55    89    88    1
    56    90    91    2
    57    35    36   ar
    58    35    37   ar
    59    36    38   ar
    60    80    78    1
    61    88    83   am
    62    37    39   ar
    63    38    39   ar
    64    86    85    1
    65    84    83    2
    66    83    82    1
    67    78    77    1
    68    78    79    1
    69    65    63    1
    70    71    70    1
    71    77    74    1
    72    85    82    1
    73    85    87    1
    74    64    63    1
    75    82    81    1
    76    81    75   am
    77    72    70    1
    78    63    62    1
    79    74    75    1
    80    74    73    1
    81    75    76    2
    82    70    67    1
    83    67    68    1
    84    67    66    1
    85   115   114   ar
    86   115   113   ar
    87    62    59    1
    88    68    69    2
    89   114   112   ar
    90   113   111   ar
    91    59    60    1
    92    59    58    1
    93   101    99    1
    94   112   109   ar
    95    60    61    2
    96   111   109   ar
    97   111   110   ar
    98   100    99    1
    99   109   107   ar
   100    99    96    1
   101   110   108   ar
   102    96    95    1
   103    96    97    1
   104   107   108   ar
   105   107   106    1
   106   103   106    1
   107   103   104    1
   108   103   102    1
   109    97    98    2
   110   104   105    2
