@<TRIPOS>MOLECULE
tmp/4q9eC00.pdb
 78 76 0 0 0
SMALL
GASTEIGER

@<TRIPOS>ATOM
      1  N        -10.6160  -15.0720  -24.3050 N.3    66  TRP66      -0.1227
      2  CA       -11.9890  -14.7080  -23.9650 C.3    66  TRP66       0.1737
      3  C        -12.2720  -13.2240  -24.2060 C.2    66  TRP66       0.2595
      4  O        -11.3620  -12.3970  -24.1950 O.2    66  TRP66      -0.2718
      5  CB       -12.2790  -15.0430  -22.4990 C.3    66  TRP66       0.0564
      6  CG       -12.3580  -16.5020  -22.1890 C.ar   66  TRP66       0.0003
      7  CD1      -12.1700  -17.5390  -23.0530 C.ar   66  TRP66       0.0946
      8  CD2      -12.6320  -17.0890  -20.9100 C.ar   66  TRP66       0.0152
      9  NE1      -12.3050  -18.7330  -22.3910 N.ar   66  TRP66      -0.2442
     10  CE2      -12.5870  -18.4850  -21.0730 C.ar   66  TRP66       0.0810
     11  CE3      -12.9070  -16.5640  -19.6360 C.ar   66  TRP66       0.0012
     12  CZ2      -12.8120  -19.3700  -20.0150 C.ar   66  TRP66       0.0191
     13  CZ3      -13.1290  -17.4430  -18.5830 C.ar   66  TRP66       0.0001
     14  CH2      -13.0800  -18.8320  -18.7810 C.ar   66  TRP66       0.0015
     15  N        -13.5500  -12.9050  -24.3980 N.am   67  CYS67      -0.1970
     16  CA       -13.9940  -11.5360  -24.6420 C.3    67  CYS67       0.1712
     17  C        -13.7790  -10.6260  -23.4440 C.2    67  CYS67       0.2296
     18  O        -13.8930   -9.4090  -23.5560 O.2    67  CYS67      -0.2864
     19  CB       -15.4880  -11.5160  -24.9980 C.3    67  CYS67       0.0983
     20  SG       -16.5870  -12.3070  -23.7650 S.3    67  CYS67      -0.0798
     21  N        -17.4440   -8.1480  -15.5340 N.3    85  ARG85      -0.1245
     22  CA       -18.4950   -8.0520  -16.5340 C.3    85  ARG85       0.1563
     23  C        -19.7640   -7.3560  -16.0570 C.2    85  ARG85       0.2260
     24  O        -20.6710   -7.1620  -16.8420 O.2    85  ARG85      -0.2867
     25  CB       -18.8630   -9.4360  -17.0490 C.3    85  ARG85       0.0307
     26  CG       -17.7110  -10.1720  -17.6720 C.3    85  ARG85       0.0489
     27  CD       -18.1850  -11.3810  -18.4170 C.3    85  ARG85       0.2205
     28  NE       -17.0540  -12.0690  -19.0110 N.pl3  85  ARG85      -0.0865
     29  CZ       -17.1540  -13.0880  -19.8510 C.cat  85  ARG85       0.5346
     30  NH1      -18.3430  -13.5490  -20.2010 N.pl3  85  ARG85       0.1354
     31  NH2      -16.0600  -13.6300  -20.3540 N.pl3  85  ARG85       0.1354
     32  N        -21.4070  -14.0980  -17.3070 N.3    91  GLY91      -0.1210
     33  CA       -20.0030  -14.3840  -17.0850 C.3    91  GLY91       0.1956
     34  C        -19.5730  -15.7310  -17.6510 C.2    91  GLY91       0.2612
     35  O        -20.3590  -16.4560  -18.2590 O.2    91  GLY91      -0.2717
     36  N        -18.3020  -16.0520  -17.4500 N.am   92  ALA92      -0.1965
     37  CA       -17.6940  -17.3120  -17.8930 C.3    92  ALA92       0.1728
     38  C        -16.9080  -17.7540  -16.6620 C.2    92  ALA92       0.2616
     39  O        -15.6910  -17.5820  -16.5900 O.2    92  ALA92      -0.2715
     40  CB       -16.7500  -17.0450  -19.0650 C.3    92  ALA92       0.0334
     41  N        -17.6150  -18.3370  -15.7000 N.am   93  HIS93      -0.1973
     42  CA       -17.0010  -18.7030  -14.4400 C.3    93  HIS93       0.1656
     43  C        -17.4970  -19.9950  -13.8200 C.2    93  HIS93       0.2291
     44  O        -16.7750  -20.6290  -13.0480 O.2    93  HIS93      -0.2864
     45  CB       -17.2620  -17.5790  -13.4440 C.3    93  HIS93       0.0771
     46  CG       -18.7150  -17.2690  -13.2740 C.ar   93  HIS93       0.0820
     47  ND1      -19.5070  -17.9080  -12.3470 N.ar   93  HIS93      -0.2267
     48  CD2      -19.5390  -16.4560  -13.9760 C.ar   93  HIS93       0.1154
     49  CE1      -20.7570  -17.5070  -12.4890 C.ar   93  HIS93       0.1986
     50  NE2      -20.8040  -16.6260  -13.4720 N.ar   93  HIS93      -0.2212
     51  N        -19.4700  -22.5620  -15.7460 N.3    95  GLY95      -0.1210
     52  CA       -19.9680  -23.5400  -16.6920 C.3    95  GLY95       0.1940
     53  C        -21.2270  -23.1200  -17.4180 C.2    95  GLY95       0.2453
     54  O        -21.9220  -22.1980  -16.9940 O.2    95  GLY95      -0.2732
     55  N        -21.5660  -23.8110  -18.5160 N.am   96  PRO96      -0.2728
     56  CA       -22.7430  -23.5420  -19.3540 C.3    96  PRO96       0.1401
     57  C        -24.1380  -23.6640  -18.7360 C.2    96  PRO96       0.2269
     58  O        -25.1230  -23.2460  -19.3470 O.2    96  PRO96      -0.2865
     59  CB       -22.5350  -24.4720  -20.5560 C.3    96  PRO96       0.0296
     60  CG       -21.7470  -25.6110  -19.9830 C.3    96  PRO96       0.0237
     61  CD       -20.7650  -24.9270  -19.0590 C.3    96  PRO96       0.0939
     62  N        -23.6210  -20.3630  -15.6550 N.3    99  ASN99      -0.1240
     63  CA       -23.2550  -19.0350  -16.1140 C.3    99  ASN99       0.1653
     64  C        -24.4830  -18.1860  -16.4540 C.2    99  ASN99       0.2266
     65  O        -24.6010  -17.0440  -16.0100 O.2    99  ASN99      -0.2867
     66  CB       -22.3310  -19.1130  -17.3260 C.3    99  ASN99       0.1155
     67  CG       -20.9130  -19.4630  -16.9580 C.2    99  ASN99       0.2627
     68  OD1      -20.4530  -19.1990  -15.8450 O.2    99  ASN99      -0.2716
     69  ND2      -20.1980  -20.0560  -17.9060 N.am   99  ASN99      -0.0877
     70  N        -18.9290  -27.2250   -9.8210 N.3   150  GLN150     -0.1245
     71  CA       -17.8370  -27.6440  -10.6920 C.3   150  GLN150      0.1566
     72  C        -16.6750  -28.2220   -9.8910 C.2   150  GLN150      0.2260
     73  O        -16.3850  -27.7810   -8.7790 O.2   150  GLN150     -0.2867
     74  CB       -17.3310  -26.4690  -11.5490 C.3   150  GLN150      0.0367
     75  CG       -18.3830  -25.8060  -12.4430 C.3   150  GLN150      0.0905
     76  CD       -17.8420  -25.4080  -13.8140 C.2   150  GLN150      0.2608
     77  OE1      -18.2620  -25.9550  -14.8240 O.2   150  GLN150     -0.2717
     78  NE2      -16.9090  -24.4540  -13.8500 N.am  150  GLN150     -0.0878
@<TRIPOS>BOND
     1    19    16    1
     2    19    20    1
     3    16    15    1
     4    16    17    1
     5    15     3   am
     6     1     2    1
     7     3     4    2
     8     3     2    1
     9     2     5    1
    10    18    17    2
    11     7     9   ar
    12     7     6   ar
    13     5     6    1
    14     9    10   ar
    15     6     8   ar
    16    10     8   ar
    17    10    12   ar
    18     8    11   ar
    19    59    60    1
    20    59    56    1
    21    31    29    1
    22    30    29    1
    23    12    14   ar
    24    60    61    1
    25    29    28    2
    26    11    13   ar
    27    56    57    1
    28    56    55    1
    29    58    57    2
    30    40    37    1
    31    61    55    1
    32    28    27    1
    33    14    13   ar
    34    55    53   am
    35    27    26    1
    36    35    34    2
    37    69    67   am
    38    37    36    1
    39    37    38    1
    40    26    25    1
    41    34    36   am
    42    34    33    1
    43    53    54    2
    44    53    52    1
    45    66    67    1
    46    66    63    1
    47    32    33    1
    48    25    22    1
    49    67    68    2
    50    24    23    2
    51    52    51    1
    52    38    39    2
    53    38    41   am
    54    22    23    1
    55    22    21    1
    56    64    63    1
    57    64    65    2
    58    63    62    1
    59    41    42    1
    60    77    76    2
    61    42    43    1
    62    42    45    1
    63    48    50   ar
    64    48    46   ar
    65    78    76   am
    66    43    44    2
    67    76    75    1
    68    50    49   ar
    69    45    46    1
    70    46    47   ar
    71    49    47   ar
    72    75    74    1
    73    74    71    1
    74    71    72    1
    75    71    70    1
    76    72    73    2
