@<TRIPOS>MOLECULE
tmp/4q9fA01.pdb
 152 148 0 0 0
SMALL
GASTEIGER

@<TRIPOS>ATOM
      1  N         -6.1300   28.5470   -0.5530 N.3    69  VAL69      -0.1231
      2  CA        -5.1240   27.6120   -1.0990 C.3    69  VAL69       0.1692
      3  C         -5.4730   26.1580   -0.7050 C.2    69  VAL69       0.2592
      4  O         -4.5870   25.3120   -0.5470 O.2    69  VAL69      -0.2718
      5  CB        -3.7140   27.9830   -0.6200 C.3    69  VAL69       0.0266
      6  CG1       -2.7070   27.4900   -1.5840 C.3    69  VAL69       0.0020
      7  CG2       -3.5220   29.5030   -0.4900 C.3    69  VAL69       0.0020
      8  N         -6.7410   25.8830   -0.4700 N.am   70  TYR70      -0.1962
      9  CA        -7.1340   24.5210   -0.1370 C.3    70  TYR70       0.1771
     10  C         -7.3430   23.7130   -1.4130 C.2    70  TYR70       0.2619
     11  O         -7.9690   24.1750   -2.3760 O.2    70  TYR70      -0.2715
     12  CB        -8.4290   24.5330    0.6400 C.3    70  TYR70       0.0574
     13  CG        -8.3270   24.7500    2.1310 C.ar   70  TYR70      -0.0198
     14  CD1       -7.3630   25.5960    2.6950 C.ar   70  TYR70      -0.0009
     15  CD2       -9.2820   24.1840    2.9800 C.ar   70  TYR70      -0.0009
     16  CE1       -7.3070   25.8300    4.0740 C.ar   70  TYR70       0.0417
     17  CE2       -9.2400   24.3970    4.3570 C.ar   70  TYR70       0.0417
     18  CZ        -8.2540   25.2150    4.9040 C.ar   70  TYR70       0.1957
     19  OH        -8.2470   25.4020    6.2740 O.3    70  TYR70      -0.2866
     20  N         -6.8390   22.4880   -1.4200 N.am   71  ILE71      -0.1963
     21  CA        -7.1510   21.5600   -2.5290 C.3    71  ILE71       0.1727
     22  C         -8.5740   21.0520   -2.3650 C.2    71  ILE71       0.2616
     23  O         -8.9600   20.5550   -1.2960 O.2    71  ILE71      -0.2715
     24  CB        -6.1410   20.3920   -2.5650 C.3    71  ILE71       0.0290
     25  CG1       -4.7560   20.9590   -2.9270 C.3    71  ILE71       0.0022
     26  CG2       -6.6300   19.2890   -3.5090 C.3    71  ILE71       0.0023
     27  CD1       -3.6530   19.9360   -2.9990 C.3    71  ILE71       0.0001
     28  N         -9.3740   21.1840   -3.4160 N.am   72  MET72      -0.1977
     29  CA       -10.7750   20.7610   -3.3350 C.3    72  MET72       0.1605
     30  C        -10.9780   19.3300   -3.8770 C.2    72  MET72       0.2287
     31  O        -11.8250   18.5780   -3.3700 O.2    72  MET72      -0.2864
     32  CB       -11.6650   21.7280   -4.1640 C.3    72  MET72       0.0413
     33  CG       -11.7820   23.1630   -3.6630 C.3    72  MET72       0.0598
     34  SD       -12.6340   23.1990   -2.0970 S.3    72  MET72      -0.1393
     35  CE       -11.2820   23.1490   -0.9410 C.3    72  MET72       0.0692
     36  N        -12.9500   15.9680   -1.9740 N.3    83  PHE83      -0.1241
     37  CA       -13.0350   15.7110   -0.5390 C.3    83  PHE83       0.1605
     38  C        -14.4820   15.7020   -0.1130 C.2    83  PHE83       0.2264
     39  O        -15.3470   16.3710   -0.7310 O.2    83  PHE83      -0.2867
     40  CB       -12.2480   16.7780    0.2500 C.3    83  PHE83       0.0534
     41  CG       -10.7710   16.5940    0.1890 C.ar   83  PHE83      -0.0203
     42  CD1      -10.2010   15.4260    0.6590 C.ar   83  PHE83      -0.0042
     43  CD2       -9.9500   17.5570   -0.3970 C.ar   83  PHE83      -0.0042
     44  CE1       -8.8330   15.2360    0.5740 C.ar   83  PHE83      -0.0003
     45  CE2       -8.5750   17.3870   -0.4520 C.ar   83  PHE83      -0.0003
     46  CZ        -8.0180   16.2210    0.0310 C.ar   83  PHE83      -0.0000
     47  N        -16.5230   17.2380    1.9230 N.3    85  GLU85      -0.1245
     48  CA       -16.7280   18.4720    2.6950 C.3    85  GLU85       0.1567
     49  C        -17.4820   19.4760    1.8230 C.2    85  GLU85       0.2260
     50  O        -17.4220   19.4200    0.5870 O.2    85  GLU85      -0.2867
     51  CB       -15.4070   19.0350    3.2350 C.3    85  GLU85       0.0388
     52  CG       -14.4540   19.4320    2.1320 C.3    85  GLU85       0.1160
     53  CD       -13.1570   19.9880    2.6540 C.2    85  GLU85       0.3649
     54  OE1      -12.2360   19.2120    2.9100 O.co2  85  GLU85      -0.2457
     55  OE2      -13.0660   21.2210    2.8450 O.co2  85  GLU85      -0.2457
     56  N        -10.6110   17.1180    3.7580 N.3   109  GLY109     -0.1210
     57  CA        -9.2470   17.4000    3.4380 C.3   109  GLY109      0.1956
     58  C         -8.4240   17.9210    4.5800 C.2   109  GLY109      0.2612
     59  O         -7.2930   18.2290    4.4210 O.2   109  GLY109     -0.2717
     60  N         -8.9760   18.0520    5.7540 N.am  110  ASN110     -0.1960
     61  CA        -8.0830   18.5050    6.8210 C.3   110  ASN110      0.1819
     62  C         -7.0480   17.4970    7.2730 C.2   110  ASN110      0.2621
     63  O         -7.2040   16.2850    7.1530 O.2   110  ASN110     -0.2715
     64  CB        -8.8240   19.0710    7.9720 C.3   110  ASN110      0.1195
     65  CG        -9.5180   18.0330    8.7640 C.2   110  ASN110      0.2630
     66  OD1       -8.9500   17.4180    9.6970 O.2   110  ASN110     -0.2716
     67  ND2      -10.7790   17.8650    8.4580 N.am  110  ASN110     -0.0877
     68  N         -5.9420   18.0360    7.7490 N.am  111  TYR111     -0.1960
     69  CA        -4.8020   17.2100    8.0960 C.3   111  TYR111      0.1771
     70  C         -5.1260   16.0860    9.0600 C.2   111  TYR111      0.2619
     71  O         -4.6280   14.9740    8.8860 O.2   111  TYR111     -0.2715
     72  CB        -3.7170   18.0700    8.6740 C.3   111  TYR111      0.0574
     73  CG        -2.8670   18.8060    7.6370 C.ar  111  TYR111     -0.0198
     74  CD1       -2.4380   18.1880    6.4860 C.ar  111  TYR111     -0.0009
     75  CD2       -2.3920   20.0990    7.8860 C.ar  111  TYR111     -0.0009
     76  CE1       -1.5720   18.8320    5.5940 C.ar  111  TYR111      0.0417
     77  CE2       -1.5670   20.7580    6.9890 C.ar  111  TYR111      0.0417
     78  CZ        -1.1570   20.1250    5.8410 C.ar  111  TYR111      0.1957
     79  OH        -0.3410   20.7490    4.9460 O.3   111  TYR111     -0.2866
     80  N         -5.9420   16.3910   10.0570 N.am  112  GLU112     -0.1977
     81  CA        -6.3360   15.3810   11.0600 C.3   112  GLU112      0.1602
     82  C         -7.0330   14.1540   10.3820 C.2   112  GLU112      0.2287
     83  O         -6.6270   12.9910   10.5930 O.2   112  GLU112     -0.2864
     84  CB        -7.2070   16.0410   12.1440 C.3   112  GLU112      0.0415
     85  CG        -7.9180   15.0870   13.1100 C.3   112  GLU112      0.1163
     86  CD        -9.3400   15.5250   13.5330 C.2   112  GLU112      0.3649
     87  OE1       -9.9430   14.7790   14.3460 O.co2 112  GLU112     -0.2457
     88  OE2       -9.8750   16.5700   13.0600 O.co2 112  GLU112     -0.2457
     89  N         -0.5080   18.2330   -0.8580 N.3   155  ILE155     -0.1245
     90  CA        -0.8590   19.5080   -0.1720 C.3   155  ILE155      0.1561
     91  C          0.3960   20.2280    0.3290 C.2   155  ILE155      0.2260
     92  O          0.5120   21.4430    0.1310 O.2   155  ILE155     -0.2867
     93  CB        -1.8510   19.2780    0.9610 C.3   155  ILE155      0.0252
     94  CG1       -3.2100   18.8720    0.3760 C.3   155  ILE155      0.0019
     95  CG2       -1.9100   20.4850    1.8800 C.3   155  ILE155      0.0019
     96  CD1       -4.0330   18.1820    1.4170 C.3   155  ILE155      0.0001
     97  N          0.4560   23.6800   -1.9840 N.3   159  ALA159     -0.1231
     98  CA        -0.1130   24.7250   -1.1250 C.3   159  ALA159      0.1694
     99  C          0.8170   25.2380   -0.0410 C.2   159  ALA159      0.2591
    100  O          1.0050   26.4440    0.1080 O.2   159  ALA159     -0.2718
    101  CB        -1.4140   24.2860   -0.5250 C.3   159  ALA159      0.0304
    102  N          1.4480   24.3350    0.7290 N.am  160  GLU160     -0.1979
    103  CA         2.2280   24.8280    1.8660 C.3   160  GLU160      0.1602
    104  C          3.5230   25.5240    1.3900 C.2   160  GLU160      0.2287
    105  O          3.9310   26.5560    1.9390 O.2   160  GLU160     -0.2864
    106  CB         2.5470   23.6830    2.8580 C.3   160  GLU160      0.0415
    107  CG         1.3240   23.0040    3.4780 C.3   160  GLU160      0.1163
    108  CD         0.5250   23.8270    4.4820 C.2   160  GLU160      0.3649
    109  OE1        0.6930   25.0720    4.5340 O.co2 160  GLU160     -0.2457
    110  OE2       -0.3170   23.2600    5.2280 O.co2 160  GLU160     -0.2457
    111  N          2.5820   28.9240    0.3710 N.3   163  ARG163     -0.1245
    112  CA         2.3880   29.7770    1.5680 C.3   163  ARG163      0.1563
    113  C          3.6760   30.2540    2.2630 C.2   163  ARG163      0.2260
    114  O          3.6990   31.3770    2.8310 O.2   163  ARG163     -0.2867
    115  CB         1.4940   29.0570    2.5880 C.3   163  ARG163      0.0307
    116  CG         0.0650   28.8630    2.1480 C.3   163  ARG163      0.0489
    117  CD        -0.6330   27.9180    3.0930 C.3   163  ARG163      0.2205
    118  NE        -2.0070   27.6570    2.7190 N.pl3 163  ARG163     -0.0865
    119  CZ        -2.6400   26.5080    2.9660 C.cat 163  ARG163      0.5346
    120  NH1       -1.9760   25.5310    3.5410 N.pl3 163  ARG163      0.1354
    121  NH2       -3.8890   26.3020    2.5850 N.pl3 163  ARG163      0.1354
    122  N          2.9660   25.0340    8.9390 N.3   189  GLU189     -0.1231
    123  CA         1.7030   24.5960    8.3850 C.3   189  GLU189      0.1699
    124  C          0.5730   24.8240    9.3560 C.2   189  GLU189      0.2592
    125  O         -0.4930   25.3660    9.0120 O.2   189  GLU189     -0.2718
    126  CB         1.7340   23.0940    7.9850 C.3   189  GLU189      0.0402
    127  CG         2.7530   22.7800    6.8810 C.3   189  GLU189      0.1161
    128  CD         2.9720   21.2840    6.6670 C.2   189  GLU189      0.3649
    129  OE1        2.3600   20.4810    7.4060 O.co2 189  GLU189     -0.2457
    130  OE2        3.7910   20.9370    5.7740 O.co2 189  GLU189     -0.2457
    131  N          0.7890   24.3830   10.5800 N.am  190  ASN190     -0.1974
    132  CA        -0.2010   24.4570   11.6030 C.3   190  ASN190      0.1688
    133  C         -0.5300   25.9280   12.0140 C.2   190  ASN190      0.2292
    134  O         -1.6040   26.1890   12.5640 O.2   190  ASN190     -0.2864
    135  CB         0.2860   23.6690   12.8290 C.3   190  ASN190      0.1181
    136  CG         0.2130   22.1720   12.6260 C.2   190  ASN190      0.2629
    137  OD1       -0.4790   21.7020   11.7320 O.2   190  ASN190     -0.2716
    138  ND2        0.9830   21.4270   13.4120 N.am  190  ASN190     -0.0877
    139  N         -0.4930   28.7520    9.8910 N.3   192  TRP192     -0.1241
    140  CA        -0.7190   29.6750    8.7810 C.3   192  TRP192      0.1605
    141  C         -1.9050   30.5460    9.0640 C.2   192  TRP192      0.2264
    142  O         -1.8710   31.7340    8.7850 O.2   192  TRP192     -0.2867
    143  CB        -0.9140   28.9510    7.4450 C.3   192  TRP192      0.0550
    144  CG        -1.0990   29.8940    6.2660 C.ar  192  TRP192      0.0003
    145  CD1       -0.2160   30.8380    5.8450 C.ar  192  TRP192      0.0946
    146  CD2       -2.2220   29.9610    5.3580 C.ar  192  TRP192      0.0152
    147  NE1       -0.7200   31.4850    4.7240 N.ar  192  TRP192     -0.2442
    148  CE2       -1.9390   30.9650    4.4140 C.ar  192  TRP192      0.0810
    149  CE3       -3.4230   29.2560    5.2520 C.ar  192  TRP192      0.0012
    150  CZ2       -2.8080   31.2920    3.3760 C.ar  192  TRP192      0.0191
    151  CZ3       -4.2880   29.5770    4.2400 C.ar  192  TRP192      0.0001
    152  CH2       -3.9640   30.5650    3.2840 C.ar  192  TRP192      0.0015
@<TRIPOS>BOND
     1    32    33    1
     2    32    29    1
     3    30    31    2
     4    30    29    1
     5    33    34    1
     6    26    24    1
     7    28    29    1
     8    28    22   am
     9    27    25    1
    10    25    24    1
    11    24    21    1
    12    21    22    1
    13    21    20    1
    14    11    10    2
    15    22    23    2
    16    34    35    1
    17    97    98    1
    18    36    37    1
    19     6     5    1
    20    20    10   am
    21    10     9    1
    22    98   101    1
    23    98    99    1
    24     2     3    1
    25     2     5    1
    26     2     1    1
    27    89    90    1
    28    39    38    2
    29     3     4    2
    30     3     8   am
    31     5     7    1
    32    37    38    1
    33    37    40    1
    34     8     9    1
    35    45    43   ar
    36    45    46   ar
    37    43    41   ar
    38    90    91    1
    39    90    93    1
    40     9    12    1
    41    99   100    2
    42    99   102   am
    43    46    44   ar
    44    92    91    2
    45    41    40    1
    46    41    42   ar
    47   111   112    1
    48    94    93    1
    49    94    96    1
    50    44    42   ar
    51    50    49    2
    52    12    13    1
    53   102   103    1
    54    93    95    1
    55   104   103    1
    56   104   105    2
    57   112   113    1
    58   112   115    1
    59    49    48    1
    60   103   106    1
    61    47    48    1
    62    13    14   ar
    63    13    15   ar
    64    52    53    1
    65    52    51    1
    66   116   115    1
    67   116   117    1
    68   113   114    2
    69   121   119    1
    70    53    55   ar
    71    53    54   ar
    72    14    16   ar
    73    48    51    1
    74   118   119    2
    75   118   117    1
    76   106   107    1
    77   119   120    1
    78    15    17   ar
    79   152   150   ar
    80   152   151   ar
    81   150   148   ar
    82    57    56    1
    83    57    58    1
    84   107   108    1
    85    16    18   ar
    86   151   149   ar
    87    17    18   ar
    88   148   147   ar
    89   148   146   ar
    90    59    58    2
    91   108   109   ar
    92   108   110   ar
    93    58    60   am
    94   147   145   ar
    95    18    19    1
    96    79    78    1
    97   149   146   ar
    98   146   144   ar
    99    76    78   ar
   100    76    74   ar
   101    60    61    1
   102   130   128   ar
   103    78    77   ar
   104   145   144   ar
   105   144   143    1
   106    74    73   ar
   107   128   127    1
   108   128   129   ar
   109    61    62    1
   110    61    64    1
   111   127   126    1
   112    77    75   ar
   113    63    62    2
   114    62    68   am
   115   143   140    1
   116    73    75   ar
   117    73    72    1
   118    68    69    1
   119    64    65    1
   120   126   123    1
   121    69    72    1
   122    69    70    1
   123   123   122    1
   124   123   124    1
   125    67    65   am
   126    65    66    2
   127   140   141    1
   128   140   139    1
   129   142   141    2
   130    71    70    2
   131   125   124    2
   132    70    80   am
   133   124   131   am
   134    80    81    1
   135    82    83    2
   136    82    81    1
   137   131   132    1
   138    81    84    1
   139   132   133    1
   140   132   135    1
   141   137   136    2
   142   133   134    2
   143    84    85    1
   144   136   135    1
   145   136   138   am
   146    88    86   ar
   147    85    86    1
   148    86    87   ar
