@<TRIPOS>MOLECULE
tmp/4q9nF01.pdb
 164 159 0 0 0
SMALL
GASTEIGER

@<TRIPOS>ATOM
      1  N         51.7750   54.2750   19.4440 N.3   128  ALA128     -0.1231
      2  CA        51.5680   53.3410   20.5350 C.3   128  ALA128      0.1694
      3  C         50.5230   53.9360   21.4490 C.2   128  ALA128      0.2592
      4  O         50.3690   55.1560   21.5120 O.2   128  ALA128     -0.2718
      5  CB        52.8660   53.1020   21.3040 C.3   128  ALA128      0.0304
      6  N         49.7880   53.0670   22.1330 N.am  129  ASN129     -0.1960
      7  CA        48.8500   53.5060   23.1540 C.3   129  ASN129      0.1819
      8  C         48.3570   52.3500   24.0010 C.2   129  ASN129      0.2622
      9  O         48.1350   51.2510   23.5020 O.2   129  ASN129     -0.2715
     10  CB        47.6350   54.2130   22.5440 C.3   129  ASN129      0.1195
     11  CG        46.7650   54.8690   23.6000 C.2   129  ASN129      0.2630
     12  OD1       47.1010   55.9360   24.1120 O.2   129  ASN129     -0.2716
     13  ND2       45.6390   54.2350   23.9310 N.am  129  ASN129     -0.0877
     14  N         48.2050   52.6130   25.2920 N.am  130  SER130     -0.1936
     15  CA        47.4540   51.7370   26.1740 C.3   130  SER130      0.2040
     16  C         46.5800   52.6320   27.0240 C.2   130  SER130      0.2485
     17  O         47.0440   53.6680   27.5290 O.2   130  SER130     -0.2729
     18  CB        48.3610   50.9310   27.0950 C.3   130  SER130      0.2129
     19  OG        47.5690   50.2440   28.0550 O.3   130  SER130     -0.2179
     20  N         45.3190   52.2450   27.1990 N.am  131  PRO131     -0.2726
     21  CA        44.3920   53.0440   28.0040 C.3   131  PRO131      0.1402
     22  C         44.6480   52.8840   29.5010 C.2   131  PRO131      0.2269
     23  O         44.0250   53.5770   30.3100 O.2   131  PRO131     -0.2865
     24  CB        43.0240   52.4590   27.6360 C.3   131  PRO131      0.0296
     25  CG        43.3080   51.0580   27.2320 C.3   131  PRO131      0.0237
     26  CD        44.6650   51.0890   26.5670 C.3   131  PRO131      0.0939
     27  N         48.0560   52.5390   30.9340 N.3   133  ILE133     -0.1245
     28  CA        49.5050   52.5470   31.1470 C.3   133  ILE133      0.1561
     29  C         49.8890   52.8800   32.5910 C.2   133  ILE133      0.2260
     30  O         50.9660   52.5040   33.0560 O.2   133  ILE133     -0.2867
     31  CB        50.2410   53.5020   30.1680 C.3   133  ILE133      0.0252
     32  CG1       51.7390   53.1800   30.1350 C.3   133  ILE133      0.0019
     33  CG2       49.9870   54.9510   30.5350 C.3   133  ILE133      0.0019
     34  CD1       52.4830   53.9080   29.0620 C.3   133  ILE133      0.0001
     35  N         60.5360   51.2480   19.5390 N.3   177  THR177     -0.1203
     36  CA        60.3180   50.3960   20.7060 C.3   177  THR177      0.1994
     37  C         61.0760   50.9420   21.9130 C.2   177  THR177      0.2617
     38  O         61.7800   51.9480   21.8240 O.2   177  THR177     -0.2717
     39  CB        60.7580   48.9320   20.4140 C.3   177  THR177      0.1784
     40  OG1       60.4050   48.0740   21.5070 O.3   177  THR177     -0.2211
     41  CG2       62.2570   48.8560   20.1840 C.3   177  THR177      0.0376
     42  N         60.9460   50.2750   23.0480 N.am  178  TYR178     -0.1975
     43  CA        61.6060   50.7380   24.2560 C.3   178  TYR178      0.1639
     44  C         62.1080   49.5370   25.0560 C.2   178  TYR178      0.2290
     45  O         61.5320   48.4460   24.9710 O.2   178  TYR178     -0.2864
     46  CB        60.6470   51.6150   25.0760 C.3   178  TYR178      0.0560
     47  CG        61.2270   52.0570   26.3930 C.ar  178  TYR178     -0.0198
     48  CD1       62.3810   52.8230   26.4340 C.ar  178  TYR178     -0.0009
     49  CD2       60.6230   51.7040   27.5980 C.ar  178  TYR178     -0.0009
     50  CE1       62.9290   53.2200   27.6380 C.ar  178  TYR178      0.0417
     51  CE2       61.1640   52.1050   28.8130 C.ar  178  TYR178      0.0417
     52  CZ        62.3260   52.8530   28.8190 C.ar  178  TYR178      0.1957
     53  OH        62.8790   53.2650   30.0110 O.3   178  TYR178     -0.2866
     54  N         60.4940   47.2200   33.7330 N.3   185  VAL185     -0.1231
     55  CA        60.5010   48.6370   34.0960 C.3   185  VAL185      0.1678
     56  C         59.1830   49.0060   34.7820 C.2   185  VAL185      0.2434
     57  O         58.1640   49.1950   34.1160 O.2   185  VAL185     -0.2733
     58  CB        60.7370   49.5440   32.8580 C.3   185  VAL185      0.0265
     59  CG1       60.6120   51.0300   33.2240 C.3   185  VAL185      0.0020
     60  CG2       62.1030   49.2680   32.2450 C.3   185  VAL185      0.0020
     61  N         59.2010   49.0860   36.1200 N.am  186  PRO186     -0.2718
     62  CA        58.0350   49.5020   36.9070 C.3   186  PRO186      0.1535
     63  C         57.5180   50.8470   36.4290 C.2   186  PRO186      0.2599
     64  O         58.2970   51.7920   36.2940 O.2   186  PRO186     -0.2715
     65  CB        58.5990   49.6360   38.3230 C.3   186  PRO186      0.0310
     66  CG        59.7660   48.6980   38.3450 C.3   186  PRO186      0.0237
     67  CD        60.3680   48.8020   36.9730 C.3   186  PRO186      0.0939
     68  N         56.2220   50.9270   36.1580 N.am  187  GLY187     -0.1941
     69  CA        55.6400   52.1550   35.6550 C.3   187  GLY187      0.2014
     70  C         55.3170   52.0760   34.1770 C.2   187  GLY187      0.2638
     71  O         54.5340   52.8720   33.6750 O.2   187  GLY187     -0.2714
     72  N         55.9120   51.1230   33.4650 N.am  188  TYR188     -0.1973
     73  CA        55.5420   50.9130   32.0650 C.3   188  TYR188      0.1639
     74  C         54.3500   49.9510   32.0050 C.2   188  TYR188      0.2290
     75  O         54.5000   48.7800   31.6400 O.2   188  TYR188     -0.2864
     76  CB        56.7230   50.3630   31.2670 C.3   188  TYR188      0.0560
     77  CG        56.6380   50.6130   29.7790 C.ar  188  TYR188     -0.0198
     78  CD1       56.4710   51.9040   29.2760 C.ar  188  TYR188     -0.0009
     79  CD2       56.7330   49.5670   28.8750 C.ar  188  TYR188     -0.0009
     80  CE1       56.4000   52.1390   27.9080 C.ar  188  TYR188      0.0417
     81  CE2       56.6880   49.7870   27.5110 C.ar  188  TYR188      0.0417
     82  CZ        56.5090   51.0800   27.0310 C.ar  188  TYR188      0.1957
     83  OH        56.4360   51.2940   25.6670 O.3   188  TYR188     -0.2866
     84  N         51.9310   47.7220   28.1320 N.3   192  MET192     -0.1245
     85  CA        52.8750   48.2970   27.1740 C.3   192  MET192      0.1570
     86  C         54.1420   47.4470   27.0470 C.2   192  MET192      0.2261
     87  O         54.7350   47.3920   25.9780 O.2   192  MET192     -0.2867
     88  CB        53.2360   49.7470   27.5020 C.3   192  MET192      0.0387
     89  CG        52.1950   50.7730   27.0280 C.3   192  MET192      0.0595
     90  SD        51.6700   50.5770   25.2950 S.3   192  MET192     -0.1393
     91  CE        53.1980   50.7010   24.3830 C.3   192  MET192      0.0692
     92  N         55.4450   46.0130   23.4050 N.3   196  LYS196     -0.1245
     93  CA        56.7790   46.2080   22.8260 C.3   196  LYS196      0.1561
     94  C         57.5160   44.8850   22.6130 C.2   196  LYS196      0.2260
     95  O         58.2800   44.7530   21.6650 O.2   196  LYS196     -0.2867
     96  CB        57.6330   47.1720   23.6590 C.3   196  LYS196      0.0271
     97  CG        57.0830   48.5990   23.6910 C.3   196  LYS196      0.0035
     98  CD        56.9150   49.1670   22.2860 C.3   196  LYS196      0.0206
     99  CE        56.6990   50.6870   22.3070 C.3   196  LYS196      0.1093
    100  NZ        56.3900   51.2190   20.9420 N.3   196  LYS196     -0.1314
    101  N         64.3910   58.1260   26.4200 N.3   225  PRO225     -0.2102
    102  CA        63.2170   58.9020   26.8360 C.3   225  PRO225      0.1504
    103  C         63.0960   60.2540   26.1350 C.2   225  PRO225      0.2575
    104  O         64.0750   60.9930   26.0020 O.2   225  PRO225     -0.2718
    105  CB        63.4400   59.0920   28.3400 C.3   225  PRO225      0.0282
    106  CG        64.9210   59.0220   28.5080 C.3   225  PRO225      0.0208
    107  CD        65.3780   57.9960   27.5060 C.3   225  PRO225      0.0893
    108  N         61.8860   60.5710   25.6850 N.am  226  LEU226     -0.1980
    109  CA        61.6210   61.8610   25.0470 C.3   226  LEU226      0.1596
    110  C         60.3350   62.4950   25.5670 C.2   226  LEU226      0.2287
    111  O         59.2860   61.8380   25.6620 O.2   226  LEU226     -0.2864
    112  CB        61.5570   61.7000   23.5240 C.3   226  LEU226      0.0297
    113  CG        61.4350   62.9660   22.6730 C.3   226  LEU226      0.0022
    114  CD1       62.7520   63.7600   22.6420 C.3   226  LEU226      0.0001
    115  CD2       60.9920   62.5950   21.2680 C.3   226  LEU226      0.0001
    116  N         53.0120   61.6810   24.1880 N.3   230  ALA230     -0.1231
    117  CA        52.9040   60.4140   24.9040 C.3   230  ALA230      0.1694
    118  C         53.8040   60.3890   26.1410 C.2   230  ALA230      0.2592
    119  O         53.3760   59.9750   27.2230 O.2   230  ALA230     -0.2718
    120  CB        53.2450   59.2390   23.9750 C.3   230  ALA230      0.0304
    121  N         55.0470   60.8360   25.9700 N.am  231  GLY231     -0.1957
    122  CA        55.9950   60.9250   27.0680 C.3   231  GLY231      0.1869
    123  C         55.4820   61.8000   28.1970 C.2   231  GLY231      0.2309
    124  O         55.3640   61.3520   29.3390 O.2   231  GLY231     -0.2863
    125  N         52.6210   62.6900   28.9450 N.3   233  ALA233     -0.1231
    126  CA        51.4020   62.1620   29.5480 C.3   233  ALA233      0.1694
    127  C         51.6150   61.0890   30.6320 C.2   233  ALA233      0.2591
    128  O         50.7260   60.8680   31.4620 O.2   233  ALA233     -0.2718
    129  CB        50.4540   61.6610   28.4690 C.3   233  ALA233      0.0304
    130  N         52.7760   60.4280   30.6300 N.am  234  ILE234     -0.1980
    131  CA        53.0740   59.4200   31.6550 C.3   234  ILE234      0.1595
    132  C         53.2910   60.0540   33.0360 C.2   234  ILE234      0.2287
    133  O         53.0970   59.4020   34.0660 O.2   234  ILE234     -0.2864
    134  CB        54.2810   58.5150   31.2800 C.3   234  ILE234      0.0276
    135  CG1       55.6080   59.2400   31.5200 C.3   234  ILE234      0.0022
    136  CG2       54.1520   58.0020   29.8430 C.3   234  ILE234      0.0022
    137  CD1       56.8460   58.4390   31.1250 C.3   234  ILE234      0.0001
    138  N         56.0760   61.6200   34.4580 N.3   236  PHE236     -0.1227
    139  CA        57.3910   61.6520   35.0930 C.3   236  PHE236      0.1736
    140  C         58.5120   61.5050   34.0760 C.2   236  PHE236      0.2595
    141  O         59.6310   61.1200   34.4250 O.2   236  PHE236     -0.2718
    142  CB        57.5030   60.5330   36.1300 C.3   236  PHE236      0.0547
    143  CG        57.0720   59.1880   35.6150 C.ar  236  PHE236     -0.0202
    144  CD1       57.9310   58.4090   34.8630 C.ar  236  PHE236     -0.0042
    145  CD2       55.7970   58.7090   35.8800 C.ar  236  PHE236     -0.0042
    146  CE1       57.5360   57.1780   34.3850 C.ar  236  PHE236     -0.0003
    147  CE2       55.3920   57.4750   35.4060 C.ar  236  PHE236     -0.0003
    148  CZ        56.2630   56.7100   34.6570 C.ar  236  PHE236     -0.0000
    149  N         58.2060   61.8000   32.8180 N.am  237  ILE237     -0.1980
    150  CA        59.1700   61.6500   31.7420 C.3   237  ILE237      0.1595
    151  C         60.4210   62.4760   32.0510 C.2   237  ILE237      0.2287
    152  O         61.5230   62.0960   31.6600 O.2   237  ILE237     -0.2864
    153  CB        58.5490   62.0390   30.3730 C.3   237  ILE237      0.0276
    154  CG1       59.4120   61.5500   29.2120 C.3   237  ILE237      0.0022
    155  CG2       58.2840   63.5450   30.2890 C.3   237  ILE237      0.0022
    156  CD1       59.5040   60.0250   29.1050 C.3   237  ILE237      0.0001
    157  N         62.7610   60.5560   34.1730 N.3   240  MET240     -0.1245
    158  CA        63.3870   59.5200   33.3630 C.3   240  MET240      0.1570
    159  C         64.4980   60.0940   32.4930 C.2   240  MET240      0.2261
    160  O         65.5210   59.4530   32.2990 O.2   240  MET240     -0.2867
    161  CB        62.3520   58.7980   32.4980 C.3   240  MET240      0.0387
    162  CG        62.8470   57.4820   31.9280 C.3   240  MET240      0.0595
    163  SD        63.1470   56.2480   33.2160 S.3   240  MET240     -0.1393
    164  CE        61.7350   56.5340   34.2710 C.3   240  MET240      0.0692
@<TRIPOS>BOND
     1     1     2    1
     2    35    36    1
     3    41    39    1
     4    39    36    1
     5    39    40    1
     6     2     5    1
     7     2     3    1
     8    36    37    1
     9   100    99    1
    10   115   113    1
    11     3     4    2
    12     3     6   am
    13    95    94    2
    14    38    37    2
    15    37    42   am
    16     6     7    1
    17    98    99    1
    18    98    97    1
    19    10     7    1
    20    10    11    1
    21    94    93    1
    22   114   113    1
    23   113   112    1
    24    93    92    1
    25    93    96    1
    26    42    43    1
    27     7     8    1
    28     9     8    2
    29   112   109    1
    30    11    13   am
    31    11    12    2
    32    96    97    1
    33   120   117    1
    34     8    14   am
    35   116   117    1
    36    43    44    1
    37    43    46    1
    38    91    90    1
    39   117   118    1
    40    45    44    2
    41   109   110    1
    42   109   108    1
    43    46    47    1
    44    14    15    1
    45    90    89    1
    46   110   111    2
    47    83    82    1
    48   108   103   am
    49   121   118   am
    50   121   122    1
    51    87    86    2
    52   104   103    2
    53   103   102    1
    54   118   119    2
    55    15    16    1
    56    15    18    1
    57    47    48   ar
    58    47    49   ar
    59   101   102    1
    60   101   107    1
    61    48    50   ar
    62    26    20    1
    63    26    25    1
    64   102   105    1
    65    16    20   am
    66    16    17    2
    67    89    88    1
    68    82    81   ar
    69    82    80   ar
    70    86    85    1
    71   122   123    1
    72    18    19    1
    73    85    88    1
    74    85    84    1
    75    20    21    1
    76    25    24    1
    77   107   106    1
    78    81    79   ar
    79    49    51   ar
    80    24    21    1
    81    50    52   ar
    82    80    78   ar
    83    21    22    1
    84   123   124    2
    85   105   106    1
    86   129   126    1
    87    51    52   ar
    88    52    53    1
    89    79    77   ar
    90   125   126    1
    91    34    32    1
    92   156   154    1
    93   154   153    1
    94    78    77   ar
    95    22    23    2
    96   126   127    1
    97    77    76    1
    98   136   134    1
    99    32    31    1
   100    31    33    1
   101    31    28    1
   102   155   153    1
   103   153   150    1
   104   130   127   am
   105   130   131    1
   106   127   128    2
   107    27    28    1
   108   137   135    1
   109    28    29    1
   110    76    73    1
   111   134   135    1
   112   134   131    1
   113    75    74    2
   114   131   132    1
   115   152   151    2
   116   150   151    1
   117   150   149    1
   118   162   161    1
   119   162   163    1
   120    74    73    1
   121    73    72    1
   122    60    58    1
   123   160   159    2
   124   159   158    1
   125   161   158    1
   126    29    30    2
   127   149   140   am
   128    58    59    1
   129    58    55    1
   130   132   133    2
   131   163   164    1
   132   158   157    1
   133    72    70   am
   134    71    70    2
   135    54    55    1
   136   140   141    2
   137   140   139    1
   138    55    56    1
   139    57    56    2
   140    70    69    1
   141   146   148   ar
   142   146   144   ar
   143   138   139    1
   144   148   147   ar
   145    56    61   am
   146   144   143   ar
   147   139   142    1
   148   147   145   ar
   149   143   145   ar
   150   143   142    1
   151    69    68    1
   152    61    62    1
   153    61    67    1
   154    68    63   am
   155    64    63    2
   156    63    62    1
   157    62    65    1
   158    67    66    1
   159    65    66    1
