@<TRIPOS>MOLECULE
tmp/4q9oA00.pdb
 182 173 0 0 0
SMALL
GASTEIGER

@<TRIPOS>ATOM
      1  N         29.9250  -15.6070    4.5840 N.3    43  MET43      -0.1245
      2  CA        29.3160  -16.8870    4.9910 C.3    43  MET43       0.1570
      3  C         30.4250  -17.8990    5.2810 C.2    43  MET43       0.2261
      4  O         30.3670  -18.6170    6.2800 O.2    43  MET43      -0.2867
      5  CB        28.3540  -17.4290    3.9130 C.3    43  MET43       0.0387
      6  CG        27.1120  -16.5840    3.7200 C.3    43  MET43       0.0595
      7  SD        25.9940  -17.3060    2.4980 S.3    43  MET43      -0.1393
      8  CE        24.9520  -18.3040    3.5740 C.3    43  MET43       0.0692
      9  N         32.1040  -16.8880    8.6190 N.3    46  LEU46      -0.1231
     10  CA        31.2430  -17.2740    9.7370 C.3    46  LEU46       0.1693
     11  C         31.3010  -18.7790    9.9650 C.2    46  LEU46       0.2591
     12  O         31.4060  -19.1960   11.1180 O.2    46  LEU46      -0.2718
     13  CB        29.7850  -16.7720    9.5480 C.3    46  LEU46       0.0284
     14  CG        28.7890  -17.0120   10.7080 C.3    46  LEU46       0.0019
     15  CD1       29.2930  -16.4520   12.0290 C.3    46  LEU46       0.0001
     16  CD2       27.4520  -16.4290   10.3990 C.3    46  LEU46       0.0001
     17  N         31.2960  -19.5880    8.8740 N.am   47  GLN47      -0.1979
     18  CA        31.3990  -21.0480    8.9860 C.3    47  GLN47       0.1601
     19  C         32.6770  -21.4490    9.7340 C.2    47  GLN47       0.2287
     20  O         32.6000  -22.2380   10.6800 O.2    47  GLN47      -0.2864
     21  CB        31.3280  -21.7240    7.6010 C.3    47  GLN47       0.0394
     22  CG        31.1790  -23.2580    7.6590 C.3    47  GLN47       0.0908
     23  CD        29.7780  -23.7900    7.9430 C.2    47  GLN47       0.2608
     24  OE1       29.5240  -24.9950    7.8290 O.2    47  GLN47      -0.2717
     25  NE2       28.8160  -22.9300    8.2570 N.am   47  GLN47      -0.0878
     26  N         23.7670   -9.8140   11.6240 N.3    65  ALA65      -0.1231
     27  CA        23.5770  -10.2140   10.2450 C.3    65  ALA65       0.1694
     28  C         22.8210   -9.1870    9.3940 C.2    65  ALA65       0.2592
     29  O         23.2060   -8.9430    8.2480 O.2    65  ALA65      -0.2718
     30  CB        22.9140  -11.5800   10.1940 C.3    65  ALA65       0.0304
     31  N         21.7580   -8.5830    9.9370 N.am   66  PHE66      -0.1976
     32  CA        20.9980   -7.5890    9.1870 C.3    66  PHE66       0.1639
     33  C         20.3260   -6.6210   10.1450 C.2    66  PHE66       0.2290
     34  O         19.4970   -7.0270   10.9620 O.2    66  PHE66      -0.2864
     35  CB        19.9700   -8.2520    8.2250 C.3    66  PHE66       0.0560
     36  CG        19.4860   -7.3610    7.1010 C.ar   66  PHE66      -0.0200
     37  CD1       20.1570   -7.3230    5.8810 C.ar   66  PHE66      -0.0042
     38  CD2       18.3380   -6.5870    7.2480 C.ar   66  PHE66      -0.0042
     39  CE1       19.6940   -6.5150    4.8330 C.ar   66  PHE66      -0.0003
     40  CE2       17.8880   -5.7610    6.2080 C.ar   66  PHE66      -0.0003
     41  CZ        18.5550   -5.7460    5.0020 C.ar   66  PHE66      -0.0000
     42  N         21.2000  -10.4910   -0.4730 N.3    81  ILE81      -0.1231
     43  CA        21.5080  -10.7950    0.9310 C.3    81  ILE81       0.1692
     44  C         20.4510  -11.7300    1.5270 C.2    81  ILE81       0.2591
     45  O         20.8070  -12.7620    2.0770 O.2    81  ILE81      -0.2718
     46  CB        21.7400   -9.4890    1.7530 C.3    81  ILE81       0.0266
     47  CG1       23.0820   -8.8320    1.3450 C.3    81  ILE81       0.0019
     48  CG2       21.6740   -9.7390    3.2700 C.3    81  ILE81       0.0020
     49  CD1       23.3020   -7.3760    1.8600 C.3    81  ILE81       0.0001
     50  N         19.1640  -11.3940    1.3450 N.am   82  MET82      -0.1979
     51  CA        18.0210  -12.1780    1.8180 C.3    82  MET82       0.1605
     52  C         17.9810  -13.5910    1.2360 C.2    82  MET82       0.2287
     53  O         17.5170  -14.5140    1.9040 O.2    82  MET82      -0.2864
     54  CB        16.6980  -11.4280    1.5540 C.3    82  MET82       0.0413
     55  CG        16.5160  -10.1870    2.4310 C.3    82  MET82       0.0598
     56  SD        16.4560  -10.5740    4.1900 S.3    82  MET82      -0.1393
     57  CE        16.8190   -9.0100    4.8910 C.3    82  MET82       0.0692
     58  N         20.7290  -15.4380    0.3490 N.3    84  LEU84      -0.1231
     59  CA        21.8870  -16.2280    0.7940 C.3    84  LEU84       0.1678
     60  C         21.5060  -17.4650    1.6660 C.2    84  LEU84       0.2434
     61  O         21.8620  -18.5800    1.2570 O.2    84  LEU84      -0.2733
     62  CB        22.9530  -15.3490    1.4770 C.3    84  LEU84       0.0284
     63  CG        23.6850  -14.3700    0.5600 C.3    84  LEU84       0.0019
     64  CD1       24.5530  -13.4250    1.3680 C.3    84  LEU84       0.0001
     65  CD2       24.5070  -15.1120   -0.5170 C.3    84  LEU84       0.0001
     66  N         20.7220  -17.3460    2.7790 N.am   85  PRO85      -0.2729
     67  CA        20.3530  -18.5620    3.5330 C.3    85  PRO85       0.1401
     68  C         19.3630  -19.4850    2.7900 C.2    85  PRO85       0.2269
     69  O         19.2120  -20.6510    3.1690 O.2    85  PRO85      -0.2865
     70  CB        19.7550  -18.0000    4.8200 C.3    85  PRO85       0.0296
     71  CG        19.2050  -16.6670    4.4250 C.3    85  PRO85       0.0237
     72  CD        20.1730  -16.1300    3.4280 C.3    85  PRO85       0.0939
     73  N         21.9850  -21.0550   -0.3290 N.3    88  PHE88      -0.1227
     74  CA        23.1820  -21.7490    0.1590 C.3    88  PHE88       0.1736
     75  C         22.9950  -22.5150    1.4790 C.2    88  PHE88       0.2595
     76  O         23.9840  -22.8330    2.1480 O.2    88  PHE88      -0.2718
     77  CB        24.3660  -20.7660    0.2230 C.3    88  PHE88       0.0547
     78  CG        24.5780  -20.1320   -1.1360 C.ar   88  PHE88      -0.0202
     79  CD1       24.9410  -20.9100   -2.2380 C.ar   88  PHE88      -0.0042
     80  CD2       24.3130  -18.7810   -1.3410 C.ar   88  PHE88      -0.0042
     81  CE1       25.0570  -20.3460   -3.5070 C.ar   88  PHE88      -0.0003
     82  CE2       24.4530  -18.2110   -2.6090 C.ar   88  PHE88      -0.0003
     83  CZ        24.8220  -18.9980   -3.6840 C.ar   88  PHE88      -0.0000
     84  N         21.7370  -22.8960    1.7850 N.am   89  TYR89      -0.1976
     85  CA        21.3530  -23.6540    2.9760 C.3    89  TYR89       0.1639
     86  C         22.1620  -24.9550    3.1020 C.2    89  TYR89       0.2290
     87  O         22.7410  -25.2080    4.1580 O.2    89  TYR89      -0.2864
     88  CB        19.8360  -23.9530    2.9480 C.3    89  TYR89       0.0560
     89  CG        19.3170  -24.6920    4.1630 C.ar   89  TYR89      -0.0198
     90  CD1       19.4120  -26.0800    4.2560 C.ar   89  TYR89      -0.0009
     91  CD2       18.6930  -24.0120    5.2020 C.ar   89  TYR89      -0.0009
     92  CE1       18.9420  -26.7640    5.3720 C.ar   89  TYR89       0.0417
     93  CE2       18.1960  -24.6880    6.3120 C.ar   89  TYR89       0.0417
     94  CZ        18.3240  -26.0650    6.3940 C.ar   89  TYR89       0.1957
     95  OH        17.8450  -26.7430    7.4890 O.3    89  TYR89      -0.2866
     96  N         26.0680  -24.8950    4.1910 N.3    92  TYR92      -0.1227
     97  CA        26.5080  -24.5860    5.5440 C.3    92  TYR92       0.1736
     98  C         25.7750  -25.3120    6.6720 C.2    92  TYR92       0.2595
     99  O         26.4390  -25.8130    7.5770 O.2    92  TYR92      -0.2718
    100  CB        26.4530  -23.0590    5.7820 C.3    92  TYR92       0.0548
    101  CG        27.2870  -22.2730    4.7960 C.ar   92  TYR92      -0.0200
    102  CD1       28.6760  -22.2210    4.9110 C.ar   92  TYR92      -0.0009
    103  CD2       26.6970  -21.6300    3.7130 C.ar   92  TYR92      -0.0009
    104  CE1       29.4550  -21.5420    3.9740 C.ar   92  TYR92       0.0417
    105  CE2       27.4650  -20.9420    2.7730 C.ar   92  TYR92       0.0417
    106  CZ        28.8440  -20.8980    2.9080 C.ar   92  TYR92       0.1957
    107  OH        29.5970  -20.2070    1.9840 O.3    92  TYR92      -0.2866
    108  N         24.4260  -25.3140    6.6540 N.am   93  VAL93      -0.1980
    109  CA        23.5640  -25.8580    7.7180 C.3    93  VAL93       0.1595
    110  C         23.8390  -27.3610    8.0150 C.2    93  VAL93       0.2287
    111  O         24.0990  -27.6390    9.1870 O.2    93  VAL93      -0.2864
    112  CB        22.0520  -25.5610    7.5030 C.3    93  VAL93       0.0276
    113  CG1       21.2170  -26.0530    8.6760 C.3    93  VAL93       0.0022
    114  CG2       21.8240  -24.0710    7.3090 C.3    93  VAL93       0.0022
    115  N         27.0570  -27.5080   10.0180 N.3    96  LEU96      -0.1245
    116  CA        26.9400  -26.9340   11.3620 C.3    96  LEU96       0.1561
    117  C         26.2090  -27.8990   12.2900 C.2    96  LEU96       0.2260
    118  O         26.6360  -28.0860   13.4310 O.2    96  LEU96      -0.2867
    119  CB        26.2380  -25.5720   11.3420 C.3    96  LEU96       0.0270
    120  CG        27.0190  -24.3770   10.8160 C.3    96  LEU96       0.0019
    121  CD1       26.2380  -23.1230   11.0350 C.3    96  LEU96       0.0001
    122  CD2       28.3960  -24.2540   11.4780 C.3    96  LEU96       0.0001
    123  N         21.3430  -23.4620   15.8040 N.3   103  ILE103     -0.1245
    124  CA        21.0540  -22.2150   15.0850 C.3   103  ILE103      0.1561
    125  C         19.7760  -21.5500   15.6280 C.2   103  ILE103      0.2260
    126  O         18.7500  -22.1970   15.7780 O.2   103  ILE103     -0.2867
    127  CB        21.0310  -22.4190   13.5370 C.3   103  ILE103      0.0252
    128  CG1       22.4070  -22.8650   13.0050 C.3   103  ILE103      0.0019
    129  CG2       20.5210  -21.1700   12.7780 C.3   103  ILE103      0.0019
    130  CD1       22.3460  -23.6120   11.6510 C.3   103  ILE103      0.0001
    131  N         13.2150  -16.4960    3.1290 N.3   116  THR116     -0.1218
    132  CA        14.3080  -16.2570    4.0790 C.3   116  THR116      0.1862
    133  C         13.9340  -16.8220    5.4340 C.2   116  THR116      0.2287
    134  O         14.6880  -17.6210    5.9830 O.2   116  THR116     -0.2866
    135  CB        14.6590  -14.7620    4.1220 C.3   116  THR116      0.1770
    136  OG1       14.9820  -14.3480    2.8010 O.3   116  THR116     -0.2211
    137  CG2       15.8180  -14.4440    5.0830 C.3   116  THR116      0.0375
    138  N         13.8330  -20.6020    5.4300 N.3   119  ALA119     -0.1231
    139  CA        15.1840  -21.1670    5.4490 C.3   119  ALA119      0.1694
    140  C         15.7810  -21.1260    6.8560 C.2   119  ALA119      0.2591
    141  O         16.3600  -22.1230    7.2870 O.2   119  ALA119     -0.2718
    142  CB        16.0790  -20.4320    4.4710 C.3   119  ALA119      0.0304
    143  N         15.5910  -20.0040    7.5900 N.am  120  LEU120     -0.1980
    144  CA        16.0880  -19.8570    8.9600 C.3   120  LEU120      0.1596
    145  C         15.3340  -20.7770    9.9230 C.2   120  LEU120      0.2287
    146  O         15.9750  -21.3910   10.7770 O.2   120  LEU120     -0.2864
    147  CB        16.0200  -18.3870    9.4370 C.3   120  LEU120      0.0297
    148  CG        17.2580  -17.4580    9.2750 C.3   120  LEU120      0.0022
    149  CD1       18.3080  -17.6620   10.3870 C.3   120  LEU120      0.0001
    150  CD2       17.8280  -17.4610    7.8760 C.3   120  LEU120      0.0001
    151  N         16.4630  -24.3680    9.5570 N.3   123  ALA123     -0.1245
    152  CA        17.7630  -24.5040   10.2270 C.3   123  ALA123      0.1562
    153  C         17.6190  -24.5650   11.7550 C.2   123  ALA123      0.2260
    154  O         18.3560  -25.3180   12.3930 O.2   123  ALA123     -0.2867
    155  CB        18.6820  -23.3560    9.8360 C.3   123  ALA123      0.0290
    156  N         24.6330  -20.4690   17.5470 N.3   135  LEU135     -0.1245
    157  CA        24.9200  -19.4360   16.5610 C.3   135  LEU135      0.1561
    158  C         23.6110  -18.6920   16.4150 C.2   135  LEU135      0.2260
    159  O         22.6120  -19.2250   15.9130 O.2   135  LEU135     -0.2867
    160  CB        25.4240  -20.0210   15.2350 C.3   135  LEU135      0.0270
    161  CG        25.5630  -19.0450   14.0460 C.3   135  LEU135      0.0019
    162  CD1       26.4970  -17.8450   14.3660 C.3   135  LEU135      0.0001
    163  CD2       25.9940  -19.7890   12.7970 C.3   135  LEU135      0.0001
    164  N         21.6310  -15.4930   15.0290 N.3   137  PHE137     -0.1241
    165  CA        21.5530  -14.4440   13.9860 C.3   137  PHE137      0.1605
    166  C         20.6420  -13.2830   14.3840 C.2   137  PHE137      0.2264
    167  O         19.4420  -13.4870   14.5570 O.2   137  PHE137     -0.2867
    168  CB        21.0590  -15.0320   12.6340 C.3   137  PHE137      0.0534
    169  CG        22.0130  -15.9840   11.9670 C.ar  137  PHE137     -0.0203
    170  CD1       22.0040  -17.3430   12.2830 C.ar  137  PHE137     -0.0042
    171  CD2       22.9070  -15.5350   11.0030 C.ar  137  PHE137     -0.0042
    172  CE1       22.8970  -18.2270   11.6720 C.ar  137  PHE137     -0.0003
    173  CE2       23.8020  -16.4230   10.3910 C.ar  137  PHE137     -0.0003
    174  CZ        23.7910  -17.7620   10.7330 C.ar  137  PHE137     -0.0000
    175  N         18.6950  -10.5450   13.0120 N.3   139  LEU139     -0.1245
    176  CA        18.0950  -10.2740   11.7030 C.3   139  LEU139      0.1561
    177  C         16.9510   -9.3250   11.8250 C.2   139  LEU139      0.2260
    178  O         16.0380   -9.5650   12.6160 O.2   139  LEU139     -0.2867
    179  CB        17.6040  -11.5950   11.0910 C.3   139  LEU139      0.0270
    180  CG        18.6710  -12.5740   10.6710 C.3   139  LEU139      0.0019
    181  CD1       18.0600  -13.9180   10.3910 C.3   139  LEU139      0.0001
    182  CD2       19.4090  -12.0640    9.4490 C.3   139  LEU139      0.0001
@<TRIPOS>BOND
     1    83    81   ar
     2    83    82   ar
     3    81    79   ar
     4    82    80   ar
     5    79    78   ar
     6    80    78   ar
     7    78    77    1
     8    65    63    1
     9    42    43    1
    10    73    74    1
    11    74    77    1
    12    74    75    1
    13    58    59    1
    14    63    64    1
    15    63    62    1
    16    59    62    1
    17    59    60    1
    18    43    44    1
    19    43    46    1
    20    52    51    1
    21    52    53    2
    22    61    60    2
    23    50    44   am
    24    50    51    1
    25    47    46    1
    26    47    49    1
    27    75    84   am
    28    75    76    2
    29    44    45    2
    30    54    51    1
    31    54    55    1
    32    60    66   am
    33    46    48    1
    34    84    85    1
    35   107   106    1
    36    55    56    1
    37     7     8    1
    38     7     6    1
    39   105   106   ar
    40   105   103   ar
    41    66    72    1
    42    66    67    1
    43    68    69    2
    44    68    67    1
    45   136   135    1
    46   106   104   ar
    47    88    85    1
    48    88    89    1
    49    85    86    1
    50    86    87    2
    51   131   132    1
    52    72    71    1
    53    67    70    1
    54   103   101   ar
    55     6     5    1
    56     5     2    1
    57   104   102   ar
    58   132   135    1
    59   132   133    1
    60   135   137    1
    61    89    90   ar
    62    89    91   ar
    63    56    57    1
    64    96    97    1
    65    90    92   ar
    66    71    70    1
    67   142   139    1
    68     1     2    1
    69   101   102   ar
    70   101   100    1
    71    39    41   ar
    72    39    37   ar
    73     2     3    1
    74    41    40   ar
    75    91    93   ar
    76     3     4    2
    77    92    94   ar
    78   138   139    1
    79   133   134    2
    80   139   140    1
    81    97   100    1
    82    97    98    1
    83    37    36   ar
    84    40    38   ar
    85    93    94   ar
    86    94    95    1
    87   108    98   am
    88   108   109    1
    89    98    99    2
    90   140   141    2
    91   140   143   am
    92    36    38   ar
    93    36    35    1
    94   114   112    1
    95   112   109    1
    96   112   113    1
    97   143   144    1
    98    21    22    1
    99    21    18    1
   100    22    23    1
   101   109   110    1
   102    24    23    2
   103   150   148    1
   104    23    25   am
   105   110   111    2
   106    35    32    1
   107    29    28    2
   108     9    10    1
   109    17    18    1
   110    17    11   am
   111   144   147    1
   112   144   145    1
   113    18    19    1
   114    32    31    1
   115    32    33    1
   116   148   147    1
   117   148   149    1
   118    28    31   am
   119    28    27    1
   120   182   180    1
   121    13    10    1
   122    13    14    1
   123   151   152    1
   124    19    20    2
   125    10    11    1
   126   155   152    1
   127   145   146    2
   128    11    12    2
   129   115   116    1
   130    33    34    2
   131    30    27    1
   132   152   153    1
   133    27    26    1
   134   173   174   ar
   135   173   171   ar
   136   181   180    1
   137    16    14    1
   138   180   179    1
   139    14    15    1
   140   174   172   ar
   141   120   121    1
   142   120   119    1
   143   120   122    1
   144   171   169   ar
   145   179   176    1
   146   119   116    1
   147   116   117    1
   148   130   128    1
   149   172   170   ar
   150   176   177    1
   151   176   175    1
   152   153   154    2
   153   177   178    2
   154   169   170   ar
   155   169   168    1
   156   117   118    2
   157   168   165    1
   158   129   127    1
   159   163   161    1
   160   128   127    1
   161   127   124    1
   162   165   166    1
   163   165   164    1
   164   161   162    1
   165   161   160    1
   166   166   167    2
   167   124   125    1
   168   124   123    1
   169   160   157    1
   170   125   126    2
   171   159   158    2
   172   158   157    1
   173   157   156    1
