@<TRIPOS>MOLECULE
tmp/4q9sA00.pdb
 109 100 0 0 0
SMALL
GASTEIGER

@<TRIPOS>ATOM
      1  N          7.0140    2.4340   33.0550 N.3    15  ILE15      -0.1231
      2  CA         6.8310    1.2790   32.1670 C.3    15  ILE15       0.1692
      3  C          8.0010    1.0190   31.2590 C.2    15  ILE15       0.2593
      4  O          8.0230    0.0050   30.5680 O.2    15  ILE15      -0.2718
      5  CB         5.4810    1.2800   31.3940 C.3    15  ILE15       0.0266
      6  CG1        5.3570    2.5180   30.4620 C.3    15  ILE15       0.0019
      7  CG2        4.2950    1.0780   32.3450 C.3    15  ILE15       0.0020
      8  CD1        4.0060    2.7280   29.8180 C.3    15  ILE15       0.0001
      9  N          8.9400    1.9370   31.2360 N.am   16  GLY16      -0.1942
     10  CA        10.1070    1.8150   30.3770 C.3    16  GLY16       0.2014
     11  C         10.9850    3.0410   30.3740 C.2    16  GLY16       0.2638
     12  O         10.7720    3.9720   31.1480 O.2    16  GLY16      -0.2714
     13  N         11.9800    3.0290   29.5040 N.am   17  GLU17      -0.1977
     14  CA        12.9620    4.0920   29.3790 C.3    17  GLU17       0.1602
     15  C         13.0130    4.6340   27.9580 C.2    17  GLU17       0.2287
     16  O         12.7870    3.9040   26.9940 O.2    17  GLU17      -0.2864
     17  CB        14.3460    3.5600   29.7710 C.3    17  GLU17       0.0415
     18  CG        15.0040    4.3220   30.9100 C.3    17  GLU17       0.1163
     19  CD        16.1410    3.5700   31.5780 C.2    17  GLU17       0.3649
     20  OE1       15.8880    2.4710   32.1250 O.co2  17  GLU17      -0.2457
     21  OE2       17.2810    4.0910   31.5790 O.co2  17  GLU17      -0.2457
     22  N          9.5020    6.5520   31.0250 N.3    23  VAL23      -0.1245
     23  CA         8.1950    6.5390   30.3940 C.3    23  VAL23       0.1561
     24  C          7.2780    5.9240   31.4580 C.2    23  VAL23       0.2260
     25  O          7.6130    4.8930   32.0610 O.2    23  VAL23      -0.2867
     26  CB         8.1360    5.7540   29.0490 C.3    23  VAL23       0.0252
     27  CG1        6.7460    5.8480   28.4190 C.3    23  VAL23       0.0019
     28  CG2        9.1960    6.2480   28.0640 C.3    23  VAL23       0.0019
     29  N          0.5060    6.9510   27.7740 N.3    37  ALA37      -0.1245
     30  CA         1.9210    6.8100   28.0970 C.3    37  ALA37       0.1562
     31  C          2.3880    8.2490   28.3010 C.2    37  ALA37       0.2260
     32  O          1.9310    9.1540   27.5850 O.2    37  ALA37      -0.2867
     33  CB         2.6910    6.1740   26.9480 C.3    37  ALA37       0.0290
     34  N          5.8340   10.4460   28.6260 N.3    39  LYS39      -0.1245
     35  CA         7.2850   10.5000   28.4760 C.3    39  LYS39       0.1561
     36  C          7.8060   11.6850   29.2870 C.2    39  LYS39       0.2260
     37  O          7.3340   12.8080   29.1090 O.2    39  LYS39      -0.2867
     38  CB         7.6800   10.6350   27.0040 C.3    39  LYS39       0.0271
     39  CG         7.2760    9.4190   26.1510 C.3    39  LYS39       0.0035
     40  CD         7.7470    9.5480   24.7010 C.3    39  LYS39       0.0206
     41  CE         9.2170    9.2480   24.5040 C.3    39  LYS39       0.1093
     42  NZ         9.6390    9.4720   23.0980 N.3    39  LYS39      -0.1314
     43  N          2.1530    5.0370   16.6370 N.3    69  VAL69      -0.1245
     44  CA         1.7220    5.6370   17.9010 C.3    69  VAL69       0.1561
     45  C          1.3690    7.1310   17.7260 C.2    69  VAL69       0.2260
     46  O          2.0830    7.8980   17.0600 O.2    69  VAL69      -0.2867
     47  CB         2.7160    5.3500   19.0690 C.3    69  VAL69       0.0252
     48  CG1        4.0350    6.0910   18.8860 C.3    69  VAL69       0.0019
     49  CG2        2.0970    5.6780   20.4250 C.3    69  VAL69       0.0019
     50  N          1.3640   10.4490   25.0680 N.3    84  MET84      -0.1230
     51  CA         1.2430    9.6030   23.8840 C.3    84  MET84       0.1702
     52  C          0.1870    8.5670   24.1190 C.2    84  MET84       0.2592
     53  O         -0.1050    8.1980   25.2760 O.2    84  MET84      -0.2718
     54  CB         2.5660    8.8300   23.6140 C.3    84  MET84       0.0401
     55  CG         3.8100    9.6860   23.2940 C.3    84  MET84       0.0596
     56  SD         3.6660   10.7430   21.8060 S.3    84  MET84      -0.1393
     57  CE         3.6840    9.4970   20.4770 C.3    84  MET84       0.0692
     58  N         -0.3080    8.0010   23.0020 N.am   85  GLU85      -0.1966
     59  CA        -1.2160    6.8670   23.0110 C.3    85  GLU85       0.1733
     60  C         -0.4650    5.7210   23.7200 C.2    85  GLU85       0.2616
     61  O          0.7390    5.5250   23.4890 O.2    85  GLU85      -0.2715
     62  CB        -1.5400    6.4910   21.5490 C.3    85  GLU85       0.0429
     63  CG        -2.3560    5.2260   21.3420 C.3    85  GLU85       0.1163
     64  CD        -2.3350    4.6870   19.9190 C.2    85  GLU85       0.3649
     65  OE1       -2.8790    3.5810   19.7040 O.co2  85  GLU85      -0.2457
     66  OE2       -1.7980    5.3700   19.0160 O.co2  85  GLU85      -0.2457
     67  N         -1.1400    5.0190   24.6310 N.am   86  LEU86      -0.1963
     68  CA        -0.4940    3.9110   25.3360 C.3    86  LEU86       0.1728
     69  C         -0.5620    2.6330   24.5060 C.2    86  LEU86       0.2616
     70  O         -1.6290    2.2560   24.0220 O.2    86  LEU86      -0.2715
     71  CB        -1.1410    3.6640   26.7200 C.3    86  LEU86       0.0311
     72  CG        -0.5910    2.5030   27.5920 C.3    86  LEU86       0.0022
     73  CD1        0.8570    2.7070   27.9720 C.3    86  LEU86       0.0001
     74  CD2       -1.4240    2.3260   28.8560 C.3    86  LEU86       0.0001
     75  N          0.5800    1.9780   24.3430 N.am   87  CYS87      -0.1968
     76  CA         0.6330    0.6620   23.7170 C.3    87  CYS87       0.1712
     77  C          0.8600   -0.2330   24.9270 C.2    87  CYS87       0.2296
     78  O          1.9900   -0.3810   25.4000 O.2    87  CYS87      -0.2864
     79  CB         1.7610    0.5920   22.6940 C.3    87  CYS87       0.0983
     80  SG         1.4240    1.5670   21.2100 S.3    87  CYS87      -0.0798
     81  N          3.5780   -3.0290   25.7570 N.3    90  GLY90      -0.1210
     82  CA         4.9580   -2.5690   25.7810 C.3    90  GLY90       0.1956
     83  C          5.7790   -2.8450   24.5460 C.2    90  GLY90       0.2611
     84  O          5.2400   -2.9320   23.4420 O.2    90  GLY90      -0.2717
     85  N          7.0960   -3.0060   24.7480 N.am   91  GLU91      -0.1979
     86  CA         8.0960   -3.2080   23.7110 C.3    91  GLU91       0.1602
     87  C          7.9250   -4.5550   23.0190 C.2    91  GLU91       0.2287
     88  O          7.6760   -5.5580   23.6910 O.2    91  GLU91      -0.2864
     89  CB         9.5070   -3.0870   24.3020 C.3    91  GLU91       0.0415
     90  CG         9.8080   -1.7180   24.8990 C.3    91  GLU91       0.1163
     91  CD        11.2440   -1.4830   25.3390 C.2    91  GLU91       0.3649
     92  OE1       11.6240   -0.2980   25.4860 O.co2  91  GLU91      -0.2457
     93  OE2       11.9890   -2.4710   25.5350 O.co2  91  GLU91      -0.2457
     94  N          6.2060   -1.1450   19.3320 N.3   138  LEU138     -0.1245
     95  CA         5.4060   -1.3110   20.5480 C.3   138  LEU138      0.1561
     96  C          4.1870   -2.1870   20.2730 C.2   138  LEU138      0.2260
     97  O          3.7560   -2.2710   19.1390 O.2   138  LEU138     -0.2867
     98  CB         4.9560    0.0720   21.0420 C.3   138  LEU138      0.0270
     99  CG         6.0570    1.0880   21.3770 C.3   138  LEU138      0.0019
    100  CD1        5.4670    2.4780   21.5290 C.3   138  LEU138      0.0001
    101  CD2        6.8480    0.6840   22.6080 C.3   138  LEU138      0.0001
    102  N          8.3590    5.8820   19.0480 N.3   149  ASP149     -0.1239
    103  CA         9.3020    7.0140   19.2260 C.3   149  ASP149      0.1674
    104  C          8.5940    8.3560   19.4560 C.2   149  ASP149      0.2266
    105  O          8.5740    8.8610   20.5810 O.2   149  ASP149     -0.2867
    106  CB        10.4620    7.0810   18.1940 C.3   149  ASP149      0.1410
    107  CG        10.4520    8.2740   17.2500 C.2   149  ASP149      0.3668
    108  OD1       10.9150    9.3690   17.6610 O.co2 149  ASP149     -0.2456
    109  OD2       10.0600    8.0980   16.0770 O.co2 149  ASP149     -0.2456
@<TRIPOS>BOND
     1   109   107   ar
     2    43    44    1
     3    46    45    2
     4   107   108   ar
     5   107   106    1
     6    45    44    1
     7    44    47    1
     8   106   103    1
     9    48    47    1
    10    66    64   ar
    11   102   103    1
    12    47    49    1
    13    97    96    2
    14   103   104    1
    15    94    95    1
    16   104   105    2
    17    65    64   ar
    18    64    63    1
    19    96    95    1
    20    57    56    1
    21    95    98    1
    22    98    99    1
    23    80    79    1
    24    63    62    1
    25    99   100    1
    26    99   101    1
    27    62    59    1
    28    56    55    1
    29    79    76    1
    30    58    59    1
    31    58    52   am
    32    59    60    1
    33    87    88    2
    34    87    86    1
    35    42    41    1
    36    55    54    1
    37    84    83    2
    38    61    60    2
    39    54    51    1
    40    86    89    1
    41    86    85    1
    42    76    75    1
    43    76    77    1
    44    60    67   am
    45    51    52    1
    46    51    50    1
    47    70    69    2
    48    52    53    2
    49    89    90    1
    50    75    69   am
    51    41    40    1
    52    69    68    1
    53    83    85   am
    54    83    82    1
    55    67    68    1
    56    40    39    1
    57    90    91    1
    58    77    78    2
    59    68    71    1
    60    91    92   ar
    61    91    93   ar
    62    81    82    1
    63    39    38    1
    64    71    72    1
    65    33    30    1
    66    16    15    2
    67    38    35    1
    68    32    31    2
    69    72    73    1
    70    72    74    1
    71    29    30    1
    72    15    14    1
    73    28    26    1
    74    30    31    1
    75    27    26    1
    76    35    34    1
    77    35    36    1
    78    26    23    1
    79    37    36    2
    80    14    13    1
    81    14    17    1
    82    13    11   am
    83    17    18    1
    84     8     6    1
    85    11    10    1
    86    11    12    2
    87    10     9    1
    88    23    22    1
    89    23    24    1
    90     6     5    1
    91     4     3    2
    92    18    19    1
    93     9     3   am
    94     3     2    1
    95     5     2    1
    96     5     7    1
    97    24    25    2
    98    19    21   ar
    99    19    20   ar
   100     2     1    1
