@<TRIPOS>MOLECULE
tmp/4q9yA00.pdb
 108 104 0 0 0
SMALL
GASTEIGER

@<TRIPOS>ATOM
      1  N          8.4000    6.1330   11.1970 N.3    89  GLN89      -0.1245
      2  CA         8.7440    5.0020   10.3470 C.3    89  GLN89       0.1566
      3  C          8.4670    3.7350   11.0930 C.2    89  GLN89       0.2260
      4  O          8.3650    3.7610   12.3550 O.2    89  GLN89      -0.2867
      5  CB        10.2110    5.0770    9.8720 C.3    89  GLN89       0.0367
      6  CG        11.1940    5.1130   11.0600 C.3    89  GLN89       0.0905
      7  CD        11.9990    3.8350   11.1830 C.2    89  GLN89       0.2608
      8  OE1       11.4570    2.7300   11.2530 O.2    89  GLN89      -0.2717
      9  NE2       13.3030    3.9900   11.2130 N.am   89  GLN89      -0.0878
     10  N          9.9790   -0.5390   10.9260 N.3    91  HIS91      -0.1241
     11  CA        10.8980   -1.5190   10.3370 C.3    91  HIS91       0.1621
     12  C         10.7780   -2.7790   11.1460 C.2    91  HIS91       0.2264
     13  O         10.1330   -2.8120   12.1970 O.2    91  HIS91      -0.2867
     14  CB        12.3680   -0.9940   10.2890 C.3    91  HIS91       0.0745
     15  CG        12.9030   -0.7050   11.6470 C.ar   91  HIS91       0.0817
     16  ND1       12.7040    0.5140   12.2670 N.ar   91  HIS91      -0.2268
     17  CD2       13.5460   -1.5000   12.5440 C.ar   91  HIS91       0.1154
     18  CE1       13.2740    0.4590   13.4580 C.ar   91  HIS91       0.1986
     19  NE2       13.7790   -0.7460   13.6670 N.ar   91  HIS91      -0.2212
     20  N         13.0360   -6.5150   12.4600 N.3    93  HIS93      -0.1241
     21  CA        14.2470   -7.3260   12.6660 C.3    93  HIS93       0.1621
     22  C         13.8270   -8.7920   12.6020 C.2    93  HIS93       0.2264
     23  O         12.7410   -9.1360   13.1170 O.2    93  HIS93      -0.2867
     24  CB        14.8620   -7.0570   14.0470 C.3    93  HIS93       0.0745
     25  CG        15.1600   -5.6160   14.3340 C.ar   93  HIS93       0.0817
     26  ND1       16.4070   -5.0900   14.0380 N.ar   93  HIS93      -0.2268
     27  CD2       14.3860   -4.5710   14.7300 C.ar   93  HIS93       0.1154
     28  CE1       16.4270   -3.8060   14.4090 C.ar   93  HIS93       0.1986
     29  NE2       15.1810   -3.4340   14.7400 N.ar   93  HIS93      -0.2212
     30  N          9.1320   -2.7410   14.8340 N.3   116  HIS116     -0.1241
     31  CA         9.3930   -1.5100   15.6080 C.3   116  HIS116      0.1621
     32  C          8.6970   -0.3950   14.8980 C.2   116  HIS116      0.2264
     33  O          9.0990    0.0430   13.8090 O.2   116  HIS116     -0.2867
     34  CB        10.9120   -1.2190   15.6230 C.3   116  HIS116      0.0745
     35  CG        11.5930   -2.1840   16.5260 C.ar  116  HIS116      0.0817
     36  ND1       12.9620   -2.3470   16.5510 N.ar  116  HIS116     -0.2268
     37  CD2       11.0900   -3.0410   17.4490 C.ar  116  HIS116      0.1154
     38  CE1       13.2920   -3.2380   17.4700 C.ar  116  HIS116      0.1986
     39  NE2       12.1810   -3.7150   17.9940 N.ar  116  HIS116     -0.2212
     40  N          8.2510    3.4510   15.1360 N.3   118  VAL118     -0.1245
     41  CA         9.1220    4.4890   15.7910 C.3   118  VAL118      0.1561
     42  C          8.4160    5.8370   15.8130 C.2   118  VAL118      0.2260
     43  O          7.9060    6.3180   14.7810 O.2   118  VAL118     -0.2867
     44  CB        10.4040    4.6320   15.0060 C.3   118  VAL118      0.0252
     45  CG1       11.3250    5.7140   15.6420 C.3   118  VAL118      0.0019
     46  CG2       11.1200    3.2600   14.8820 C.3   118  VAL118      0.0019
     47  N         12.5010   14.7910   14.6980 N.3   127  PHE127     -0.1241
     48  CA        13.2100   13.5790   15.1080 C.3   127  PHE127      0.1605
     49  C         14.6240   13.8800   15.5080 C.2   127  PHE127      0.2264
     50  O         15.1040   13.3020   16.4770 O.2   127  PHE127     -0.2867
     51  CB        13.1300   12.5570   13.9310 C.3   127  PHE127      0.0534
     52  CG        13.8190   11.2310   14.1780 C.ar  127  PHE127     -0.0203
     53  CD1       13.1680   10.1860   14.8330 C.ar  127  PHE127     -0.0042
     54  CD2       15.1720   11.1080   13.8470 C.ar  127  PHE127     -0.0042
     55  CE1       13.8180    9.0160   15.0740 C.ar  127  PHE127     -0.0003
     56  CE2       15.8330    9.9100   14.0860 C.ar  127  PHE127     -0.0003
     57  CZ        15.1560    8.8780   14.7200 C.ar  127  PHE127     -0.0000
     58  N         12.0470    9.3890   22.2130 N.3   137  LEU137     -0.1245
     59  CA        11.4040    8.3890   21.3000 C.3   137  LEU137      0.1561
     60  C         10.4630    7.4940   22.0970 C.2   137  LEU137      0.2260
     61  O         10.6860    7.2140   23.2540 O.2   137  LEU137     -0.2867
     62  CB        12.4340    7.5190   20.5170 C.3   137  LEU137      0.0270
     63  CG        13.3470    8.3320   19.6310 C.3   137  LEU137      0.0019
     64  CD1       14.2360    7.2730   18.9400 C.3   137  LEU137      0.0001
     65  CD2       12.6290    9.1170   18.5420 C.3   137  LEU137      0.0001
     66  N          9.0110    3.6050   21.1330 N.3   139  VAL139     -0.1245
     67  CA         8.9520    2.5460   20.1010 C.3   139  VAL139      0.1561
     68  C          7.9390    1.5210   20.5600 C.2   139  VAL139      0.2260
     69  O          8.0900    0.9640   21.6640 O.2   139  VAL139     -0.2867
     70  CB        10.3070    1.9250   19.8340 C.3   139  VAL139      0.0252
     71  CG1       10.1770    0.8750   18.6580 C.3   139  VAL139      0.0019
     72  CG2       11.2930    2.9760   19.3530 C.3   139  VAL139      0.0019
     73  N         17.8640    2.7440   20.9510 N.3   194  LEU194     -0.1231
     74  CA        17.8090    2.1180   19.6100 C.3   194  LEU194      0.1693
     75  C         18.5690    0.7960   19.7310 C.2   194  LEU194      0.2593
     76  O         19.6220    0.7030   20.4580 O.2   194  LEU194     -0.2718
     77  CB        18.6050    2.9880   18.6380 C.3   194  LEU194      0.0284
     78  CG        17.8660    4.0660   17.9000 C.3   194  LEU194      0.0019
     79  CD1       17.2360    5.0610   18.8950 C.3   194  LEU194      0.0001
     80  CD2       18.7860    4.7470   16.8450 C.3   194  LEU194      0.0001
     81  N         18.1730   -0.1890   18.9660 N.am  195  THR195     -0.1939
     82  CA        18.9270   -1.4680   18.9800 C.3   195  THR195      0.2028
     83  C         19.9050   -1.4550   17.8050 C.2   195  THR195      0.2642
     84  O         20.5840   -2.4510   17.5980 O.2   195  THR195     -0.2714
     85  CB        17.9660   -2.5910   18.8240 C.3   195  THR195      0.1808
     86  OG1       17.3740   -2.4750   17.5280 O.3   195  THR195     -0.2208
     87  CG2       16.8750   -2.4770   19.8880 C.3   195  THR195      0.0379
     88  N         20.0040   -0.3910   17.0130 N.am  196  THR196     -0.1950
     89  CA        21.0330   -0.3030   15.9320 C.3   196  THR196      0.1897
     90  C         21.8710    0.9250   16.1910 C.2   196  THR196      0.2313
     91  O         21.3790    1.9270   16.7200 O.2   196  THR196     -0.2863
     92  CB        20.3040   -0.1450   14.5920 C.3   196  THR196      0.1794
     93  OG1       19.2680    0.8440   14.7600 O.3   196  THR196     -0.2208
     94  CG2       19.7110   -1.4620   14.1960 C.3   196  THR196      0.0378
     95  N         10.4370    2.0780   25.6230 N.3   205  TRP205     -0.1241
     96  CA         9.9580    0.8990   24.9210 C.3   205  TRP205      0.1605
     97  C          8.6070    0.4760   25.4510 C.2   205  TRP205      0.2264
     98  O          8.3810    0.4220   26.6690 O.2   205  TRP205     -0.2867
     99  CB        10.9420   -0.2920   25.1510 C.3   205  TRP205      0.0550
    100  CG        12.0940   -0.1840   24.2090 C.ar  205  TRP205      0.0003
    101  CD1       13.3290    0.3610   24.4350 C.ar  205  TRP205      0.0946
    102  CD2       12.0740   -0.6030   22.8210 C.ar  205  TRP205      0.0152
    103  NE1       14.0920    0.3480   23.2560 N.ar  205  TRP205     -0.2442
    104  CE2       13.3310   -0.2520   22.2530 C.ar  205  TRP205      0.0810
    105  CE3       11.0880   -1.2140   21.9930 C.ar  205  TRP205      0.0012
    106  CZ2       13.6490   -0.5290   20.9160 C.ar  205  TRP205      0.0191
    107  CZ3       11.3900   -1.4710   20.6880 C.ar  205  TRP205      0.0001
    108  CH2       12.6740   -1.1850   20.1390 C.ar  205  TRP205      0.0015
@<TRIPOS>BOND
     1     5     2    1
     2     5     6    1
     3    14    11    1
     4    14    15    1
     5    11    10    1
     6    11    12    1
     7     2     3    1
     8     2     1    1
     9     6     7    1
    10     3     4    2
    11    12    13    2
    12     7     9   am
    13     7     8    2
    14    15    16   ar
    15    15    17   ar
    16    16    18   ar
    17    20    21    1
    18    17    19   ar
    19    22    21    1
    20    22    23    2
    21    21    24    1
    22    18    19   ar
    23    33    32    2
    24    54    56   ar
    25    54    52   ar
    26    51    52    1
    27    51    48    1
    28    26    25   ar
    29    26    28   ar
    30    24    25    1
    31    56    57   ar
    32    52    53   ar
    33    94    92    1
    34    25    27   ar
    35    28    29   ar
    36    92    93    1
    37    92    89    1
    38    47    48    1
    39    57    55   ar
    40    27    29   ar
    41    43    42    2
    42    53    55   ar
    43    30    31    1
    44    46    44    1
    45    32    31    1
    46    44    45    1
    47    44    41    1
    48    48    49    1
    49    40    41    1
    50    49    50    2
    51    31    34    1
    52    34    35    1
    53    41    42    1
    54    89    90    1
    55    89    88    1
    56    90    91    2
    57    35    36   ar
    58    35    37   ar
    59    36    38   ar
    60    80    78    1
    61    88    83   am
    62    37    39   ar
    63    38    39   ar
    64    86    85    1
    65    84    83    2
    66    83    82    1
    67    78    77    1
    68    78    79    1
    69    65    63    1
    70    77    74    1
    71    71    70    1
    72    85    82    1
    73    85    87    1
    74    64    63    1
    75    81    82    1
    76    81    75   am
    77    72    70    1
    78    74    75    1
    79    74    73    1
    80    63    62    1
    81    75    76    2
    82    70    67    1
    83    67    68    1
    84    67    66    1
    85   108   107   ar
    86   108   106   ar
    87    62    59    1
    88    68    69    2
    89   107   105   ar
    90   106   104   ar
    91    59    60    1
    92    59    58    1
    93   105   102   ar
    94    60    61    2
    95   104   102   ar
    96   104   103   ar
    97   102   100   ar
    98   103   101   ar
    99   100   101   ar
   100   100    99    1
   101    96    99    1
   102    96    97    1
   103    96    95    1
   104    97    98    2
