@<TRIPOS>MOLECULE
tmp/4q9zA00.pdb
 155 146 0 0 0
SMALL
GASTEIGER

@<TRIPOS>ATOM
      1  N         26.7360   -1.4430  -10.8130 N.3    12  LEU12      -0.1231
      2  CA        27.1190   -2.6560  -10.0880 C.3    12  LEU12       0.1693
      3  C         27.1770   -3.8660  -11.0170 C.2    12  LEU12       0.2592
      4  O         27.9300   -4.8070  -10.7610 O.2    12  LEU12      -0.2718
      5  CB        26.1280   -2.9280   -8.9540 C.3    12  LEU12       0.0284
      6  CG        25.8620   -1.7640   -7.9940 C.3    12  LEU12       0.0019
      7  CD1       24.7040   -2.1040   -7.0750 C.3    12  LEU12       0.0001
      8  CD2       27.1040   -1.4140   -7.1990 C.3    12  LEU12       0.0001
      9  N         26.3660   -3.8450  -12.0760 N.am   13  GLY13      -0.1957
     10  CA        26.3830   -4.8990  -13.0890 C.3    13  GLY13       0.1869
     11  C         25.5410   -4.5960  -14.3140 C.2    13  GLY13       0.2309
     12  O         24.6240   -3.7750  -14.2540 O.2    13  GLY13      -0.2863
     13  N         19.7770   -9.3080  -17.7230 N.3    17  PHE17      -0.1241
     14  CA        18.8890   -8.7050  -16.7090 C.3    17  PHE17       0.1605
     15  C         18.7850   -7.1680  -16.7350 C.2    17  PHE17       0.2264
     16  O         17.9900   -6.6100  -15.9760 O.2    17  PHE17      -0.2867
     17  CB        19.2820   -9.1740  -15.2930 C.3    17  PHE17       0.0534
     18  CG        20.6990   -8.8400  -14.9010 C.ar   17  PHE17      -0.0203
     19  CD1       21.0150   -7.5970  -14.3580 C.ar   17  PHE17      -0.0042
     20  CD2       21.7180   -9.7800  -15.0630 C.ar   17  PHE17      -0.0042
     21  CE1       22.3280   -7.2880  -14.0000 C.ar   17  PHE17      -0.0003
     22  CE2       23.0320   -9.4810  -14.7080 C.ar   17  PHE17      -0.0003
     23  CZ        23.3390   -8.2340  -14.1770 C.ar   17  PHE17      -0.0000
     24  N         22.1680   -2.6220  -13.4270 N.3    20  VAL20      -0.1245
     25  CA        21.9260   -2.3460  -12.0040 C.3    20  VAL20       0.1561
     26  C         22.8410   -1.2130  -11.5270 C.2    20  VAL20       0.2260
     27  O         24.0640   -1.3190  -11.6260 O.2    20  VAL20      -0.2867
     28  CB        22.1460   -3.6060  -11.1360 C.3    20  VAL20       0.0252
     29  CG1       21.8940   -3.3050   -9.6570 C.3    20  VAL20       0.0019
     30  CG2       21.2350   -4.7360  -11.6050 C.3    20  VAL20       0.0019
     31  N         19.3840    0.0910   -4.9330 N.3    33  ALA33      -0.1245
     32  CA        19.8300   -0.5800   -6.1520 C.3    33  ALA33       0.1562
     33  C         18.7060   -0.4480   -7.1610 C.2    33  ALA33       0.2260
     34  O         17.6030   -0.9410   -6.9100 O.2    33  ALA33      -0.2867
     35  CB        20.1290   -2.0440   -5.8840 C.3    33  ALA33       0.0290
     36  N         17.4870   -1.5200  -10.7760 N.3    35  LYS35      -0.1245
     37  CA        17.5570   -2.3030  -12.0130 C.3    35  LYS35       0.1561
     38  C         16.8420   -1.5160  -13.1000 C.2    35  LYS35       0.2260
     39  O         15.6390   -1.2770  -12.9990 O.2    35  LYS35      -0.2867
     40  CB        16.8990   -3.6770  -11.8520 C.3    35  LYS35       0.0271
     41  CG        17.1550   -4.6270  -13.0330 C.3    35  LYS35       0.0035
     42  CD        16.1790   -5.7910  -13.0740 C.3    35  LYS35       0.0206
     43  CE        16.4460   -6.7910  -11.9760 C.3    35  LYS35       0.1093
     44  NZ        15.7230   -8.0620  -12.2340 N.3    35  LYS35      -0.1314
     45  N         14.3380  -10.5080   -1.9560 N.3    68  THR68      -0.1218
     46  CA        14.7320   -9.1080   -2.1980 C.3    68  THR68       0.1862
     47  C         13.5160   -8.1990   -2.1190 C.2    68  THR68       0.2287
     48  O         12.4900   -8.5080   -2.7220 O.2    68  THR68      -0.2866
     49  CB        15.3730   -8.9030   -3.5930 C.3    68  THR68       0.1770
     50  OG1       14.4980   -9.4180   -4.6040 O.3    68  THR68      -0.2211
     51  CG2       16.7050   -9.6030   -3.6880 C.3    68  THR68       0.0375
     52  N         15.1030   -1.1270   -5.7820 N.3    84  MET84      -0.1230
     53  CA        15.2670   -2.1820   -4.7750 C.3    84  MET84       0.1702
     54  C         16.0830   -1.6990   -3.5780 C.2    84  MET84       0.2592
     55  O         16.7540   -0.6680   -3.6420 O.2    84  MET84      -0.2718
     56  CB        15.9740   -3.3970   -5.3930 C.3    84  MET84       0.0401
     57  CG        15.3750   -3.9070   -6.7050 C.3    84  MET84       0.0596
     58  SD        13.6790   -4.4750   -6.5340 S.3    84  MET84      -0.1393
     59  CE        13.9150   -6.0020   -5.6210 C.3    84  MET84       0.0692
     60  N         16.0100   -2.4560   -2.4840 N.am   85  GLU85      -0.1966
     61  CA        16.9570   -2.3120   -1.3720 C.3    85  GLU85       0.1733
     62  C         18.3620   -2.6500   -1.8700 C.2    85  GLU85       0.2616
     63  O         18.5340   -3.5740   -2.6630 O.2    85  GLU85      -0.2715
     64  CB        16.5770   -3.2040   -0.1700 C.3    85  GLU85       0.0429
     65  CG        16.6200   -4.7300   -0.4180 C.3    85  GLU85       0.1163
     66  CD        16.2180   -5.5590    0.8050 C.2    85  GLU85       0.3649
     67  OE1       16.4670   -5.1150    1.9500 O.co2  85  GLU85      -0.2457
     68  OE2       15.6560   -6.6660    0.6160 O.co2  85  GLU85      -0.2457
     69  N         19.3540   -1.8910   -1.4190 N.am   86  TYR86      -0.1960
     70  CA        20.7360   -2.1210   -1.8150 C.3    86  TYR86       0.1771
     71  C         21.3940   -3.1260   -0.8670 C.2    86  TYR86       0.2619
     72  O         21.5950   -2.8340    0.3140 O.2    86  TYR86      -0.2715
     73  CB        21.5160   -0.8070   -1.8360 C.3    86  TYR86       0.0574
     74  CG        22.9730   -0.9750   -2.1990 C.ar   86  TYR86      -0.0198
     75  CD1       23.3530   -1.7200   -3.3180 C.ar   86  TYR86      -0.0009
     76  CD2       23.9730   -0.3950   -1.4250 C.ar   86  TYR86      -0.0009
     77  CE1       24.6880   -1.8820   -3.6540 C.ar   86  TYR86       0.0417
     78  CE2       25.3100   -0.5460   -1.7570 C.ar   86  TYR86       0.0417
     79  CZ        25.6620   -1.2910   -2.8770 C.ar   86  TYR86       0.1957
     80  OH        26.9830   -1.4640   -3.2160 O.3    86  TYR86      -0.2866
     81  N         21.7210   -4.3030   -1.4040 N.am   87  LEU87      -0.1977
     82  CA        22.3100   -5.4010   -0.6510 C.3    87  LEU87       0.1596
     83  C         23.7700   -5.5310   -1.0730 C.2    87  LEU87       0.2287
     84  O         24.0710   -6.1190   -2.1160 O.2    87  LEU87      -0.2864
     85  CB        21.5400   -6.7000   -0.9330 C.3    87  LEU87       0.0297
     86  CG        20.0550   -6.6880   -0.5420 C.3    87  LEU87       0.0022
     87  CD1       19.2780   -7.8010   -1.2430 C.3    87  LEU87       0.0001
     88  CD2       19.8880   -6.7760    0.9770 C.3    87  LEU87       0.0001
     89  N         26.9790  -11.4620   -3.9940 N.3    91  ASP91      -0.1239
     90  CA        26.2790  -12.7210   -4.2860 C.3    91  ASP91       0.1674
     91  C         27.1550  -13.9400   -4.0010 C.2    91  ASP91       0.2266
     92  O         28.3690  -13.8220   -3.8440 O.2    91  ASP91      -0.2867
     93  CB        25.6800  -12.7580   -5.7070 C.3    91  ASP91       0.1410
     94  CG        26.7090  -12.5530   -6.8100 C.2    91  ASP91       0.3668
     95  OD1       26.4960  -11.6430   -7.6390 O.co2  91  ASP91      -0.2456
     96  OD2       27.7100  -13.2980   -6.8670 O.co2  91  ASP91      -0.2456
     97  N         24.4170  -17.0820   -8.4880 N.3   134  ASP134     -0.1225
     98  CA        24.4170  -15.6300   -8.7800 C.3   134  ASP134      0.1805
     99  C         23.0390  -14.9550   -8.6770 C.2   134  ASP134      0.2597
    100  O         22.9430  -13.7390   -8.8380 O.2   134  ASP134     -0.2718
    101  CB        25.1080  -15.2990  -10.1250 C.3   134  ASP134      0.1424
    102  CG        24.5510  -16.0810  -11.2960 C.2   134  ASP134      0.3668
    103  OD1       24.5310  -17.3310  -11.2200 O.co2 134  ASP134     -0.2456
    104  OD2       24.1640  -15.4470  -12.3020 O.co2 134  ASP134     -0.2456
    105  N         21.9900  -15.7340   -8.4030 N.am  135  ASN135     -0.1974
    106  CA        20.6750  -15.2030   -8.0300 C.3   135  ASN135      0.1688
    107  C         20.4340  -15.1950   -6.5120 C.2   135  ASN135      0.2292
    108  O         19.3270  -14.8840   -6.0680 O.2   135  ASN135     -0.2864
    109  CB        19.5520  -15.9840   -8.7460 C.3   135  ASN135      0.1181
    110  CG        19.4410  -15.6500  -10.2320 C.2   135  ASN135      0.2629
    111  OD1       20.1590  -14.8010  -10.7620 O.2   135  ASN135     -0.2716
    112  ND2       18.5250  -16.3260  -10.9100 N.am  135  ASN135     -0.0877
    113  N         21.7860  -13.2000   -3.3350 N.3   137  LEU137     -0.1245
    114  CA        22.5590  -12.0680   -2.8060 C.3   137  LEU137      0.1561
    115  C         22.7120  -12.1810   -1.2930 C.2   137  LEU137      0.2260
    116  O         21.8800  -12.8040   -0.6320 O.2   137  LEU137     -0.2867
    117  CB        21.8490  -10.7500   -3.1170 C.3   137  LEU137      0.0270
    118  CG        21.5760  -10.3710   -4.5750 C.3   137  LEU137      0.0019
    119  CD1       20.7140   -9.1180   -4.6210 C.3   137  LEU137      0.0001
    120  CD2       22.8650  -10.1560   -5.3370 C.3   137  LEU137      0.0001
    121  N         16.8530  -13.5240   -5.3850 N.3   147  ALA147     -0.1231
    122  CA        16.6820  -12.4490   -6.3750 C.3   147  ALA147      0.1694
    123  C         16.2390  -12.9710   -7.7390 C.2   147  ALA147      0.2592
    124  O         16.2410  -14.1720   -7.9770 O.2   147  ALA147     -0.2718
    125  CB        17.9780  -11.6740   -6.5220 C.3   147  ALA147      0.0304
    126  N         15.8690  -12.0430   -8.6220 N.am  148  ASP148     -0.1974
    127  CA        15.4600  -12.3260  -10.0170 C.3   148  ASP148      0.1709
    128  C         14.2420  -13.2450  -10.1650 C.2   148  ASP148      0.2293
    129  O         14.3800  -14.4180  -10.5040 O.2   148  ASP148     -0.2864
    130  CB        16.6360  -12.8480  -10.8480 C.3   148  ASP148      0.1436
    131  CG        17.7200  -11.8190  -11.0140 C.2   148  ASP148      0.3671
    132  OD1       18.0020  -11.4200  -12.1660 O.co2 148  ASP148     -0.2456
    133  OD2       18.2810  -11.3910   -9.9860 O.co2 148  ASP148     -0.2456
    134  N         31.6050   -6.5630   -5.3660 N.3   290  PHE290     -0.1241
    135  CA        31.1120   -6.6440   -6.7540 C.3   290  PHE290      0.1605
    136  C         32.2980   -6.6510   -7.7150 C.2   290  PHE290      0.2264
    137  O         33.3650   -6.1210   -7.3880 O.2   290  PHE290     -0.2867
    138  CB        30.2100   -5.4510   -7.0970 C.3   290  PHE290      0.0534
    139  CG        28.9630   -5.3710   -6.2660 C.ar  290  PHE290     -0.0203
    140  CD1       27.8120   -6.0560   -6.6460 C.ar  290  PHE290     -0.0042
    141  CD2       28.9400   -4.6120   -5.0970 C.ar  290  PHE290     -0.0042
    142  CE1       26.6530   -5.9890   -5.8690 C.ar  290  PHE290     -0.0003
    143  CE2       27.7860   -4.5370   -4.3130 C.ar  290  PHE290     -0.0003
    144  CZ        26.6410   -5.2280   -4.6990 C.ar  290  PHE290     -0.0000
    145  N         32.5730   -3.5960  -14.0380 N.3   294  PHE294     -0.1241
    146  CA        31.3890   -2.7440  -14.1670 C.3   294  PHE294      0.1605
    147  C         31.5360   -1.4390  -13.3820 C.2   294  PHE294      0.2264
    148  O         31.1910   -0.3690  -13.8900 O.2   294  PHE294     -0.2867
    149  CB        30.1370   -3.4890  -13.6930 C.3   294  PHE294      0.0534
    150  CG        29.9010   -4.8050  -14.3970 C.ar  294  PHE294     -0.0203
    151  CD1       29.7810   -4.8550  -15.7830 C.ar  294  PHE294     -0.0042
    152  CD2       29.7870   -5.9930  -13.6700 C.ar  294  PHE294     -0.0042
    153  CE1       29.5570   -6.0690  -16.4400 C.ar  294  PHE294     -0.0003
    154  CE2       29.5550   -7.2120  -14.3170 C.ar  294  PHE294     -0.0003
    155  CZ        29.4420   -7.2500  -15.7030 C.ar  294  PHE294     -0.0000
@<TRIPOS>BOND
     1    13    14    1
     2    15    14    1
     3    15    16    2
     4    14    17    1
     5   153   151   ar
     6   153   155   ar
     7   151   150   ar
     8   155   154   ar
     9    17    18    1
    10    20    18   ar
    11    20    22   ar
    12    18    19   ar
    13    22    23   ar
    14   150   149    1
    15   150   152   ar
    16    19    21   ar
    17   154   152   ar
    18    11    12    2
    19    11    10    1
    20    23    21   ar
    21   146   145    1
    22   146   149    1
    23   146   147    1
    24   148   147    2
    25    24    25    1
    26    38    39    2
    27    38    37    1
    28    10     9    1
    29    42    41    1
    30    42    43    1
    31    41    40    1
    32   104   102   ar
    33    44    43    1
    34   132   131   ar
    35     9     3   am
    36    37    40    1
    37    37    36    1
    38    25    26    1
    39    25    28    1
    40    27    26    2
    41    30    28    1
    42   102   103   ar
    43   102   101    1
    44    28    29    1
    45     3     4    2
    46     3     2    1
    47   131   130    1
    48   131   133   ar
    49   112   110   am
    50   130   127    1
    51     1     2    1
    52   111   110    2
    53   129   128    2
    54   110   109    1
    55   128   127    1
    56   101    98    1
    57     2     5    1
    58   127   126    1
    59     5     6    1
    60   100    99    2
    61    98    99    1
    62    98    97    1
    63   109   106    1
    64    99   105   am
    65   126   123   am
    66   105   106    1
    67   106   107    1
    68     6     8    1
    69     6     7    1
    70   124   123    2
    71   123   122    1
    72   136   137    2
    73   136   135    1
    74    95    94   ar
    75    33    34    2
    76    33    32    1
    77   138   135    1
    78   138   139    1
    79    96    94   ar
    80    94    93    1
    81   135   134    1
    82    57    58    1
    83    57    56    1
    84   140   139   ar
    85   140   142   ar
    86    58    59    1
    87   125   122    1
    88   107   108    2
    89   122   121    1
    90   139   141   ar
    91    32    35    1
    92    32    31    1
    93   142   144   ar
    94    52    53    1
    95    93    90    1
    96    56    53    1
    97   120   118    1
    98   141   143   ar
    99    53    54    1
   100   144   143   ar
   101   119   118    1
   102    50    49    1
   103   118   117    1
   104    90    91    1
   105    90    89    1
   106    91    92    2
   107    51    49    1
   108    77    75   ar
   109    77    79   ar
   110    55    54    2
   111    49    46    1
   112    54    60   am
   113   113   114    1
   114    75    74   ar
   115    80    79    1
   116   117   114    1
   117    79    78   ar
   118   114   115    1
   119    48    47    2
   120    63    62    2
   121    60    61    1
   122    74    73    1
   123    74    76   ar
   124    46    47    1
   125    46    45    1
   126    84    83    2
   127    62    69   am
   128    62    61    1
   129    73    70    1
   130    70    69    1
   131    70    71    1
   132    78    76   ar
   133    81    71   am
   134    81    82    1
   135    61    64    1
   136   115   116    2
   137    87    86    1
   138    83    82    1
   139    85    82    1
   140    85    86    1
   141    71    72    2
   142    86    88    1
   143    65    64    1
   144    65    66    1
   145    68    66   ar
   146    66    67   ar
