@<TRIPOS>MOLECULE
tmp/4qa0A00.pdb
 148 145 0 0 0
SMALL
GASTEIGER

@<TRIPOS>ATOM
      1  N         27.3930   30.8010   22.5200 N.3    20  LYS20      -0.1245
      2  CA        25.9420   30.8480   22.6730 C.3    20  LYS20       0.1561
      3  C         25.3950   29.7600   23.5970 C.2    20  LYS20       0.2260
      4  O         24.2840   29.8800   24.1190 O.2    20  LYS20      -0.2867
      5  CB        25.2610   30.7680   21.3060 C.3    20  LYS20       0.0271
      6  CG        24.5990   32.0620   20.8600 C.3    20  LYS20       0.0035
      7  CD        25.5850   33.2110   20.7560 C.3    20  LYS20       0.0206
      8  CE        24.9080   34.4420   20.1840 C.3    20  LYS20       0.1093
      9  NZ        25.7280   35.6690   20.3340 N.3    20  LYS20      -0.1314
     10  N         27.0390   39.4810   15.5450 N.3    87  TYR87      -0.1227
     11  CA        26.1420   39.2900   16.6840 C.3    87  TYR87       0.1736
     12  C         25.7540   37.8200   16.8960 C.2    87  TYR87       0.2595
     13  O         26.0320   37.2420   17.9480 O.2    87  TYR87      -0.2718
     14  CB        24.8900   40.1550   16.5030 C.3    87  TYR87       0.0548
     15  CG        23.9840   40.2280   17.7120 C.ar   87  TYR87      -0.0200
     16  CD1       24.4570   39.9280   18.9830 C.ar   87  TYR87      -0.0009
     17  CD2       22.6490   40.5900   17.5790 C.ar   87  TYR87      -0.0009
     18  CE1       23.6300   39.9910   20.0840 C.ar   87  TYR87       0.0417
     19  CE2       21.8120   40.6570   18.6760 C.ar   87  TYR87       0.0417
     20  CZ        22.3070   40.3570   19.9260 C.ar   87  TYR87       0.1957
     21  OH        21.4770   40.4210   21.0220 O.3    87  TYR87      -0.2866
     22  N         25.1110   37.2250   15.8960 N.am   88  ASP88      -0.1974
     23  CA        24.6850   35.8300   15.9780 C.3    88  ASP88       0.1709
     24  C         25.8630   34.8650   16.0490 C.2    88  ASP88       0.2293
     25  O         25.8020   33.8420   16.7330 O.2    88  ASP88      -0.2864
     26  CB        23.8110   35.4690   14.7770 C.3    88  ASP88       0.1436
     27  CG        22.4100   36.0430   14.8780 C.2    88  ASP88       0.3671
     28  OD1       22.1410   36.8150   15.8240 O.co2  88  ASP88      -0.2456
     29  OD2       21.5770   35.7240   14.0030 O.co2  88  ASP88      -0.2456
     30  N         24.1800   21.8420   13.7190 N.3   128  TRP128     -0.1227
     31  CA        24.1390   23.2570   13.3570 C.3   128  TRP128      0.1737
     32  C         23.8230   23.4360   11.8810 C.2   128  TRP128      0.2595
     33  O         24.6890   23.2880   11.0180 O.2   128  TRP128     -0.2718
     34  CB        25.4300   23.9580   13.7710 C.3   128  TRP128      0.0564
     35  CG        25.5640   23.9320   15.2480 C.ar  128  TRP128      0.0003
     36  CD1       26.4160   23.1600   15.9850 C.ar  128  TRP128      0.0946
     37  CD2       24.7730   24.6690   16.1850 C.ar  128  TRP128      0.0152
     38  NE1       26.2190   23.3920   17.3270 N.ar  128  TRP128     -0.2442
     39  CE2       25.2160   24.3140   17.4750 C.ar  128  TRP128      0.0810
     40  CE3       23.7400   25.6050   16.0590 C.ar  128  TRP128      0.0012
     41  CZ2       24.6620   24.8630   18.6310 C.ar  128  TRP128      0.0191
     42  CZ3       23.1900   26.1490   17.2120 C.ar  128  TRP128      0.0001
     43  CH2       23.6540   25.7760   18.4770 C.ar  128  TRP128      0.0015
     44  N         22.5650   23.7690   11.6140 N.am  129  HIS129     -0.1961
     45  CA        21.9780   23.6240   10.2880 C.3   129  HIS129      0.1787
     46  C         21.7700   24.9180    9.5040 C.2   129  HIS129      0.2620
     47  O         21.1320   24.8970    8.4540 O.2   129  HIS129     -0.2715
     48  CB        20.6370   22.8840   10.4030 C.3   129  HIS129      0.0785
     49  CG        19.6620   23.5270   11.3460 C.ar  129  HIS129      0.0821
     50  ND1       18.3790   23.0540   11.5240 N.ar  129  HIS129     -0.2267
     51  CD2       19.7800   24.6020   12.1630 C.ar  129  HIS129      0.1154
     52  CE1       17.7500   23.8100   12.4060 C.ar  129  HIS129      0.1986
     53  NE2       18.5780   24.7560   12.8100 N.ar  129  HIS129     -0.2212
     54  N         22.2980   26.0350    9.9910 N.am  130  HIS130     -0.1973
     55  CA        22.0540   27.3180    9.3270 C.3   130  HIS130      0.1656
     56  C         23.1630   27.8000    8.3850 C.2   130  HIS130      0.2291
     57  O         22.8850   28.4720    7.3930 O.2   130  HIS130     -0.2864
     58  CB        21.7380   28.4080   10.3570 C.3   130  HIS130      0.0771
     59  CG        20.4460   28.1950   11.0810 C.ar  130  HIS130      0.0820
     60  ND1       19.2380   28.0860   10.4280 N.ar  130  HIS130     -0.2267
     61  CD2       20.1730   28.0740   12.4020 C.ar  130  HIS130      0.1154
     62  CE1       18.2750   27.9050   11.3150 C.ar  130  HIS130      0.1986
     63  NE2       18.8160   27.8940   12.5190 N.ar  130  HIS130     -0.2212
     64  N         23.1610   31.6940   12.2860 N.3   138  GLY138     -0.1210
     65  CA        22.3900   31.0630   13.3420 C.3   138  GLY138      0.1956
     66  C         23.2150   30.4080   14.4280 C.2   138  GLY138      0.2611
     67  O         23.0920   29.2050   14.6580 O.2   138  GLY138     -0.2717
     68  N         24.0660   31.2070   15.0680 N.am  139  PHE139     -0.1976
     69  CA        24.8360   30.8030   16.2520 C.3   139  PHE139      0.1639
     70  C         26.0450   29.9040   15.9820 C.2   139  PHE139      0.2290
     71  O         26.7610   29.5440   16.9170 O.2   139  PHE139     -0.2864
     72  CB        23.9430   30.1630   17.3310 C.3   139  PHE139      0.0560
     73  CG        22.9810   31.1210   17.9860 C.ar  139  PHE139     -0.0200
     74  CD1       22.9750   32.4680   17.6560 C.ar  139  PHE139     -0.0042
     75  CD2       22.0900   30.6700   18.9510 C.ar  139  PHE139     -0.0042
     76  CE1       22.0910   33.3430   18.2650 C.ar  139  PHE139     -0.0003
     77  CE2       21.2070   31.5390   19.5640 C.ar  139  PHE139     -0.0003
     78  CZ        21.2080   32.8770   19.2220 C.ar  139  PHE139     -0.0000
     79  N         14.2590   20.6110   14.9880 N.3   165  ASP165     -0.1239
     80  CA        14.6150   21.8210   15.7270 C.3   165  ASP165      0.1674
     81  C         13.4390   22.7870   15.6900 C.2   165  ASP165      0.2266
     82  O         12.5810   22.6850   14.8160 O.2   165  ASP165     -0.2867
     83  CB        15.8430   22.4780   15.0890 C.3   165  ASP165      0.1410
     84  CG        16.5170   23.4850   16.0030 C.2   165  ASP165      0.3668
     85  OD1       16.0110   24.6200   16.1170 O.co2 165  ASP165     -0.2456
     86  OD2       17.5690   23.1440   16.5900 O.co2 165  ASP165     -0.2456
     87  N         13.7180   25.7750   14.9000 N.3   167  HIS167     -0.1241
     88  CA        13.9800   26.6180   13.7390 C.3   167  HIS167      0.1621
     89  C         14.0530   25.8300   12.4340 C.2   167  HIS167      0.2264
     90  O         14.4060   24.6500   12.4180 O.2   167  HIS167     -0.2867
     91  CB        15.2690   27.4240   13.9410 C.3   167  HIS167      0.0745
     92  CG        15.2470   28.3030   15.1530 C.ar  167  HIS167      0.0817
     93  ND1       15.6020   27.8520   16.4070 N.ar  167  HIS167     -0.2268
     94  CD2       14.9030   29.6040   15.3050 C.ar  167  HIS167      0.1154
     95  CE1       15.4830   28.8380   17.2770 C.ar  167  HIS167      0.1986
     96  NE2       15.0570   29.9110   16.6360 N.ar  167  HIS167     -0.2212
     97  N         13.0850   33.7850   13.1860 N.3   195  PHE195     -0.1241
     98  CA        14.2720   33.2540   12.5150 C.3   195  PHE195      0.1605
     99  C         14.0910   31.8150   12.0110 C.2   195  PHE195      0.2264
    100  O         13.5480   30.9690   12.7210 O.2   195  PHE195     -0.2867
    101  CB        15.4560   33.3310   13.4820 C.3   195  PHE195      0.0534
    102  CG        16.7890   33.0670   12.8450 C.ar  195  PHE195     -0.0203
    103  CD1       17.5550   34.1150   12.3540 C.ar  195  PHE195     -0.0042
    104  CD2       17.2880   31.7750   12.7550 C.ar  195  PHE195     -0.0042
    105  CE1       18.7890   33.8790   11.7740 C.ar  195  PHE195     -0.0003
    106  CE2       18.5240   31.5310   12.1730 C.ar  195  PHE195     -0.0003
    107  CZ        19.2740   32.5840   11.6820 C.ar  195  PHE195     -0.0000
    108  N         17.9460   15.6270   13.0630 N.3   250  GLN250     -0.1245
    109  CA        18.3390   16.7400   13.9180 C.3   250  GLN250      0.1566
    110  C         17.2940   16.9230   15.0200 C.2   250  GLN250      0.2260
    111  O         16.1040   17.0850   14.7400 O.2   250  GLN250     -0.2867
    112  CB        18.4890   18.0160   13.0810 C.3   250  GLN250      0.0367
    113  CG        19.4160   19.0680   13.6740 C.3   250  GLN250      0.0905
    114  CD        18.6800   20.0880   14.5130 C.2   250  GLN250      0.2608
    115  OE1       17.6170   19.8080   15.0640 O.2   250  GLN250     -0.2717
    116  NE2       19.2390   21.2870   14.6080 N.am  250  GLN250     -0.0878
    117  N         15.1990   23.1500   21.4630 N.3   254  ASP254     -0.1239
    118  CA        14.5420   24.4390   21.6990 C.3   254  ASP254      0.1674
    119  C         13.0270   24.4070   21.4610 C.2   254  ASP254      0.2266
    120  O         12.3640   25.4460   21.4630 O.2   254  ASP254     -0.2867
    121  CB        15.2090   25.5930   20.9380 C.3   254  ASP254      0.1410
    122  CG        15.5800   25.2360   19.5030 C.2   254  ASP254      0.3668
    123  OD1       15.1350   24.1920   18.9770 O.co2 254  ASP254     -0.2456
    124  OD2       16.3290   26.0270   18.8980 O.co2 254  ASP254     -0.2456
    125  N         13.1840   30.6390   24.5430 N.3   261  MET261     -0.1245
    126  CA        12.5470   31.0720   23.3020 C.3   261  MET261      0.1570
    127  C         11.0350   30.8830   23.3570 C.2   261  MET261      0.2261
    128  O         10.3040   31.4810   22.5690 O.2   261  MET261     -0.2867
    129  CB        13.1430   30.3490   22.0990 C.3   261  MET261      0.0387
    130  CG        14.6120   30.6470   21.9210 C.3   261  MET261      0.0595
    131  SD        15.1370   30.4410   20.2260 S.3   261  MET261     -0.1393
    132  CE        16.8460   30.9830   20.3320 C.3   261  MET261      0.0692
    133  N         19.7660   23.3350   18.5530 N.3   291  GLY291     -0.1225
    134  CA        19.3730   24.3720   19.4900 C.3   291  GLY291      0.1811
    135  C         18.9880   23.7870   20.8360 C.2   291  GLY291      0.2280
    136  O         18.9140   22.5720   20.9990 O.2   291  GLY291     -0.2866
    137  N         18.3140   26.0690   24.7140 N.3   293  TYR293     -0.1241
    138  CA        18.8830   27.1770   25.4710 C.3   293  TYR293      0.1605
    139  C         18.4420   27.2020   26.9310 C.2   293  TYR293      0.2264
    140  O         18.8490   28.0710   27.6950 O.2   293  TYR293     -0.2867
    141  CB        18.6170   28.4900   24.7330 C.3   293  TYR293      0.0534
    142  CG        19.0650   28.3640   23.2960 C.ar  293  TYR293     -0.0201
    143  CD1       20.4060   28.4920   22.9620 C.ar  293  TYR293     -0.0009
    144  CD2       18.1630   28.0460   22.2870 C.ar  293  TYR293     -0.0009
    145  CE1       20.8330   28.3450   21.6650 C.ar  293  TYR293      0.0417
    146  CE2       18.5830   27.8950   20.9790 C.ar  293  TYR293      0.0417
    147  CZ        19.9210   28.0460   20.6770 C.ar  293  TYR293      0.1957
    148  OH        20.3590   27.9000   19.3890 O.3   293  TYR293     -0.2866
@<TRIPOS>BOND
     1    57    56    2
     2    56    55    1
     3    47    46    2
     4    55    54    1
     5    55    58    1
     6    46    54   am
     7    46    45    1
     8    45    48    1
     9    45    44    1
    10    58    59    1
    11    48    49    1
    12    60    59   ar
    13    60    62   ar
    14    33    32    2
    15    59    61   ar
    16    62    63   ar
    17    49    50   ar
    18    49    51   ar
    19    50    52   ar
    20    44    32   am
    21   107   105   ar
    22   107   106   ar
    23   105   103   ar
    24    32    31    1
    25    99    98    1
    26    99   100    2
    27    51    53   ar
    28   106   104   ar
    29    64    65    1
    30   103   102   ar
    31    61    63   ar
    32    52    53   ar
    33    90    89    2
    34    89    88    1
    35    98    97    1
    36    98   101    1
    37   104   102   ar
    38   102   101    1
    39   108   109    1
    40   112   113    1
    41   112   109    1
    42    65    66    1
    43    31    30    1
    44    31    34    1
    45   113   114    1
    46    88    91    1
    47    88    87    1
    48    34    35    1
    49   109   110    1
    50    91    92    1
    51    29    27   ar
    52    66    67    2
    53    66    68   am
    54   114   116   am
    55   114   115    2
    56   111   110    2
    57    26    27    1
    58    26    23    1
    59    82    81    2
    60    27    28   ar
    61    79    80    1
    62    68    69    1
    63    83    80    1
    64    83    84    1
    65    92    94   ar
    66    92    93   ar
    67    35    36   ar
    68    35    37   ar
    69    94    96   ar
    70    10    11    1
    71    81    80    1
    72    22    23    1
    73    22    12   am
    74    23    24    1
    75    70    69    1
    76    70    71    2
    77    36    38   ar
    78    84    85   ar
    79    84    86   ar
    80    24    25    2
    81    40    37   ar
    82    40    42   ar
    83    37    39   ar
    84    69    72    1
    85    93    95   ar
    86    14    11    1
    87    14    15    1
    88    96    95   ar
    89    11    12    1
    90    12    13    2
    91    42    43   ar
    92    38    39   ar
    93    72    73    1
    94    39    41   ar
    95    17    15   ar
    96    17    19   ar
    97    74    73   ar
    98    74    76   ar
    99    15    16   ar
   100    73    75   ar
   101    76    78   ar
   102    43    41   ar
   103   133   134    1
   104    19    20   ar
   105   124   122   ar
   106    75    77   ar
   107   123   122   ar
   108    16    18   ar
   109    78    77   ar
   110   148   147    1
   111   134   135    1
   112   122   121    1
   113    20    18   ar
   114    20    21    1
   115     8     9    1
   116     8     7    1
   117   131   132    1
   118   131   130    1
   119   147   146   ar
   120   147   145   ar
   121     7     6    1
   122   135   136    2
   123     6     5    1
   124   121   118    1
   125   146   144   ar
   126     5     2    1
   127   119   120    2
   128   119   118    1
   129   117   118    1
   130   145   143   ar
   131   130   129    1
   132   129   126    1
   133   144   142   ar
   134     1     2    1
   135   128   127    2
   136     2     3    1
   137   143   142   ar
   138   142   141    1
   139   126   127    1
   140   126   125    1
   141     3     4    2
   142   137   138    1
   143   141   138    1
   144   138   139    1
   145   139   140    2
