@<TRIPOS>MOLECULE
tmp/4qaaE01.pdb
 97 95 0 0 0
SMALL
GASTEIGER

@<TRIPOS>ATOM
      1  N         14.5880   11.8910   68.4710 N.3    97  TYR97      -0.1241
      2  CA        14.3720   10.5170   68.9400 C.3    97  TYR97       0.1605
      3  C         13.1030   10.3730   69.7960 C.2    97  TYR97       0.2264
      4  O         12.3940    9.3700   69.6880 O.2    97  TYR97      -0.2867
      5  CB        15.5830   10.0000   69.7330 C.3    97  TYR97       0.0534
      6  CG        16.8760    9.9330   68.9530 C.ar   97  TYR97      -0.0201
      7  CD1       17.5010    8.7200   68.6920 C.ar   97  TYR97      -0.0009
      8  CD2       17.4790   11.0880   68.4760 C.ar   97  TYR97      -0.0009
      9  CE1       18.6930    8.6670   67.9680 C.ar   97  TYR97       0.0417
     10  CE2       18.6580   11.0490   67.7480 C.ar   97  TYR97       0.0417
     11  CZ        19.2630    9.8440   67.5020 C.ar   97  TYR97       0.1957
     12  OH        20.4320    9.8390   66.7820 O.3    97  TYR97      -0.2866
     13  N         16.3740   14.8700   72.0800 N.3   147  LYS147     -0.1245
     14  CA        17.5470   14.3680   71.3700 C.3   147  LYS147      0.1561
     15  C         17.4080   14.4280   69.8370 C.2   147  LYS147      0.2260
     16  O         16.5490   13.7580   69.2510 O.2   147  LYS147     -0.2867
     17  CB        17.8660   12.9480   71.8320 C.3   147  LYS147      0.0271
     18  CG        18.8780   12.9000   72.9500 C.3   147  LYS147      0.0035
     19  CD        19.1170   11.4670   73.4010 C.3   147  LYS147      0.0206
     20  CE        20.4200   11.3410   74.1820 C.3   147  LYS147      0.1093
     21  NZ        21.6440   11.5080   73.3290 N.3   147  LYS147     -0.1314
     22  N         21.2930   12.8820   63.1370 N.3   150  SER150     -0.1202
     23  CA        21.0450   12.3400   61.8030 C.3   150  SER150      0.2020
     24  C         20.2860   11.0370   61.9300 C.2   150  SER150      0.2619
     25  O         20.6250   10.2010   62.7530 O.2   150  SER150     -0.2717
     26  CB        22.3590   12.1190   61.0530 C.3   150  SER150      0.2103
     27  OG        22.1520   11.5380   59.7680 O.3   150  SER150     -0.2182
     28  N         19.2490   10.8720   61.1220 N.am  151  TRP151     -0.1961
     29  CA        18.4550    9.6620   61.1730 C.3   151  TRP151      0.1771
     30  C         19.0690    8.4740   60.4130 C.2   151  TRP151      0.2620
     31  O         18.8440    7.3290   60.7810 O.2   151  TRP151     -0.2715
     32  CB        17.0390    9.9300   60.6870 C.3   151  TRP151      0.0590
     33  CG        16.1530    8.7270   60.8080 C.ar  151  TRP151      0.0006
     34  CD1       15.5200    8.0810   59.7990 C.ar  151  TRP151      0.0946
     35  CD2       15.8250    8.0120   62.0140 C.ar  151  TRP151      0.0152
     36  NE1       14.8110    7.0120   60.2900 N.ar  151  TRP151     -0.2442
     37  CE2       14.9880    6.9410   61.6460 C.ar  151  TRP151      0.0810
     38  CE3       16.1550    8.1790   63.3680 C.ar  151  TRP151      0.0012
     39  CZ2       14.4620    6.0430   62.5810 C.ar  151  TRP151      0.0191
     40  CZ3       15.6380    7.2800   64.3010 C.ar  151  TRP151      0.0001
     41  CH2       14.7990    6.2280   63.9020 C.ar  151  TRP151      0.0015
     42  N         19.8360    8.7280   59.3570 N.am  152  THR152     -0.1951
     43  CA        20.3710    7.6200   58.5690 C.3   152  THR152      0.1897
     44  C         21.8910    7.6490   58.4400 C.2   152  THR152      0.2313
     45  O         22.5080    6.6360   58.1330 O.2   152  THR152     -0.2863
     46  CB        19.6630    7.4630   57.1690 C.3   152  THR152      0.1794
     47  OG1       19.9800    8.5600   56.2990 O.3   152  THR152     -0.2208
     48  CG2       18.1490    7.3900   57.3400 C.3   152  THR152      0.0378
     49  N         26.4850   14.1480   72.4640 N.3   186  ASN186     -0.1225
     50  CA        26.3090   12.8050   72.9800 C.3   186  ASN186      0.1785
     51  C         26.3960   11.8510   71.8050 C.2   186  ASN186      0.2598
     52  O         26.2260   12.2620   70.6570 O.2   186  ASN186     -0.2718
     53  CB        24.9580   12.6660   73.6800 C.3   186  ASN186      0.1169
     54  CG        24.9480   11.5570   74.7120 C.2   186  ASN186      0.2627
     55  OD1       24.7130   10.3930   74.3880 O.2   186  ASN186     -0.2716
     56  ND2       25.2050   11.9120   75.9660 N.am  186  ASN186     -0.0877
     57  N         26.6460   10.5790   72.0770 N.am  187  SER187     -0.1938
     58  CA        26.5920    9.5800   71.0090 C.3   187  SER187      0.2055
     59  C         25.7000    8.4120   71.4050 C.2   187  SER187      0.2643
     60  O         25.5640    8.0960   72.5870 O.2   187  SER187     -0.2714
     61  CB        27.9930    9.0810   70.6210 C.3   187  SER187      0.2130
     62  OG        28.6030    9.9180   69.6490 O.3   187  SER187     -0.2179
     63  N         25.0870    7.7820   70.4100 N.am  188  VAL188     -0.1963
     64  CA        24.2470    6.6160   70.6430 C.3   188  VAL188      0.1727
     65  C         24.6150    5.4690   69.6840 C.2   188  VAL188      0.2616
     66  O         24.9440    5.7000   68.5120 O.2   188  VAL188     -0.2715
     67  CB        22.7250    6.9710   70.5820 C.3   188  VAL188      0.0290
     68  CG1       22.5000    8.3980   70.0790 C.3   188  VAL188      0.0023
     69  CG2       21.9640    5.9790   69.7340 C.3   188  VAL188      0.0023
     70  N         24.5850    4.2390   70.2000 N.am  189  THR189     -0.1951
     71  CA        24.9220    3.0570   69.4090 C.3   189  THR189      0.1897
     72  C         23.9450    1.9130   69.6830 C.2   189  THR189      0.2313
     73  O         22.8110    2.1400   70.1110 O.2   189  THR189     -0.2863
     74  CB        26.3620    2.5850   69.6990 C.3   189  THR189      0.1794
     75  OG1       27.2520    3.7050   69.6560 O.3   189  THR189     -0.2208
     76  CG2       26.8070    1.5440   68.6820 C.3   189  THR189      0.0378
     77  N         25.7990    7.0960   66.1650 N.3   192  TYR192     -0.1241
     78  CA        25.1810    8.3160   65.6600 C.3   192  TYR192      0.1605
     79  C         25.4720    9.4960   66.5650 C.2   192  TYR192      0.2264
     80  O         25.3940    9.3770   67.7770 O.2   192  TYR192     -0.2867
     81  CB        23.6740    8.1170   65.5110 C.3   192  TYR192      0.0534
     82  CG        23.3460    7.0220   64.5290 C.ar  192  TYR192     -0.0201
     83  CD1       23.3520    5.6930   64.9230 C.ar  192  TYR192     -0.0009
     84  CD2       23.0720    7.3130   63.1950 C.ar  192  TYR192     -0.0009
     85  CE1       23.0790    4.6820   64.0350 C.ar  192  TYR192      0.0417
     86  CE2       22.7880    6.3010   62.2870 C.ar  192  TYR192      0.0417
     87  CZ        22.7950    4.9850   62.7180 C.ar  192  TYR192      0.1957
     88  OH        22.5210    3.9620   61.8420 O.3   192  TYR192     -0.2866
     89  N         21.8610   16.5940   72.6810 N.3   196  GLU196     -0.1245
     90  CA        20.8720   16.6450   73.7490 C.3   196  GLU196      0.1567
     91  C         20.6140   18.0980   74.1020 C.2   196  GLU196      0.2260
     92  O         21.5340   18.8370   74.4700 O.2   196  GLU196     -0.2867
     93  CB        21.3720   15.9100   74.9810 C.3   196  GLU196      0.0388
     94  CG        20.3890   14.9380   75.5580 C.3   196  GLU196      0.1160
     95  CD        20.9850   14.1890   76.7260 C.2   196  GLU196      0.3649
     96  OE1       21.6120   13.1310   76.4900 O.co2 196  GLU196     -0.2457
     97  OE2       20.8440   14.6690   77.8760 O.co2 196  GLU196     -0.2457
@<TRIPOS>BOND
     1    47    46    1
     2    46    48    1
     3    46    43    1
     4    45    44    2
     5    44    43    1
     6    43    42    1
     7    42    30   am
     8    27    26    1
     9    34    36   ar
    10    34    33   ar
    11    36    37   ar
    12    30    31    2
    13    30    29    1
    14    32    33    1
    15    32    29    1
    16    33    35   ar
    17    26    23    1
    18    28    29    1
    19    28    24   am
    20    37    35   ar
    21    37    39   ar
    22    23    24    1
    23    23    22    1
    24    88    87    1
    25    24    25    2
    26    35    38   ar
    27    86    87   ar
    28    86    84   ar
    29    39    41   ar
    30    87    85   ar
    31    84    82   ar
    32    38    40   ar
    33    41    40   ar
    34    85    83   ar
    35    82    83   ar
    36    82    81    1
    37    81    78    1
    38    78    77    1
    39    78    79    1
    40    79    80    2
    41    12    11    1
    42    11    10   ar
    43    11     9   ar
    44    10     8   ar
    45     9     7   ar
    46     1     2    1
    47     8     6   ar
    48    66    65    2
    49    76    74    1
    50     7     6   ar
    51     2     5    1
    52     2     3    1
    53     6     5    1
    54    16    15    2
    55    71    72    1
    56    71    74    1
    57    71    70    1
    58    62    61    1
    59    75    74    1
    60    72    73    2
    61    65    70   am
    62    65    64    1
    63     4     3    2
    64    69    67    1
    65    15    14    1
    66    68    67    1
    67    63    64    1
    68    63    59   am
    69    67    64    1
    70    61    58    1
    71    52    51    2
    72    58    59    1
    73    58    57    1
    74    14    17    1
    75    14    13    1
    76    59    60    2
    77    51    57   am
    78    51    50    1
    79    17    18    1
    80    49    50    1
    81    89    90    1
    82    18    19    1
    83    50    53    1
    84    21    20    1
    85    19    20    1
    86    53    54    1
    87    90    91    1
    88    90    93    1
    89    91    92    2
    90    55    54    2
    91    54    56   am
    92    93    94    1
    93    94    95    1
    94    96    95   ar
    95    95    97   ar
