@<TRIPOS>MOLECULE
tmp/4qaaE00.pdb
 145 144 0 0 0
SMALL
GASTEIGER

@<TRIPOS>ATOM
      1  N         10.7210   29.2650   71.4890 N.3    44  ILE44      -0.1231
      2  CA         9.8140   30.3790   71.2350 C.3    44  ILE44       0.1692
      3  C          8.5820   30.2980   72.1430 C.2    44  ILE44       0.2592
      4  O          8.0690   31.3230   72.6020 O.2    44  ILE44      -0.2718
      5  CB         9.3090   30.3900   69.7710 C.3    44  ILE44       0.0266
      6  CG1       10.4760   30.3500   68.7800 C.3    44  ILE44       0.0019
      7  CG2        8.4260   31.6060   69.5240 C.3    44  ILE44       0.0020
      8  CD1       11.2260   31.6570   68.6430 C.3    44  ILE44       0.0001
      9  N          8.1040   29.0830   72.4020 N.am   45  ASN45      -0.1974
     10  CA         6.8950   28.9240   73.1930 C.3    45  ASN45       0.1688
     11  C          6.6950   27.5010   73.6520 C.2    45  ASN45       0.2292
     12  O          7.2210   26.5770   73.0550 O.2    45  ASN45      -0.2864
     13  CB         5.6790   29.3660   72.3900 C.3    45  ASN45       0.1181
     14  CG         4.5910   29.9700   73.2610 C.2    45  ASN45       0.2629
     15  OD1        4.5040   29.6890   74.4650 O.2    45  ASN45      -0.2716
     16  ND2        3.7450   30.8040   72.6500 N.am   45  ASN45      -0.0877
     17  N         12.6720   27.7410   67.0900 N.3    61  TRP61      -0.1241
     18  CA        13.4110   27.9790   65.8640 C.3    61  TRP61       0.1605
     19  C         14.5970   27.0470   65.8890 C.2    61  TRP61       0.2264
     20  O         15.3900   27.0650   66.8320 O.2    61  TRP61      -0.2867
     21  CB        13.8940   29.4220   65.7820 C.3    61  TRP61       0.0550
     22  CG        12.7840   30.4120   65.5980 C.ar   61  TRP61       0.0003
     23  CD1       11.4580   30.1340   65.3660 C.ar   61  TRP61       0.0946
     24  CD2       12.8940   31.8430   65.6300 C.ar   61  TRP61       0.0152
     25  NE1       10.7360   31.3080   65.2560 N.ar   61  TRP61      -0.2442
     26  CE2       11.5910   32.3700   65.4080 C.ar   61  TRP61       0.0810
     27  CE3       13.9600   32.7330   65.8310 C.ar   61  TRP61       0.0012
     28  CZ2       11.3320   33.7440   65.3840 C.ar   61  TRP61       0.0191
     29  CZ3       13.7040   34.0970   65.7910 C.ar   61  TRP61       0.0001
     30  CH2       12.3970   34.5880   65.5730 C.ar   61  TRP61       0.0015
     31  N         17.9760   26.3540   64.5420 N.3    63  GLN63      -0.1245
     32  CA        19.0840   26.9110   63.7750 C.3    63  GLN63       0.1566
     33  C         19.9660   25.7950   63.2830 C.2    63  GLN63       0.2260
     34  O         20.4770   25.0070   64.0710 O.2    63  GLN63      -0.2867
     35  CB        19.9130   27.8950   64.5880 C.3    63  GLN63       0.0367
     36  CG        19.5860   29.3450   64.3080 C.3    63  GLN63       0.0905
     37  CD        20.8280   30.2260   64.2190 C.2    63  GLN63       0.2608
     38  OE1       21.8310   29.9800   64.8970 O.2    63  GLN63      -0.2717
     39  NE2       20.7670   31.2550   63.3700 N.am   63  GLN63      -0.0878
     40  N         12.8310   28.2090   52.9730 N.3   110  LEU110     -0.1245
     41  CA        13.9710   28.7190   52.2150 C.3   110  LEU110      0.1561
     42  C         15.2670   28.5600   53.0140 C.2   110  LEU110      0.2260
     43  O         15.2610   28.6130   54.2310 O.2   110  LEU110     -0.2867
     44  CB        13.7710   30.2050   51.9280 C.3   110  LEU110      0.0270
     45  CG        12.4830   30.6030   51.1990 C.3   110  LEU110      0.0019
     46  CD1       12.4780   32.0850   50.9650 C.3   110  LEU110      0.0001
     47  CD2       12.3610   29.8870   49.8670 C.3   110  LEU110      0.0001
     48  N         19.3860   30.0850   53.3070 N.3   112  ARG112     -0.1245
     49  CA        20.2340   31.1570   52.7940 C.3   112  ARG112      0.1563
     50  C         21.5360   30.4980   52.3960 C.2   112  ARG112      0.2260
     51  O         21.9920   29.5760   53.0570 O.2   112  ARG112     -0.2867
     52  CB        20.4650   32.2520   53.8420 C.3   112  ARG112      0.0307
     53  CG        19.1880   32.9300   54.3200 C.3   112  ARG112      0.0489
     54  CD        18.6670   33.9520   53.3140 C.3   112  ARG112      0.2205
     55  NE        19.6090   35.0480   53.1040 N.pl3 112  ARG112     -0.0865
     56  CZ        19.3730   36.0960   52.3140 C.cat 112  ARG112      0.5346
     57  NH1       18.2260   36.1890   51.6520 N.pl3 112  ARG112      0.1354
     58  NH2       20.2820   37.0500   52.1760 N.pl3 112  ARG112      0.1354
     59  N         22.5680   28.2940   55.6880 N.3   120  LEU120     -0.1231
     60  CA        21.8150   28.4420   56.9310 C.3   120  LEU120      0.1693
     61  C         20.3480   28.1290   56.6640 C.2   120  LEU120      0.2592
     62  O         19.7340   28.7520   55.8140 O.2   120  LEU120     -0.2718
     63  CB        21.9710   29.8620   57.4870 C.3   120  LEU120      0.0284
     64  CG        23.3480   30.4910   57.2030 C.3   120  LEU120      0.0019
     65  CD1       23.3260   31.3780   55.9510 C.3   120  LEU120      0.0001
     66  CD2       23.8980   31.2610   58.4050 C.3   120  LEU120      0.0001
     67  N         19.8020   27.1400   57.3620 N.am  121  TYR121     -0.1962
     68  CA        18.3650   26.8460   57.3140 C.3   121  TYR121      0.1771
     69  C         17.7760   26.8450   58.7250 C.2   121  TYR121      0.2619
     70  O         18.1570   26.0230   59.5530 O.2   121  TYR121     -0.2715
     71  CB        18.1200   25.4900   56.6610 C.3   121  TYR121      0.0574
     72  CG        16.6700   25.0720   56.6360 C.ar  121  TYR121     -0.0198
     73  CD1       15.6950   25.9100   56.1010 C.ar  121  TYR121     -0.0009
     74  CD2       16.2740   23.8260   57.1220 C.ar  121  TYR121     -0.0009
     75  CE1       14.3750   25.5350   56.0670 C.ar  121  TYR121      0.0417
     76  CE2       14.9420   23.4400   57.0950 C.ar  121  TYR121      0.0417
     77  CZ        13.9980   24.3010   56.5670 C.ar  121  TYR121      0.1957
     78  OH        12.6640   23.9240   56.5240 O.3   121  TYR121     -0.2866
     79  N         16.8520   27.7640   58.9930 N.am  122  MET122     -0.1977
     80  CA        16.2980   27.9370   60.3360 C.3   122  MET122      0.1605
     81  C         14.7680   27.9580   60.3400 C.2   122  MET122      0.2287
     82  O         14.1610   29.0240   60.4500 O.2   122  MET122     -0.2864
     83  CB        16.8270   29.2360   60.9550 C.3   122  MET122      0.0413
     84  CG        16.5150   29.3890   62.4570 C.3   122  MET122      0.0598
     85  SD        16.8190   31.0310   63.1820 S.3   122  MET122     -0.1393
     86  CE        15.2510   31.8350   62.9060 C.3   122  MET122      0.0692
     87  N         15.8580   35.8910   74.6660 N.3   168  GLU168     -0.1231
     88  CA        15.7030   36.7140   73.4770 C.3   168  GLU168      0.1699
     89  C         14.4180   36.4350   72.7200 C.2   168  GLU168      0.2592
     90  O         13.7030   37.3530   72.3250 O.2   168  GLU168     -0.2718
     91  CB        16.8800   36.4730   72.5430 C.3   168  GLU168      0.0402
     92  CG        18.0780   37.3370   72.8270 C.3   168  GLU168      0.1161
     93  CD        18.1770   38.4940   71.8650 C.2   168  GLU168      0.3649
     94  OE1       19.2840   38.7120   71.3250 O.co2 168  GLU168     -0.2457
     95  OE2       17.1490   39.1770   71.6510 O.co2 168  GLU168     -0.2457
     96  N         14.1320   35.1590   72.5180 N.am  169  TYR169     -0.1962
     97  CA        13.1450   34.7710   71.5300 C.3   169  TYR169      0.1771
     98  C         11.8570   34.2650   72.1730 C.2   169  TYR169      0.2620
     99  O         10.8110   34.1880   71.5150 O.2   169  TYR169     -0.2715
    100  CB        13.7290   33.6930   70.6040 C.3   169  TYR169      0.0574
    101  CG        15.1650   33.9330   70.1430 C.ar  169  TYR169     -0.0198
    102  CD1       15.4390   34.6750   69.0030 C.ar  169  TYR169     -0.0009
    103  CD2       16.2440   33.3900   70.8340 C.ar  169  TYR169     -0.0009
    104  CE1       16.7420   34.8900   68.5720 C.ar  169  TYR169      0.0417
    105  CE2       17.5550   33.6020   70.4040 C.ar  169  TYR169      0.0417
    106  CZ        17.7920   34.3550   69.2720 C.ar  169  TYR169      0.1957
    107  OH        19.0820   34.5740   68.8400 O.3   169  TYR169     -0.2866
    108  N         11.9330   33.9350   73.4600 N.am  170  PHE170     -0.1960
    109  CA        10.8420   33.2380   74.1350 C.3   170  PHE170      0.1771
    110  C          9.6410   34.1280   74.4400 C.2   170  PHE170      0.2620
    111  O          9.8010   35.2900   74.8160 O.2   170  PHE170     -0.2715
    112  CB        11.3380   32.5620   75.4040 C.3   170  PHE170      0.0574
    113  CG        10.4190   31.5030   75.9080 C.ar  170  PHE170     -0.0200
    114  CD1       10.4290   30.2400   75.3420 C.ar  170  PHE170     -0.0042
    115  CD2        9.5340   31.7680   76.9340 C.ar  170  PHE170     -0.0042
    116  CE1        9.5690   29.2410   75.8060 C.ar  170  PHE170     -0.0003
    117  CE2        8.6690   30.7820   77.4100 C.ar  170  PHE170     -0.0003
    118  CZ         8.6840   29.5150   76.8450 C.ar  170  PHE170     -0.0000
    119  N          8.4430   33.5660   74.2820 N.am  171  SER171     -0.1936
    120  CA         7.1960   34.3250   74.3830 C.3   171  SER171      0.2055
    121  C          6.8590   34.7790   75.8050 C.2   171  SER171      0.2643
    122  O          6.7710   33.9680   76.7330 O.2   171  SER171     -0.2714
    123  CB         6.0240   33.5080   73.8250 C.3   171  SER171      0.2130
    124  OG         4.8600   34.3060   73.6670 O.3   171  SER171     -0.2179
    125  N          6.6390   36.0790   75.9600 N.am  172  GLN172     -0.1963
    126  CA         6.2380   36.6400   77.2400 C.3   172  GLN172      0.1733
    127  C          4.8180   36.2000   77.6180 C.2   172  GLN172      0.2616
    128  O          4.3970   36.3280   78.7620 O.2   172  GLN172     -0.2715
    129  CB         6.3210   38.1600   77.1710 C.3   172  GLN172      0.0408
    130  CG         5.4060   38.7570   76.1230 C.3   172  GLN172      0.0908
    131  CD         5.9650   40.0300   75.4990 C.2   172  GLN172      0.2608
    132  OE1        5.8690   41.1150   76.0780 O.2   172  GLN172     -0.2717
    133  NE2        6.5490   39.9010   74.3050 N.am  172  GLN172     -0.0878
    134  N          4.0910   35.6580   76.6530 N.am  173  TYR173     -0.1974
    135  CA         2.6940   35.3170   76.8510 C.3   173  TYR173      0.1639
    136  C          2.4970   33.8350   77.1360 C.2   173  TYR173      0.2290
    137  O          1.3730   33.3650   77.3190 O.2   173  TYR173     -0.2864
    138  CB         1.8920   35.7310   75.6210 C.3   173  TYR173      0.0560
    139  CG         2.0480   37.1950   75.3010 C.ar  173  TYR173     -0.0198
    140  CD1        1.8790   38.1660   76.2890 C.ar  173  TYR173     -0.0009
    141  CD2        2.3930   37.6060   74.0270 C.ar  173  TYR173     -0.0009
    142  CE1        2.0290   39.5100   75.9990 C.ar  173  TYR173      0.0417
    143  CE2        2.5510   38.9380   73.7240 C.ar  173  TYR173      0.0417
    144  CZ         2.3690   39.8890   74.7070 C.ar  173  TYR173      0.1957
    145  OH         2.5270   41.2180   74.3810 O.3   173  TYR173     -0.2866
@<TRIPOS>BOND
     1    47    45    1
     2    46    45    1
     3    45    44    1
     4    57    56    1
     5    44    41    1
     6    58    56    1
     7    41    40    1
     8    41    42    1
     9    56    55    2
    10    50    49    1
    11    50    51    2
    12    49    48    1
    13    49    52    1
    14    42    43    2
    15    55    54    1
    16    54    53    1
    17    52    53    1
    18    59    60    1
    19    62    61    2
    20    65    64    1
    21    75    73   ar
    22    75    77   ar
    23    73    72   ar
    24    78    77    1
    25    77    76   ar
    26    72    71    1
    27    72    74   ar
    28    71    68    1
    29    61    60    1
    30    61    67   am
    31    60    63    1
    32    76    74   ar
    33    64    63    1
    34    64    66    1
    35    68    67    1
    36    68    69    1
    37    69    79   am
    38    69    70    2
    39    79    80    1
    40    80    81    1
    41    80    83    1
    42    81    82    2
    43    83    84    1
    44    84    85    1
    45    86    85    1
    46    33    32    1
    47    33    34    2
    48    39    37   am
    49    32    31    1
    50    32    35    1
    51    37    36    1
    52    37    38    2
    53    36    35    1
    54    25    23   ar
    55    25    26   ar
    56    23    22   ar
    57    28    26   ar
    58    28    30   ar
    59    26    24   ar
    60    30    29   ar
    61    22    24   ar
    62    22    21    1
    63    24    27   ar
    64    21    18    1
    65    29    27   ar
    66    18    19    1
    67    18    17    1
    68    19    20    2
    69   104   102   ar
    70   104   106   ar
    71     8     6    1
    72     6     5    1
    73   107   106    1
    74   102   101   ar
    75   106   105   ar
    76     7     5    1
    77     5     2    1
    78   101   100    1
    79   101   103   ar
    80   105   103   ar
    81   100    97    1
    82     2     1    1
    83     2     3    1
    84    94    93   ar
    85    99    98    2
    86    97    98    1
    87    97    96    1
    88    95    93   ar
    89    93    92    1
    90     3     9   am
    91     3     4    2
    92    98   108   am
    93    90    89    2
    94    13    10    1
    95    13    14    1
    96     9    10    1
    97    96    89   am
    98    91    92    1
    99    91    88    1
   100    16    14   am
   101    89    88    1
   102    12    11    2
   103    10    11    1
   104    14    15    2
   105   108   109    1
   106    88    87    1
   107   124   123    1
   108   143   141   ar
   109   143   144   ar
   110   123   120    1
   111   141   139   ar
   112   109   110    1
   113   109   112    1
   114   119   120    1
   115   119   110   am
   116   133   131   am
   117   145   144    1
   118   120   121    1
   119   110   111    2
   120   144   142   ar
   121   139   138    1
   122   139   140   ar
   123   114   116   ar
   124   114   113   ar
   125   112   113    1
   126   131   132    2
   127   131   130    1
   128   138   135    1
   129   121   125   am
   130   121   122    2
   131   116   118   ar
   132   113   115   ar
   133   125   126    1
   134   142   140   ar
   135   130   129    1
   136   134   135    1
   137   134   127   am
   138   118   117   ar
   139   135   136    1
   140   115   117   ar
   141   136   137    2
   142   129   126    1
   143   126   127    1
   144   127   128    2
