@<TRIPOS>MOLECULE
tmp/4qaeK00.pdb
 76 74 0 0 0
SMALL
GASTEIGER

@<TRIPOS>ATOM
      1  N         93.4310   26.2010  -19.1970 N.3    47  LYS47      -0.1245
      2  CA        92.7450   25.9220  -17.9550 C.3    47  LYS47       0.1561
      3  C         91.2290   25.7960  -18.1680 C.2    47  LYS47       0.2260
      4  O         90.6470   26.3930  -19.0810 O.2    47  LYS47      -0.2867
      5  CB        93.0420   27.0360  -16.9400 C.3    47  LYS47       0.0271
      6  CG        94.5270   27.2200  -16.6740 C.3    47  LYS47       0.0035
      7  CD        94.7180   28.3080  -15.6230 C.3    47  LYS47       0.0206
      8  CE        96.1710   28.5420  -15.2990 C.3    47  LYS47       0.1093
      9  NZ        96.7470   29.2530  -16.4230 N.3    47  LYS47      -0.1314
     10  N         89.2220   31.8330  -16.3990 N.3    68  PRO68      -0.2102
     11  CA        90.2870   32.1250  -15.4520 C.3    68  PRO68       0.1504
     12  C         91.4910   32.7430  -16.1200 C.2    68  PRO68       0.2576
     13  O         92.1230   32.1120  -16.9540 O.2    68  PRO68      -0.2718
     14  CB        90.5960   30.7380  -14.8780 C.3    68  PRO68       0.0282
     15  CG        90.3300   29.8080  -16.0530 C.3    68  PRO68       0.0208
     16  CD        89.1400   30.3900  -16.7490 C.3    68  PRO68       0.0893
     17  N         91.8300   33.9720  -15.7590 N.am   69  LEU69      -0.1966
     18  CA        93.0050   34.6540  -16.2560 C.3    69  LEU69       0.1728
     19  C         94.0060   34.7810  -15.1190 C.2    69  LEU69       0.2616
     20  O         93.6680   34.5470  -13.9400 O.2    69  LEU69      -0.2715
     21  CB        92.6390   36.0510  -16.8110 C.3    69  LEU69       0.0311
     22  CG        91.5890   36.1090  -17.9310 C.3    69  LEU69       0.0022
     23  CD1       91.5020   37.4840  -18.5770 C.3    69  LEU69       0.0001
     24  CD2       91.8670   35.0650  -18.9940 C.3    69  LEU69       0.0001
     25  N         95.2400   35.1730  -15.4460 N.am   70  ALA70      -0.1963
     26  CA        96.3190   35.2230  -14.4440 C.3    70  ALA70       0.1728
     27  C         95.9620   36.1720  -13.3250 C.2    70  ALA70       0.2616
     28  O         96.2110   35.8740  -12.1870 O.2    70  ALA70      -0.2715
     29  CB        97.6630   35.6460  -15.0850 C.3    70  ALA70       0.0334
     30  N         95.3210   37.2900  -13.6300 N.am   71  GLU71      -0.1963
     31  CA        95.1080   38.3270  -12.6040 C.3    71  GLU71       0.1733
     32  C         93.6280   38.6070  -12.2510 C.2    71  GLU71       0.2616
     33  O         93.3790   39.4690  -11.4530 O.2    71  GLU71      -0.2715
     34  CB        95.7600   39.6250  -13.0300 C.3    71  GLU71       0.0429
     35  CG        97.2230   39.4520  -13.4670 C.3    71  GLU71       0.1163
     36  CD        97.7050   40.5000  -14.4700 C.2    71  GLU71       0.3649
     37  OE1       97.2720   40.5780  -15.6910 O.co2  71  GLU71      -0.2457
     38  OE2       98.5690   41.2290  -14.0290 O.co2  71  GLU71      -0.2457
     39  N         92.6770   37.8740  -12.8410 N.am   72  LYS72      -0.1963
     40  CA        91.2810   38.1680  -12.6470 C.3    72  LYS72       0.1728
     41  C         90.4410   37.0470  -13.2180 C.2    72  LYS72       0.2616
     42  O         90.9610   36.1790  -13.9440 O.2    72  LYS72      -0.2715
     43  CB        90.9520   39.4780  -13.3610 C.3    72  LYS72       0.0311
     44  CG        91.0000   39.3330  -14.8690 C.3    72  LYS72       0.0038
     45  CD        90.9260   40.6680  -15.5710 C.3    72  LYS72       0.0206
     46  CE        89.4990   41.1350  -15.5670 C.3    72  LYS72       0.1093
     47  NZ        89.3770   42.5680  -15.9500 N.3    72  LYS72      -0.1314
     48  N         89.1390   37.0670  -12.9080 N.am   73  CYS73      -0.1968
     49  CA        88.1810   36.2010  -13.5770 C.3    73  CYS73       0.1712
     50  C         87.5430   37.0210  -14.6750 C.2    73  CYS73       0.2296
     51  O         87.1780   38.1780  -14.4680 O.2    73  CYS73      -0.2864
     52  CB        87.1280   35.6940  -12.6060 C.3    73  CYS73       0.0983
     53  SG        87.7710   34.6900  -11.2710 S.3    73  CYS73      -0.0798
     54  N         90.5340   23.3100  -12.4250 N.3   161  ILE161     -0.1245
     55  CA        90.9250   24.2730  -11.4050 C.3   161  ILE161      0.1561
     56  C         89.6690   24.5920  -10.5880 C.2   161  ILE161      0.2260
     57  O         88.5550   24.2130  -10.9940 O.2   161  ILE161     -0.2867
     58  CB        91.4360   25.5960  -12.0260 C.3   161  ILE161      0.0252
     59  CG1       90.3570   26.1550  -12.9800 C.3   161  ILE161      0.0019
     60  CG2       92.7530   25.3670  -12.7760 C.3   161  ILE161      0.0019
     61  CD1       90.5880   27.6090  -13.3330 C.3   161  ILE161      0.0001
     62  N         89.5550   28.0070   -9.1840 N.3   163  GLN163     -0.1231
     63  CA        89.4170   29.4430   -9.1960 C.3   163  GLN163      0.1698
     64  C         88.5170   29.9130  -10.3520 C.2   163  GLN163      0.2592
     65  O         88.5560   29.3330  -11.4310 O.2   163  GLN163     -0.2718
     66  CB        90.8020   30.1080   -9.1580 C.3   163  GLN163      0.0381
     67  CG        91.6380   29.7670   -7.8950 C.3   163  GLN163      0.0905
     68  CD        90.9920   30.1090   -6.5770 C.2   163  GLN163      0.2608
     69  OE1       90.3650   31.1470   -6.4090 O.2   163  GLN163     -0.2717
     70  NE2       91.1710   29.2390   -5.6050 N.am  163  GLN163     -0.0878
     71  N         87.6680   30.9150  -10.0810 N.am  164  CYS164     -0.1970
     72  CA        86.7170   31.5130  -11.0670 C.3   164  CYS164      0.1712
     73  C         85.4980   30.6770  -11.4120 C.2   164  CYS164      0.2296
     74  O         84.3790   31.1730  -11.4380 O.2   164  CYS164     -0.2864
     75  CB        87.4250   31.8990  -12.4070 C.3   164  CYS164      0.0983
     76  SG        88.7210   33.1090  -12.1570 S.3   164  CYS164     -0.0798
@<TRIPOS>BOND
     1     1     2    1
     2     4     3    2
     3    24    22    1
     4    23    22    1
     5     3     2    1
     6     2     5    1
     7    22    21    1
     8    13    12    2
     9     5     6    1
    10    21    18    1
    11    16    10    1
    12    16    15    1
    13     6     7    1
    14     9     8    1
    15    10    11    1
    16    18    17    1
    17    18    19    1
    18    12    17   am
    19    12    11    1
    20    15    14    1
    21    47    46    1
    22    37    36   ar
    23     7     8    1
    24    45    46    1
    25    45    44    1
    26    11    14    1
    27    25    19   am
    28    25    26    1
    29    19    20    2
    30    29    26    1
    31    44    43    1
    32    50    51    2
    33    50    49    1
    34    36    38   ar
    35    36    35    1
    36    26    27    1
    37    42    41    2
    38    30    27   am
    39    30    31    1
    40    49    48    1
    41    49    52    1
    42    35    34    1
    43    43    40    1
    44    61    59    1
    45    27    28    2
    46    41    48   am
    47    41    40    1
    48    34    31    1
    49    59    58    1
    50    39    40    1
    51    39    32   am
    52    60    58    1
    53    52    53    1
    54    31    32    1
    55    54    55    1
    56    75    76    1
    57    75    72    1
    58    32    33    2
    59    76    53    1
    60    58    55    1
    61    74    73    2
    62    65    64    2
    63    73    72    1
    64    55    56    1
    65    72    71    1
    66    57    56    2
    67    64    71   am
    68    64    63    1
    69    63    62    1
    70    63    66    1
    71    66    67    1
    72    67    68    1
    73    68    69    2
    74    68    70   am
