@<TRIPOS>MOLECULE
tmp/4qafA00.pdb
 201 181 0 0 0
SMALL
GASTEIGER

@<TRIPOS>ATOM
      1  N         20.9340   49.6650   -6.8990 N.3     6  VAL6       -0.1245
      2  CA        20.4460   50.8580   -6.1620 C.3     6  VAL6        0.1561
      3  C         19.9540   50.4430   -4.7720 C.2     6  VAL6        0.2260
      4  O         20.1340   51.1760   -3.7940 O.2     6  VAL6       -0.2867
      5  CB        19.3750   51.5180   -6.9970 C.3     6  VAL6        0.0252
      6  CG1       18.6340   52.6000   -6.2320 C.3     6  VAL6        0.0019
      7  CG2       20.0170   52.0900   -8.2590 C.3     6  VAL6        0.0019
      8  N         23.2790   60.3460    2.8950 N.3    12  LEU12      -0.1245
      9  CA        23.1070   61.5900    2.2150 C.3    12  LEU12       0.1561
     10  C         24.3800   62.4070    2.2830 C.2    12  LEU12       0.2260
     11  O         24.9660   62.5610    3.3710 O.2    12  LEU12      -0.2867
     12  CB        22.0870   62.3890    2.9550 C.3    12  LEU12       0.0270
     13  CG        20.6920   62.0890    2.5980 C.3    12  LEU12       0.0019
     14  CD1       19.8230   62.8920    3.5770 C.3    12  LEU12       0.0001
     15  CD2       20.3870   62.4970    1.1130 C.3    12  LEU12       0.0001
     16  N         21.6710   67.5480   -0.4300 N.3    15  MET15      -0.1245
     17  CA        20.2770   67.5160   -0.8410 C.3    15  MET15       0.1570
     18  C         19.8880   68.9620   -1.1100 C.2    15  MET15       0.2261
     19  O         20.4760   69.8680   -0.4860 O.2    15  MET15      -0.2867
     20  CB        19.4150   66.9670    0.2810 C.3    15  MET15       0.0387
     21  CG        18.2480   66.1630   -0.2010 C.3    15  MET15       0.0595
     22  SD        17.2080   65.6700    1.1630 S.3    15  MET15      -0.1393
     23  CE        18.2560   65.8590    2.5900 C.3    15  MET15       0.0692
     24  N         16.9650   70.6230   -0.7160 N.3    17  VAL17      -0.1231
     25  CA        15.9150   71.1540    0.1140 C.3    17  VAL17       0.1692
     26  C         16.4090   71.1900    1.5470 C.2    17  VAL17       0.2592
     27  O         17.2810   70.4220    1.9380 O.2    17  VAL17      -0.2718
     28  CB        14.6600   70.2820    0.0560 C.3    17  VAL17       0.0266
     29  CG1       13.8990   70.5350   -1.2500 C.3    17  VAL17       0.0020
     30  CG2       15.0610   68.8160    0.2300 C.3    17  VAL17       0.0020
     31  N         15.8340   72.1010    2.3160 N.am   18  ASP18      -0.1960
     32  CA        16.1880   72.2950    3.6860 C.3    18  ASP18       0.1840
     33  C         15.5170   71.2040    4.5030 C.2    18  ASP18       0.2621
     34  O         14.2900   71.0970    4.5390 O.2    18  ASP18      -0.2715
     35  CB        15.6900   73.6800    4.1130 C.3    18  ASP18       0.1450
     36  CG        15.6620   73.8530    5.5950 C.2    18  ASP18       0.3671
     37  OD1       16.6500   73.4800    6.2980 O.co2  18  ASP18      -0.2456
     38  OD2       14.6210   74.3670    6.0490 O.co2  18  ASP18      -0.2456
     39  N         16.3050   70.3900    5.1540 N.am   19  VAL19      -0.1977
     40  CA        15.6860   69.3410    5.9520 C.3    19  VAL19       0.1596
     41  C         15.9630   69.6200    7.4170 C.2    19  VAL19       0.2287
     42  O         16.0920   68.6970    8.2170 O.2    19  VAL19      -0.2864
     43  CB        16.0530   67.9060    5.4910 C.3    19  VAL19       0.0276
     44  CG1       15.3500   67.5770    4.1780 C.3    19  VAL19       0.0022
     45  CG2       17.5640   67.7280    5.3860 C.3    19  VAL19       0.0022
     46  N         14.2100   67.8660   10.3390 N.3    22  LEU22      -0.1245
     47  CA        13.7340   66.5520    9.9060 C.3    22  LEU22       0.1561
     48  C         14.5850   65.4250   10.4580 C.2    22  LEU22       0.2260
     49  O         15.7990   65.5300   10.5360 O.2    22  LEU22      -0.2867
     50  CB        13.5780   66.5040    8.3920 C.3    22  LEU22       0.0270
     51  CG        12.5570   67.4330    7.7180 C.3    22  LEU22       0.0019
     52  CD1       12.3820   66.9730    6.2820 C.3    22  LEU22       0.0001
     53  CD2       11.1700   67.5170    8.3650 C.3    22  LEU22       0.0001
     54  N         13.0450   60.5700    6.8800 N.3    25  LEU25      -0.1245
     55  CA        12.8070   60.8220    5.4460 C.3    25  LEU25       0.1561
     56  C         12.4530   59.4530    4.8870 C.2    25  LEU25       0.2260
     57  O         13.2020   58.5050    5.1090 O.2    25  LEU25      -0.2867
     58  CB        14.1300   61.2780    4.8130 C.3    25  LEU25       0.0270
     59  CG        14.7090   62.6550    5.1760 C.3    25  LEU25       0.0019
     60  CD1       15.7100   62.9200    4.0430 C.3    25  LEU25       0.0001
     61  CD2       13.6030   63.7150    5.2120 C.3    25  LEU25       0.0001
     62  N          8.8470   55.8070   -4.3490 N.3    29  VAL29      -0.1245
     63  CA         9.0340   56.7340   -5.4930 C.3    29  VAL29       0.1561
     64  C          9.5760   55.9990   -6.6860 C.2    29  VAL29       0.2260
     65  O         10.2660   54.9820   -6.5240 O.2    29  VAL29      -0.2867
     66  CB        10.0130   57.8900   -5.1540 C.3    29  VAL29       0.0252
     67  CG1        9.4040   58.7330   -4.0440 C.3    29  VAL29       0.0019
     68  CG2       11.3500   57.3380   -4.7000 C.3    29  VAL29       0.0019
     69  N         11.9750   57.5290   -9.2670 N.3    31  PRO31      -0.2116
     70  CA        12.7390   58.7220   -9.4170 C.3    31  PRO31       0.1372
     71  C         12.5930   59.3350  -10.8020 C.2    31  PRO31       0.2244
     72  O         12.5250   58.6190  -11.8210 O.2    31  PRO31      -0.2868
     73  CB        14.1960   58.2420   -9.2710 C.3    31  PRO31       0.0268
     74  CG        14.0560   56.9810   -8.5130 C.3    31  PRO31       0.0207
     75  CD        12.7990   56.3530   -8.9130 C.3    31  PRO31       0.0892
     76  N         17.9790   59.1910  -12.1450 N.3    34  LEU34      -0.1245
     77  CA        18.8830   58.5430  -11.2270 C.3    34  LEU34       0.1561
     78  C         20.1880   58.5060  -12.0640 C.2    34  LEU34       0.2260
     79  O         20.2060   58.0910  -13.2400 O.2    34  LEU34      -0.2867
     80  CB        18.3480   57.1360  -10.9290 C.3    34  LEU34       0.0270
     81  CG        18.9010   56.2720   -9.7960 C.3    34  LEU34       0.0019
     82  CD1       19.0110   57.1350   -8.5330 C.3    34  LEU34       0.0001
     83  CD2       17.9540   55.0560   -9.5550 C.3    34  LEU34       0.0001
     84  N         25.4810   58.0590   -6.0240 N.3    42  LEU42      -0.1245
     85  CA        24.2550   58.0910   -6.7940 C.3    42  LEU42       0.1561
     86  C         23.6190   59.4550   -6.6120 C.2    42  LEU42       0.2260
     87  O         23.5610   59.9830   -5.4790 O.2    42  LEU42      -0.2867
     88  CB        23.3500   57.0490   -6.1760 C.3    42  LEU42       0.0270
     89  CG        21.9940   56.8060   -6.7640 C.3    42  LEU42       0.0019
     90  CD1       22.1130   56.2850   -8.1980 C.3    42  LEU42       0.0001
     91  CD2       21.3470   55.7550   -5.8730 C.3    42  LEU42       0.0001
     92  N         19.9200   61.3790   -7.1190 N.3    44  ALA44      -0.1245
     93  CA        18.4830   61.0770   -7.3720 C.3    44  ALA44       0.1562
     94  C         17.8040   62.3930   -7.5110 C.2    44  ALA44       0.2260
     95  O         18.0410   63.2730   -6.7070 O.2    44  ALA44      -0.2867
     96  CB        17.8580   60.3380   -6.1720 C.3    44  ALA44       0.0290
     97  N         13.8250   63.7500   -7.5640 N.3    46  VAL46      -0.1245
     98  CA        12.4740   63.2690   -7.2800 C.3    46  VAL46       0.1561
     99  C         11.6020   64.5250   -7.3010 C.2    46  VAL46       0.2260
    100  O         12.0090   65.5690   -6.8130 O.2    46  VAL46      -0.2867
    101  CB        12.3000   62.5910   -5.8920 C.3    46  VAL46       0.0252
    102  CG1       12.9480   61.1870   -5.8500 C.3    46  VAL46       0.0019
    103  CG2       12.8390   63.4660   -4.7580 C.3    46  VAL46       0.0019
    104  N          8.5250   66.4130   -6.2000 N.3    48  MET48      -0.1245
    105  CA         7.5900   66.4020   -5.0570 C.3    48  MET48       0.1570
    106  C          6.9110   67.7640   -4.8160 C.2    48  MET48       0.2261
    107  O          6.9720   68.6430   -5.6690 O.2    48  MET48      -0.2867
    108  CB         8.3400   65.9940   -3.7810 C.3    48  MET48       0.0387
    109  CG         9.3690   67.0160   -3.3150 C.3    48  MET48       0.0595
    110  SD         9.8870   66.8890   -1.5920 S.3    48  MET48      -0.1393
    111  CE         8.3920   67.3260   -0.7000 C.3    48  MET48       0.0692
    112  N          6.5960   70.6520   -1.8080 N.3    50  ILE50      -0.1231
    113  CA         6.9510   71.2850   -0.5140 C.3    50  ILE50       0.1692
    114  C          5.9860   72.4060   -0.1250 C.2    50  ILE50       0.2591
    115  O          5.6500   73.2550   -0.9550 O.2    50  ILE50      -0.2718
    116  CB         8.3820   71.8940   -0.5080 C.3    50  ILE50       0.0266
    117  CG1        9.4330   70.8860   -0.9730 C.3    50  ILE50       0.0019
    118  CG2        8.7400   72.4540    0.8680 C.3    50  ILE50       0.0020
    119  CD1        9.9000   71.1180   -2.3890 C.3    50  ILE50       0.0001
    120  N          5.5620   72.4030    1.1420 N.am   51  LYS51      -0.1980
    121  CA         4.7140   73.4580    1.7280 C.3    51  LYS51       0.1596
    122  C          3.6820   74.0890    0.7640 C.2    51  LYS51       0.2287
    123  O          3.4020   75.2910    0.8490 O.2    51  LYS51      -0.2864
    124  CB         5.5880   74.5410    2.3990 C.3    51  LYS51       0.0298
    125  CG         6.4510   74.0600    3.5650 C.3    51  LYS51       0.0038
    126  CD         5.6560   73.1800    4.5190 C.3    51  LYS51       0.0206
    127  CE         6.0710   73.3910    5.9610 C.3    51  LYS51       0.1093
    128  NZ         4.9930   72.9010    6.8610 N.3    51  LYS51      -0.1314
    129  N         13.5320   67.8730   -6.1650 N.3    57  VAL57      -0.1245
    130  CA        14.5510   67.8170   -5.1710 C.3    57  VAL57       0.1561
    131  C         15.6310   66.8720   -5.6880 C.2    57  VAL57       0.2260
    132  O         15.2800   65.8250   -6.2400 O.2    57  VAL57      -0.2867
    133  CB        13.9860   67.1960   -3.8910 C.3    57  VAL57       0.0252
    134  CG1       15.0630   67.1730   -2.8150 C.3    57  VAL57       0.0019
    135  CG2       12.7760   67.9880   -3.4270 C.3    57  VAL57       0.0019
    136  N         19.1910   64.7030   -4.5590 N.3    59  ALA59      -0.1245
    137  CA        20.0000   64.3030   -3.4300 C.3    59  ALA59       0.1562
    138  C         21.1980   63.5600   -3.9870 C.2    59  ALA59       0.2260
    139  O         21.0420   62.8450   -5.0060 O.2    59  ALA59      -0.2867
    140  CB        19.1540   63.3950   -2.5350 C.3    59  ALA59       0.0290
    141  N         23.8730   60.5820   -2.8530 N.3    61  LEU61      -0.1245
    142  CA        23.9270   59.5460   -1.8500 C.3    61  LEU61       0.1561
    143  C         25.2610   58.8300   -2.0490 C.2    61  LEU61       0.2260
    144  O         25.6810   58.5680   -3.2090 O.2    61  LEU61      -0.2867
    145  CB        22.8120   58.5230   -2.0450 C.3    61  LEU61       0.0270
    146  CG        21.3630   59.1450   -2.0080 C.3    61  LEU61       0.0019
    147  CD1       20.4110   58.0600   -2.5100 C.3    61  LEU61       0.0001
    148  CD2       21.0350   59.3600   -0.5780 C.3    61  LEU61       0.0001
    149  N         20.0990   55.8520    4.8180 N.3    76  ILE76      -0.1245
    150  CA        18.8950   55.6860    4.0180 C.3    76  ILE76       0.1561
    151  C         18.8740   54.2460    3.4960 C.2    76  ILE76       0.2260
    152  O         19.7700   53.8580    2.7360 O.2    76  ILE76      -0.2867
    153  CB        18.8200   56.6300    2.8140 C.3    76  ILE76       0.0252
    154  CG1       19.1490   58.1360    3.1160 C.3    76  ILE76       0.0019
    155  CG2       17.4940   56.4740    2.0470 C.3    76  ILE76       0.0019
    156  CD1       18.1930   58.8570    4.0270 C.3    76  ILE76       0.0001
    157  N         17.2310   51.5150    1.1320 N.3    78  VAL78      -0.1245
    158  CA        16.4930   51.5860   -0.1630 C.3    78  VAL78       0.1561
    159  C         16.2340   50.1850   -0.6450 C.2    78  VAL78       0.2260
    160  O         17.1300   49.3640   -0.6730 O.2    78  VAL78      -0.2867
    161  CB        17.3390   52.2950   -1.2600 C.3    78  VAL78       0.0252
    162  CG1       16.6240   52.3810   -2.6190 C.3    78  VAL78       0.0019
    163  CG2       17.6730   53.7060   -0.8050 C.3    78  VAL78       0.0019
    164  N         10.9950   52.3530   -6.0240 N.3    90  TYR90      -0.1241
    165  CA        11.7340   52.0680   -4.7890 C.3    90  TYR90       0.1605
    166  C         10.9790   52.4600   -3.5460 C.2    90  TYR90       0.2264
    167  O         10.2030   53.4120   -3.5500 O.2    90  TYR90      -0.2867
    168  CB        13.0380   52.9060   -4.7830 C.3    90  TYR90       0.0534
    169  CG        13.9810   52.4090   -5.8590 C.ar   90  TYR90      -0.0201
    170  CD1       14.7930   51.2920   -5.6350 C.ar   90  TYR90      -0.0009
    171  CD2       14.0520   53.0740   -7.0910 C.ar   90  TYR90      -0.0009
    172  CE1       15.6680   50.8730   -6.6340 C.ar   90  TYR90       0.0417
    173  CE2       14.8910   52.6500   -8.1070 C.ar   90  TYR90       0.0417
    174  CZ        15.6680   51.5430   -7.8460 C.ar   90  TYR90       0.1957
    175  OH        16.4960   51.1490   -8.8170 O.3    90  TYR90      -0.2866
    176  N         11.9860   53.6790    0.4330 N.3    92  PHE92      -0.1241
    177  CA        13.1370   53.9610    1.2880 C.3    92  PHE92       0.1605
    178  C         12.6880   54.4900    2.6400 C.2    92  PHE92       0.2264
    179  O         11.5470   55.0480    2.8070 O.2    92  PHE92      -0.2867
    180  CB        14.0470   55.0160    0.5650 C.3    92  PHE92       0.0534
    181  CG        13.4050   56.3630    0.3850 C.ar   92  PHE92      -0.0203
    182  CD1       12.6240   56.6270   -0.7330 C.ar   92  PHE92      -0.0042
    183  CD2       13.6260   57.4080    1.3100 C.ar   92  PHE92      -0.0042
    184  CE1       12.0360   57.9070   -0.9030 C.ar   92  PHE92      -0.0003
    185  CE2       13.0300   58.6680    1.1550 C.ar   92  PHE92      -0.0003
    186  CZ        12.2360   58.9120    0.0340 C.ar   92  PHE92      -0.0000
    187  N          9.0180   63.4610    6.4060 N.3   106  VAL106     -0.1245
    188  CA         8.2530   63.5770    5.1470 C.3   106  VAL106      0.1561
    189  C          8.0640   62.1670    4.6110 C.2   106  VAL106      0.2260
    190  O          8.9370   61.2940    4.8270 O.2   106  VAL106     -0.2867
    191  CB         8.9830   64.4400    4.0730 C.3   106  VAL106      0.0252
    192  CG1        9.0180   65.9070    4.5310 C.3   106  VAL106      0.0019
    193  CG2       10.3850   63.9440    3.8250 C.3   106  VAL106      0.0019
    194  N          7.3050   60.6560    0.8930 N.3   108  LEU108     -0.1245
    195  CA         7.1710   60.9930   -0.5240 C.3   108  LEU108      0.1561
    196  C          6.2960   59.9710   -1.2240 C.2   108  LEU108      0.2260
    197  O          6.5480   58.7730   -1.1430 O.2   108  LEU108     -0.2867
    198  CB         8.5310   61.0700   -1.1850 C.3   108  LEU108      0.0270
    199  CG         9.6230   61.9310   -0.5810 C.3   108  LEU108      0.0019
    200  CD1       10.7430   61.9030   -1.6190 C.3   108  LEU108      0.0001
    201  CD2        9.1770   63.3720   -0.3660 C.3   108  LEU108      0.0001
@<TRIPOS>BOND
     1    79    78    2
     2    76    77    1
     3    78    77    1
     4    72    71    2
     5    77    80    1
     6    80    81    1
     7    71    70    1
     8    81    83    1
     9    81    82    1
    10    70    73    1
    11    70    69    1
    12    73    74    1
    13    69    75    1
    14    75    74    1
    15   175   174    1
    16     7     5    1
    17    90    89    1
    18   173   174   ar
    19   173   171   ar
    20   174   172   ar
    21    97    98    1
    22    94    93    1
    23    94    95    2
    24    93    92    1
    25    93    96    1
    26    99    98    1
    27    99   100    2
    28    98   101    1
    29   171   169   ar
    30     5     6    1
    31     5     2    1
    32     1     2    1
    33    85    86    1
    34    85    88    1
    35    85    84    1
    36    89    88    1
    37    89    91    1
    38    64    65    2
    39    64    63    1
    40   172   170   ar
    41    86    87    2
    42   132   131    2
    43   104   105    1
    44   129   130    1
    45     2     3    1
    46   164   165    1
    47   101   102    1
    48   101   103    1
    49   169   170   ar
    50   169   168    1
    51   131   130    1
    52   107   106    2
    53    63    66    1
    54    63    62    1
    55   130   133    1
    56    66    68    1
    57    66    67    1
    58   105   106    1
    59   105   108    1
    60   139   138    2
    61   165   168    1
    62   165   166    1
    63     3     4    2
    64   136   137    1
    65   138   137    1
    66   133   135    1
    67   133   134    1
    68   108   109    1
    69   167   166    2
    70   137   140    1
    71   109   110    1
    72   144   143    2
    73   141   142    1
    74   162   161    1
    75   147   146    1
    76   119   117    1
    77   143   142    1
    78   145   146    1
    79   145   142    1
    80   146   148    1
    81   112   113    1
    82   200   199    1
    83   110   111    1
    84   161   163    1
    85   161   158    1
    86    29    28    1
    87   196   197    2
    88   196   195    1
    89   198   199    1
    90   198   195    1
    91    18    17    1
    92    18    19    2
    93   117   116    1
    94   115   114    2
    95   184   182   ar
    96   184   186   ar
    97    17    16    1
    98    17    20    1
    99   182   181   ar
   100    24    25    1
   101   160   159    2
   102   159   158    1
   103   199   201    1
   104   195   194    1
   105   113   116    1
   106   113   114    1
   107   116   118    1
   108    21    20    1
   109    21    22    1
   110   158   157    1
   111   114   120   am
   112   186   185   ar
   113    28    25    1
   114    28    30    1
   115    25    26    1
   116   181   180    1
   117   181   183   ar
   118   176   177    1
   119   180   177    1
   120   122   123    2
   121   122   121    1
   122    15    13    1
   123   120   121    1
   124   185   183   ar
   125    22    23    1
   126   177   178    1
   127    26    27    2
   128    26    31   am
   129   121   124    1
   130   155   153    1
   131     9    10    1
   132     9     8    1
   133     9    12    1
   134    10    11    2
   135    31    32    1
   136   124   125    1
   137    13    12    1
   138    13    14    1
   139   178   179    2
   140   152   151    2
   141   153   154    1
   142   153   150    1
   143   154   156    1
   144   151   150    1
   145   125   126    1
   146    32    35    1
   147    32    33    1
   148   193   191    1
   149   150   149    1
   150    60    59    1
   151   191   192    1
   152   191   188    1
   153    35    36    1
   154    44    43    1
   155    33    34    2
   156    33    39   am
   157   126   127    1
   158   189   190    2
   159   189   188    1
   160    58    59    1
   161    58    55    1
   162    56    57    2
   163    56    55    1
   164   188   187    1
   165    39    40    1
   166    59    61    1
   167    45    43    1
   168    55    54    1
   169    43    40    1
   170    36    38   ar
   171    36    37   ar
   172    40    41    1
   173   127   128    1
   174    52    51    1
   175    41    42    2
   176    51    53    1
   177    51    50    1
   178    50    47    1
   179    47    46    1
   180    47    48    1
   181    48    49    2
