@<TRIPOS>MOLECULE
tmp/4qaiB00.pdb
 239 236 0 0 0
SMALL
GASTEIGER

@<TRIPOS>ATOM
      1  N         -0.8230  -67.1890  -95.5950 N.3    31  PRO31      -0.2103
      2  CA         0.5180  -66.9630  -96.1260 C.3    31  PRO31       0.1489
      3  C          1.3930  -66.3070  -95.0830 C.2    31  PRO31       0.2418
      4  O          0.8960  -65.8470  -94.0490 O.2    31  PRO31      -0.2734
      5  CB         0.2740  -66.0230  -97.3120 C.3    31  PRO31       0.0282
      6  CG        -1.2310  -66.1190  -97.5940 C.3    31  PRO31       0.0208
      7  CD        -1.8330  -66.3430  -96.2530 C.3    31  PRO31       0.0893
      8  N          2.7050  -66.2940  -95.3360 N.am   32  PRO32      -0.2718
      9  CA         3.6530  -65.5940  -94.4730 C.3    32  PRO32       0.1535
     10  C          3.1750  -64.1710  -94.2010 C.2    32  PRO32       0.2599
     11  O          2.9630  -63.4060  -95.1260 O.2    32  PRO32      -0.2715
     12  CB         4.9360  -65.5710  -95.3170 C.3    32  PRO32       0.0310
     13  CG         4.4960  -65.9440  -96.7040 C.3    32  PRO32       0.0237
     14  CD         3.3730  -66.8900  -96.4940 C.3    32  PRO32       0.0939
     15  N          3.0150  -63.8170  -92.9390 N.am   33  THR33      -0.1937
     16  CA         2.5810  -62.4830  -92.5910 C.3    33  THR33       0.2028
     17  C          3.3780  -61.9410  -91.4060 C.2    33  THR33       0.2643
     18  O          3.2040  -62.3820  -90.2640 O.2    33  THR33      -0.2714
     19  CB         1.1120  -62.5090  -92.2520 C.3    33  THR33       0.1808
     20  OG1        0.3900  -63.0040  -93.3810 O.3    33  THR33      -0.2208
     21  CG2        0.6160  -61.1240  -91.9050 C.3    33  THR33       0.0379
     22  N          4.2430  -60.9750  -91.6890 N.am   34  THR34      -0.1936
     23  CA         5.1260  -60.3880  -90.6930 C.3    34  THR34       0.2028
     24  C          4.3910  -59.5470  -89.6580 C.2    34  THR34       0.2642
     25  O          3.6930  -58.6440  -90.0200 O.2    34  THR34      -0.2714
     26  CB         6.1900  -59.5490  -91.3900 C.3    34  THR34       0.1808
     27  OG1        7.2760  -60.4110  -91.7400 O.3    34  THR34      -0.2208
     28  CG2        6.7050  -58.4240  -90.4820 C.3    34  THR34       0.0379
     29  N          4.5470  -59.8380  -88.3690 N.am   35  ARG35      -0.1977
     30  CA         3.7650  -59.1420  -87.3550 C.3    35  ARG35       0.1597
     31  C          4.6040  -58.5700  -86.2260 C.2    35  ARG35       0.2287
     32  O          4.0940  -57.8060  -85.4050 O.2    35  ARG35      -0.2864
     33  CB         2.6900  -60.0480  -86.7460 C.3    35  ARG35       0.0334
     34  CG         1.6410  -60.5620  -87.6950 C.3    35  ARG35       0.0492
     35  CD         0.9040  -59.4610  -88.3660 C.3    35  ARG35       0.2205
     36  NE         0.3080  -58.5260  -87.4230 N.pl3  35  ARG35      -0.0865
     37  CZ        -0.8540  -58.7130  -86.7890 C.cat  35  ARG35       0.5346
     38  NH1       -1.5730  -59.8300  -86.9620 N.pl3  35  ARG35       0.1354
     39  NH2       -1.2900  -57.7720  -85.9590 N.pl3  35  ARG35       0.1354
     40  N          8.0620  -64.2290  -92.2120 N.3    67  ALA67      -0.1245
     41  CA         9.4760  -64.1400  -92.4890 C.3    67  ALA67       0.1562
     42  C         10.2750  -64.4110  -91.2310 C.2    67  ALA67       0.2260
     43  O         10.0520  -63.7770  -90.2050 O.2    67  ALA67      -0.2867
     44  CB         9.8210  -62.7630  -93.0100 C.3    67  ALA67       0.0290
     45  N         15.6130  -55.2310  -89.1890 N.3    77  TRP77      -0.1241
     46  CA        14.2980  -54.6530  -88.9460 C.3    77  TRP77       0.1605
     47  C         14.2520  -54.0930  -87.5250 C.2    77  TRP77       0.2264
     48  O         14.9300  -54.6040  -86.6270 O.2    77  TRP77      -0.2867
     49  CB        13.1940  -55.7080  -89.1370 C.3    77  TRP77       0.0550
     50  CG        12.5920  -55.7970  -90.5140 C.ar   77  TRP77       0.0003
     51  CD1       12.5730  -54.8250  -91.4830 C.ar   77  TRP77       0.0946
     52  CD2       11.9190  -56.9270  -91.0730 C.ar   77  TRP77       0.0152
     53  NE1       11.9190  -55.2830  -92.6020 N.ar   77  TRP77      -0.2442
     54  CE2       11.5080  -56.5700  -92.3740 C.ar   77  TRP77       0.0810
     55  CE3       11.6280  -58.2120  -90.6020 C.ar   77  TRP77       0.0012
     56  CZ2       10.8170  -57.4520  -93.2050 C.ar   77  TRP77       0.0191
     57  CZ3       10.9450  -59.0890  -91.4270 C.ar   77  TRP77       0.0001
     58  CH2       10.5420  -58.7040  -92.7130 C.ar   77  TRP77       0.0015
     59  N          9.1060  -69.4150  -93.6590 N.3   110  GLN110     -0.1245
     60  CA         9.7070  -68.5760  -94.6870 C.3   110  GLN110      0.1566
     61  C         11.0790  -68.0350  -94.2950 C.2   110  GLN110      0.2260
     62  O         11.1890  -67.1780  -93.4290 O.2   110  GLN110     -0.2867
     63  CB         8.7810  -67.4160  -95.0170 C.3   110  GLN110      0.0367
     64  CG         8.6090  -67.2310  -96.5180 C.3   110  GLN110      0.0905
     65  CD         8.3140  -65.8080  -96.9130 C.2   110  GLN110      0.2608
     66  OE1        8.6210  -64.8770  -96.1900 O.2   110  GLN110     -0.2717
     67  NE2        7.7150  -65.6390  -98.0700 N.am  110  GLN110     -0.0878
     68  N         12.5210  -67.2040  -99.5510 N.3   187  HIS187     -0.1241
     69  CA        11.8200  -65.9470  -99.8180 C.3   187  HIS187      0.1621
     70  C         12.4720  -65.1530 -100.9380 C.2   187  HIS187      0.2264
     71  O         13.4360  -64.4320 -100.7040 O.2   187  HIS187     -0.2867
     72  CB        11.7880  -65.0960  -98.5640 C.3   187  HIS187      0.0745
     73  CG        10.8440  -63.9350  -98.6500 C.ar  187  HIS187      0.0817
     74  ND1       10.4190  -63.4160  -99.8460 N.ar  187  HIS187     -0.2268
     75  CD2       10.2350  -63.2110  -97.6780 C.ar  187  HIS187      0.1154
     76  CE1        9.6000  -62.4010  -99.6090 C.ar  187  HIS187      0.1986
     77  NE2        9.4700  -62.2620  -98.3090 N.ar  187  HIS187     -0.2212
     78  N          9.3550  -59.6310 -103.2440 N.3   190  HIS190     -0.1241
     79  CA         9.1900  -58.4090 -102.4730 C.3   190  HIS190      0.1621
     80  C         10.4750  -57.6360 -102.2520 C.2   190  HIS190      0.2264
     81  O         10.5850  -56.8840 -101.2870 O.2   190  HIS190     -0.2867
     82  CB         8.5270  -58.7310 -101.1320 C.3   190  HIS190      0.0745
     83  CG         7.1170  -59.2160 -101.2640 C.ar  190  HIS190      0.0817
     84  ND1        6.5090  -60.0190 -100.3220 N.ar  190  HIS190     -0.2268
     85  CD2        6.1900  -59.0040 -102.2300 C.ar  190  HIS190      0.1154
     86  CE1        5.2760  -60.2940 -100.7100 C.ar  190  HIS190      0.1986
     87  NE2        5.0560  -59.6880 -101.8630 N.ar  190  HIS190     -0.2212
     88  N         13.5200  -58.4220 -101.4220 N.3   192  TYR192     -0.1241
     89  CA        14.5390  -58.8460 -100.4530 C.3   192  TYR192      0.1605
     90  C         15.6840  -59.5990 -101.1290 C.2   192  TYR192      0.2264
     91  O         15.6530  -59.8390 -102.3230 O.2   192  TYR192     -0.2867
     92  CB        13.9280  -59.6580  -99.3140 C.3   192  TYR192      0.0534
     93  CG        12.8530  -58.9000  -98.5560 C.ar  192  TYR192     -0.0201
     94  CD1       13.1920  -57.8860  -97.6840 C.ar  192  TYR192     -0.0009
     95  CD2       11.5030  -59.2000  -98.7190 C.ar  192  TYR192     -0.0009
     96  CE1       12.2330  -57.1900  -96.9980 C.ar  192  TYR192      0.0417
     97  CE2       10.5230  -58.4940  -98.0360 C.ar  192  TYR192      0.0417
     98  CZ        10.8970  -57.4930  -97.1740 C.ar  192  TYR192      0.1957
     99  OH         9.9430  -56.7700  -96.4810 O.3   192  TYR192     -0.2866
    100  N          8.7890  -68.6360 -102.7880 N.3   239  ARG239     -0.1245
    101  CA         7.8420  -67.5780 -103.1020 C.3   239  ARG239      0.1563
    102  C          8.4420  -66.5770 -104.0820 C.2   239  ARG239      0.2260
    103  O          9.5750  -66.0990 -103.9000 O.2   239  ARG239     -0.2867
    104  CB         7.3990  -66.8610 -101.8340 C.3   239  ARG239      0.0307
    105  CG         6.3490  -65.8240 -102.1080 C.3   239  ARG239      0.0489
    106  CD         5.6570  -65.3830 -100.8430 C.3   239  ARG239      0.2205
    107  NE         4.2090  -65.3620 -101.0030 N.pl3 239  ARG239     -0.0865
    108  CZ         3.3890  -64.5080 -100.3890 C.cat 239  ARG239      0.5346
    109  NH1        3.8650  -63.5660  -99.5810 N.pl3 239  ARG239      0.1354
    110  NH2        2.0780  -64.5970 -100.5880 N.pl3 239  ARG239      0.1354
    111  N          2.7710  -64.3360 -106.0700 N.3   285  VAL285     -0.1245
    112  CA         1.9560  -63.2390 -105.5810 C.3   285  VAL285      0.1561
    113  C          1.2100  -62.6270 -106.7540 C.2   285  VAL285      0.2260
    114  O          1.8120  -62.0850 -107.6720 O.2   285  VAL285     -0.2867
    115  CB         2.8360  -62.1630 -104.9530 C.3   285  VAL285      0.0252
    116  CG1        2.0670  -60.8800 -104.8010 C.3   285  VAL285      0.0019
    117  CG2        3.3990  -62.6370 -103.6330 C.3   285  VAL285      0.0019
    118  N         -1.6990  -57.2600 -106.0200 N.3   289  VAL289     -0.1245
    119  CA        -1.1030  -57.0060 -104.7360 C.3   289  VAL289      0.1561
    120  C          0.4050  -56.9450 -104.9110 C.2   289  VAL289      0.2260
    121  O          0.9640  -57.5060 -105.8690 O.2   289  VAL289     -0.2867
    122  CB        -1.5010  -58.1060 -103.7370 C.3   289  VAL289      0.0252
    123  CG1       -0.5230  -58.1730 -102.5920 C.3   289  VAL289      0.0019
    124  CG2       -2.9290  -57.8820 -103.2370 C.3   289  VAL289      0.0019
    125  N          3.8020  -56.4310 -102.0960 N.3   291  GLY291     -0.1210
    126  CA         4.1300  -56.2490 -100.7010 C.3   291  GLY291      0.1956
    127  C          2.9040  -56.4160  -99.8230 C.2   291  GLY291      0.2611
    128  O          2.0830  -57.3310 -100.0150 O.2   291  GLY291     -0.2717
    129  N          2.7720  -55.5240  -98.8480 N.am  292  ASN292     -0.1974
    130  CA         1.6660  -55.5940  -97.9000 C.3   292  ASN292      0.1688
    131  C          0.5130  -54.7360  -98.3690 C.2   292  ASN292      0.2292
    132  O         -0.3930  -54.4610  -97.6000 O.2   292  ASN292     -0.2864
    133  CB         2.1290  -55.1050  -96.5330 C.3   292  ASN292      0.1181
    134  CG         2.8940  -53.8160  -96.6370 C.2   292  ASN292      0.2629
    135  OD1        2.7530  -53.1150  -97.6370 O.2   292  ASN292     -0.2716
    136  ND2        3.7200  -53.4940  -95.6320 N.am  292  ASN292     -0.0877
    137  N         -1.8410  -65.8490 -103.8710 N.3   318  ALA318     -0.1231
    138  CA        -2.3670  -64.9260 -102.8540 C.3   318  ALA318      0.1694
    139  C         -2.3440  -63.4820 -103.3260 C.2   318  ALA318      0.2593
    140  O         -1.4590  -63.0780 -104.0730 O.2   318  ALA318     -0.2718
    141  CB        -1.6080  -65.0500 -101.5450 C.3   318  ALA318      0.0304
    142  N         -3.3140  -62.7020 -102.8700 N.am  319  GLY319     -0.1942
    143  CA        -3.4490  -61.3260 -103.2930 C.3   319  GLY319      0.2014
    144  C         -4.9160  -60.9660 -103.4320 C.2   319  GLY319      0.2639
    145  O         -5.5500  -61.1570 -104.4780 O.2   319  GLY319     -0.2714
    146  N         -5.4840  -60.4660 -102.3510 N.am  320  ASN320     -0.1958
    147  CA        -6.8080  -59.8870 -102.4420 C.3   320  ASN320      0.1819
    148  C         -7.7490  -60.8260 -103.1900 C.2   320  ASN320      0.2621
    149  O         -8.3010  -60.4720 -104.2150 O.2   320  ASN320     -0.2715
    150  CB        -6.7050  -58.5150 -103.1300 C.3   320  ASN320      0.1195
    151  CG        -7.9960  -57.7230 -103.0740 C.2   320  ASN320      0.2630
    152  OD1       -8.8980  -58.0100 -102.2790 O.2   320  ASN320     -0.2716
    153  ND2       -8.0900  -56.7130 -103.9300 N.am  320  ASN320     -0.0877
    154  N         -7.9220  -62.0340 -102.6670 N.am  321  TYR321     -0.1974
    155  CA        -8.8590  -62.9940 -103.2520 C.3   321  TYR321      0.1639
    156  C        -10.3300  -62.6880 -102.9910 C.2   321  TYR321      0.2290
    157  O        -11.2090  -63.3380 -103.5510 O.2   321  TYR321     -0.2864
    158  CB        -8.5340  -64.4190 -102.8240 C.3   321  TYR321      0.0560
    159  CG        -7.7490  -65.0970 -103.8910 C.ar  321  TYR321     -0.0198
    160  CD1       -8.3360  -65.3980 -105.1010 C.ar  321  TYR321     -0.0009
    161  CD2       -6.4090  -65.3870 -103.7230 C.ar  321  TYR321     -0.0009
    162  CE1       -7.6210  -65.9790 -106.1040 C.ar  321  TYR321      0.0417
    163  CE2       -5.6950  -65.9770 -104.7150 C.ar  321  TYR321      0.0417
    164  CZ        -6.3020  -66.2660 -105.9110 C.ar  321  TYR321      0.1957
    165  OH        -5.5990  -66.8660 -106.9280 O.3   321  TYR321     -0.2866
    166  N         -4.2480  -68.5600 -100.8270 N.3   343  GLY343     -0.1210
    167  CA        -3.9030  -68.0020  -99.5430 C.3   343  GLY343      0.1956
    168  C         -4.6060  -66.6890  -99.2580 C.2   343  GLY343      0.2612
    169  O         -4.8690  -65.9100 -100.1680 O.2   343  GLY343     -0.2717
    170  N         -4.9140  -66.4650  -97.9810 N.am  344  PHE344     -0.1962
    171  CA        -5.4370  -65.2080  -97.5040 C.3   344  PHE344      0.1771
    172  C         -4.5810  -64.7170  -96.3450 C.2   344  PHE344      0.2620
    173  O         -4.4750  -65.4110  -95.3440 O.2   344  PHE344     -0.2715
    174  CB        -6.8340  -65.4210  -96.9560 C.3   344  PHE344      0.0574
    175  CG        -7.8860  -65.6120  -97.9950 C.ar  344  PHE344     -0.0200
    176  CD1       -8.1520  -66.8640  -98.5000 C.ar  344  PHE344     -0.0042
    177  CD2       -8.6630  -64.5420  -98.4150 C.ar  344  PHE344     -0.0042
    178  CE1       -9.1560  -67.0500  -99.4470 C.ar  344  PHE344     -0.0003
    179  CE2       -9.6720  -64.7170  -99.3680 C.ar  344  PHE344     -0.0003
    180  CZ        -9.9170  -65.9720  -99.8820 C.ar  344  PHE344     -0.0000
    181  N         -4.0210  -63.5120  -96.4580 N.am  345  SER345     -0.1936
    182  CA        -3.1760  -62.9210  -95.4100 C.3   345  SER345      0.2055
    183  C         -3.9140  -61.9970  -94.4220 C.2   345  SER345      0.2643
    184  O         -4.2780  -62.3970  -93.3080 O.2   345  SER345     -0.2714
    185  CB        -2.0270  -62.1480  -96.0600 C.3   345  SER345      0.2130
    186  OG        -1.1650  -61.5850  -95.1010 O.3   345  SER345     -0.2179
    187  N         -4.1120  -60.7540  -94.8400 N.am  346  ARG346     -0.1963
    188  CA        -4.8450  -59.7830  -94.0430 C.3   346  ARG346      0.1729
    189  C         -6.1260  -60.3250  -93.3820 C.2   346  ARG346      0.2616
    190  O         -6.2990  -60.1900  -92.1750 O.2   346  ARG346     -0.2715
    191  CB        -5.1730  -58.5460  -94.8840 C.3   346  ARG346      0.0348
    192  CG        -3.9730  -57.7220  -95.2340 C.3   346  ARG346      0.0492
    193  CD        -4.3240  -56.6720  -96.2540 C.3   346  ARG346      0.2205
    194  NE        -4.2760  -57.1830  -97.6230 N.pl3 346  ARG346     -0.0865
    195  CZ        -4.4250  -56.4200  -98.7010 C.cat 346  ARG346      0.5346
    196  NH1       -4.6240  -55.1160  -98.5690 N.pl3 346  ARG346      0.1354
    197  NH2       -4.3750  -56.9530  -99.9050 N.pl3 346  ARG346      0.1354
    198  N         -7.0300  -60.9230  -94.1510 N.am  347  TYR347     -0.1974
    199  CA        -8.2700  -61.4120  -93.5440 C.3   347  TYR347      0.1639
    200  C         -8.0370  -62.5340  -92.5100 C.2   347  TYR347      0.2290
    201  O         -8.8940  -62.8160  -91.6740 O.2   347  TYR347     -0.2864
    202  CB        -9.3120  -61.8070  -94.6030 C.3   347  TYR347      0.0560
    203  CG       -10.0400  -60.6180  -95.1930 C.ar  347  TYR347     -0.0198
    204  CD1      -10.8270  -59.8040  -94.3900 C.ar  347  TYR347     -0.0009
    205  CD2       -9.9270  -60.2940  -96.5420 C.ar  347  TYR347     -0.0009
    206  CE1      -11.4760  -58.7030  -94.9040 C.ar  347  TYR347      0.0417
    207  CE2      -10.5720  -59.1890  -97.0680 C.ar  347  TYR347      0.0417
    208  CZ       -11.3520  -58.3950  -96.2430 C.ar  347  TYR347      0.1957
    209  OH       -12.0210  -57.2950  -96.7530 O.3   347  TYR347     -0.2866
    210  N         -5.6050  -62.2890  -90.2840 N.3   349  THR349     -0.1218
    211  CA        -5.1160  -61.6190  -89.0920 C.3   349  THR349      0.1862
    212  C         -6.2610  -61.3250  -88.1520 C.2   349  THR349      0.2287
    213  O         -6.1040  -61.3520  -86.9240 O.2   349  THR349     -0.2866
    214  CB        -4.4730  -60.2750  -89.4040 C.3   349  THR349      0.1770
    215  OG1       -5.4200  -59.4550  -90.0920 O.3   349  THR349     -0.2211
    216  CG2       -3.2220  -60.4400  -90.2460 C.3   349  THR349      0.0375
    217  N         -1.1830  -54.2210  -87.5010 N.3   372  PHE372     -0.1227
    218  CA        -0.2810  -55.1330  -88.2170 C.3   372  PHE372      0.1736
    219  C          1.1210  -55.2710  -87.5910 C.2   372  PHE372      0.2595
    220  O          1.5960  -56.3870  -87.4130 O.2   372  PHE372     -0.2718
    221  CB        -0.0900  -54.6930  -89.6800 C.3   372  PHE372      0.0547
    222  CG        -1.2370  -55.0280  -90.5920 C.ar  372  PHE372     -0.0202
    223  CD1       -2.3610  -55.6420  -90.1250 C.ar  372  PHE372     -0.0042
    224  CD2       -1.1690  -54.7190  -91.9300 C.ar  372  PHE372     -0.0042
    225  CE1       -3.4040  -55.9410  -90.9860 C.ar  372  PHE372     -0.0003
    226  CE2       -2.1940  -55.0040  -92.7760 C.ar  372  PHE372     -0.0003
    227  CZ        -3.3150  -55.6210  -92.3070 C.ar  372  PHE372     -0.0000
    228  N          1.7770  -54.1510  -87.2760 N.am  373  TYR373     -0.1976
    229  CA         3.2020  -54.1430  -86.9460 C.3   373  TYR373      0.1639
    230  C          3.5760  -53.6130  -85.5360 C.2   373  TYR373      0.2290
    231  O          4.7770  -53.4990  -85.1660 O.2   373  TYR373     -0.2864
    232  CB         3.9470  -53.3220  -87.9880 C.3   373  TYR373      0.0560
    233  CG         3.9110  -53.8540  -89.3960 C.ar  373  TYR373     -0.0198
    234  CD1        4.6160  -54.9990  -89.7400 C.ar  373  TYR373     -0.0009
    235  CD2        3.2140  -53.1910  -90.3990 C.ar  373  TYR373     -0.0009
    236  CE1        4.6130  -55.4840  -91.0360 C.ar  373  TYR373      0.0417
    237  CE2        3.2070  -53.6720  -91.7010 C.ar  373  TYR373      0.0417
    238  CZ         3.9190  -54.8190  -92.0060 C.ar  373  TYR373      0.1957
    239  OH         3.9350  -55.3090  -93.2780 O.3   373  TYR373     -0.2866
@<TRIPOS>BOND
     1   114   113    2
     2   165   164    1
     3   113   112    1
     4   162   164   ar
     5   162   160   ar
     6   111   112    1
     7   118   119    1
     8   164   163   ar
     9   121   120    2
    10   112   115    1
    11   160   159   ar
    12   115   116    1
    13   115   117    1
    14   120   119    1
    15   119   122    1
    16   163   161   ar
    17   145   144    2
    18   149   148    2
    19   102   103    2
    20   102   101    1
    21   140   139    2
    22   153   151   am
    23   159   161   ar
    24   159   158    1
    25   137   138    1
    26   122   124    1
    27   122   123    1
    28   157   156    2
    29   144   143    1
    30   144   146   am
    31   139   142   am
    32   139   138    1
    33   143   142    1
    34   155   156    1
    35   155   158    1
    36   155   154    1
    37    78    79    1
    38   148   154   am
    39   148   147    1
    40   150   151    1
    41   150   147    1
    42   101   100    1
    43   101   104    1
    44   151   152    2
    45   138   141    1
    46    79    80    1
    47    79    82    1
    48   147   146    1
    49    91    90    2
    50    80    81    2
    51    85    87   ar
    52    85    83   ar
    53   105   104    1
    54   105   106    1
    55   125   126    1
    56    87    86   ar
    57    88    89    1
    58    83    82    1
    59    83    84   ar
    60    90    89    1
    61   107   106    1
    62   107   108    2
    63    70    71    2
    64    70    69    1
    65   166   167    1
    66    86    84   ar
    67   126   127    1
    68   110   108    1
    69    89    92    1
    70   108   109    1
    71   169   168    2
    72   128   127    2
    73   197   195    1
    74   180   178   ar
    75   180   179   ar
    76    74    76   ar
    77    74    73   ar
    78   127   129   am
    79    69    68    1
    80    69    72    1
    81    76    77   ar
    82   167   168    1
    83   178   176   ar
    84   179   177   ar
    85    92    93    1
    86   168   170   am
    87   129   130    1
    88    95    93   ar
    89    95    97   ar
    90   195   196    1
    91   195   194    2
    92    73    72    1
    93    73    75   ar
    94    93    94   ar
    95   176   175   ar
    96   177   175   ar
    97   131   130    1
    98   131   132    2
    99    77    75   ar
   100    67    65   am
   101    97    98   ar
   102   175   174    1
   103   170   171    1
   104   130   133    1
   105    94    96   ar
   106   135   134    2
   107   194   193    1
   108     6     5    1
   109     6     7    1
   110   171   174    1
   111   171   172    1
   112     5     2    1
   113    98    96   ar
   114    98    99    1
   115   207   205   ar
   116   207   208   ar
   117    65    64    1
   118    65    66    2
   119   209   208    1
   120    13    14    1
   121    13    12    1
   122   134   133    1
   123   134   136   am
   124   205   203   ar
   125    64    63    1
   126    14     8    1
   127   181   172   am
   128   181   182    1
   129   172   173    2
   130   193   192    1
   131     7     1    1
   132   208   206   ar
   133     2     1    1
   134     2     3    1
   135   185   182    1
   136   185   186    1
   137   182   183    1
   138     8     3   am
   139     8     9    1
   140    12     9    1
   141   192   191    1
   142   203   202    1
   143   203   204   ar
   144    11    10    2
   145     3     4    2
   146    63    60    1
   147   206   204   ar
   148   191   188    1
   149   187   183   am
   150   187   188    1
   151    60    61    1
   152    60    59    1
   153   202   199    1
   154     9    10    1
   155   183   184    2
   156    61    62    2
   157    10    15   am
   158   198   199    1
   159   198   189   am
   160   188   189    1
   161   199   200    1
   162   189   190    2
   163    20    19    1
   164   239   238    1
   165    56    58   ar
   166    56    54   ar
   167    44    41    1
   168    15    16    1
   169   226   227   ar
   170   226   224   ar
   171    58    57   ar
   172    53    54   ar
   173    53    51   ar
   174    16    19    1
   175    16    17    1
   176   200   201    2
   177    41    40    1
   178    41    42    1
   179    54    52   ar
   180   227   225   ar
   181    19    21    1
   182   238   237   ar
   183   238   236   ar
   184   224   222   ar
   185    27    26    1
   186   237   235   ar
   187    22    17   am
   188    22    23    1
   189    51    50   ar
   190    57    55   ar
   191    17    18    2
   192    26    23    1
   193    26    28    1
   194    42    43    2
   195    52    55   ar
   196    52    50   ar
   197   236   234   ar
   198   225   223   ar
   199    23    24    1
   200   222   223   ar
   201   222   221    1
   202    50    49    1
   203   235   233   ar
   204   210   211    1
   205   216   214    1
   206   215   214    1
   207    25    24    2
   208   234   233   ar
   209   221   218    1
   210    24    29   am
   211   214   211    1
   212   233   232    1
   213    45    46    1
   214    49    46    1
   215   211   212    1
   216    46    47    1
   217    29    30    1
   218    35    34    1
   219    35    36    1
   220   218   219    1
   221   218   217    1
   222   212   213    2
   223   232   229    1
   224    34    33    1
   225   219   220    2
   226   219   228   am
   227    47    48    2
   228    36    37    2
   229    30    33    1
   230    30    31    1
   231   228   229    1
   232    38    37    1
   233   229   230    1
   234    37    39    1
   235    31    32    2
   236   230   231    2
