@<TRIPOS>MOLECULE
tmp/4qakB00.pdb
 134 128 0 0 0
SMALL
GASTEIGER

@<TRIPOS>ATOM
      1  N         35.7990   31.0310   19.6410 N.3     4  ARG4       -0.1245
      2  CA        34.9970   29.9820   20.2670 C.3     4  ARG4        0.1563
      3  C         35.9230   28.8230   20.6150 C.2     4  ARG4        0.2260
      4  O         36.4660   28.1710   19.7190 O.2     4  ARG4       -0.2867
      5  CB        33.9220   29.4890   19.2990 C.3     4  ARG4        0.0307
      6  CG        32.9890   28.4320   19.8910 C.3     4  ARG4        0.0489
      7  CD        31.6730   28.3650   19.1180 C.3     4  ARG4        0.2205
      8  NE        31.0840   29.6980   18.9570 N.pl3   4  ARG4       -0.0865
      9  CZ        30.2410   30.2760   19.8160 C.cat   4  ARG4        0.5346
     10  NH1       29.8550   29.6480   20.9270 N.pl3   4  ARG4        0.1354
     11  NH2       29.7770   31.4960   19.5600 N.pl3   4  ARG4        0.1354
     12  N         37.3940   25.3800   23.0800 N.3     6  PHE6       -0.1241
     13  CA        37.1120   24.2260   23.9170 C.3     6  PHE6        0.1605
     14  C         38.3940   23.4490   24.1920 C.2     6  PHE6        0.2264
     15  O         39.3220   23.4690   23.3930 O.2     6  PHE6       -0.2867
     16  CB        36.0440   23.3270   23.2750 C.3     6  PHE6        0.0534
     17  CG        36.4500   22.7060   21.9540 C.ar    6  PHE6       -0.0203
     18  CD1       36.2700   23.3880   20.7650 C.ar    6  PHE6       -0.0042
     19  CD2       36.9470   21.4070   21.8970 C.ar    6  PHE6       -0.0042
     20  CE1       36.6090   22.8020   19.5480 C.ar    6  PHE6       -0.0003
     21  CE2       37.2970   20.8290   20.6870 C.ar    6  PHE6       -0.0003
     22  CZ        37.1150   21.5270   19.5090 C.ar    6  PHE6       -0.0000
     23  N         37.1190   13.9040   18.1890 N.3    41  HIS41      -0.1241
     24  CA        37.8130   14.2690   19.4110 C.3    41  HIS41       0.1621
     25  C         36.8680   14.0290   20.5750 C.2    41  HIS41       0.2264
     26  O         35.6660   13.8580   20.3780 O.2    41  HIS41      -0.2867
     27  CB        38.1810   15.7590   19.3560 C.3    41  HIS41       0.0745
     28  CG        36.9810   16.6560   19.4180 C.ar   41  HIS41       0.0817
     29  ND1       36.2390   16.9810   18.3050 N.ar   41  HIS41      -0.2268
     30  CD2       36.3510   17.2330   20.4700 C.ar   41  HIS41       0.1154
     31  CE1       35.2230   17.7470   18.6620 C.ar   41  HIS41       0.1986
     32  NE2       35.2660   17.9110   19.9720 N.ar   41  HIS41      -0.2212
     33  N         35.6130   16.0170   23.8140 N.3    43  THR43      -0.1218
     34  CA        35.6100   17.3130   24.4940 C.3    43  THR43       0.1862
     35  C         35.7090   17.1630   26.0050 C.2    43  THR43       0.2287
     36  O         35.0310   16.3270   26.6030 O.2    43  THR43      -0.2866
     37  CB        34.3460   18.1050   24.1440 C.3    43  THR43       0.1770
     38  OG1       34.3180   18.3170   22.7290 O.3    43  THR43      -0.2211
     39  CG2       34.3080   19.4660   24.8790 C.3    43  THR43       0.0375
     40  N         33.7130   22.6470   26.9860 N.3    46  PHE46      -0.1241
     41  CA        33.3680   23.6770   26.0240 C.3    46  PHE46       0.1605
     42  C         33.3360   25.0580   26.6880 C.2    46  PHE46       0.2264
     43  O         32.6650   25.2540   27.6920 O.2    46  PHE46      -0.2867
     44  CB        32.0300   23.3930   25.3430 C.3    46  PHE46       0.0534
     45  CG        31.6490   24.4540   24.3610 C.ar   46  PHE46      -0.0203
     46  CD1       32.2670   24.5150   23.1200 C.ar   46  PHE46      -0.0042
     47  CD2       30.7220   25.4280   24.6960 C.ar   46  PHE46      -0.0042
     48  CE1       31.9470   25.5190   22.2180 C.ar   46  PHE46      -0.0003
     49  CE2       30.3950   26.4270   23.7970 C.ar   46  PHE46      -0.0003
     50  CZ        31.0140   26.4700   22.5550 C.ar   46  PHE46      -0.0000
     51  N         22.0800   10.1150   20.9130 N.3    80  TRP80      -0.1241
     52  CA        21.3120   11.0770   21.6830 C.3    80  TRP80       0.1605
     53  C         20.4020   11.8080   20.6960 C.2    80  TRP80       0.2264
     54  O         20.8380   12.7330   20.0070 O.2    80  TRP80      -0.2867
     55  CB        22.2500   12.0600   22.4040 C.3    80  TRP80       0.0550
     56  CG        23.0420   11.4400   23.5130 C.ar   80  TRP80       0.0003
     57  CD1       22.7230   10.3120   24.2170 C.ar   80  TRP80       0.0946
     58  CD2       24.2980   11.8940   24.0350 C.ar   80  TRP80       0.0152
     59  NE1       23.6940   10.0450   25.1490 N.ar   80  TRP80      -0.2442
     60  CE2       24.6720   11.0020   25.0590 C.ar   80  TRP80       0.0810
     61  CE3       25.1420   12.9670   23.7350 C.ar   80  TRP80       0.0012
     62  CZ2       25.8590   11.1470   25.7800 C.ar   80  TRP80       0.0191
     63  CZ3       26.3110   13.1160   24.4610 C.ar   80  TRP80       0.0001
     64  CH2       26.6580   12.2140   25.4700 C.ar   80  TRP80       0.0015
     65  N         20.1080   15.7630   20.9300 N.3    83  SER83      -0.1217
     66  CA        21.1590   16.5670   20.3270 C.3    83  SER83       0.1889
     67  C         21.4680   16.1130   18.9090 C.2    83  SER83       0.2288
     68  O         22.3250   16.6890   18.2440 O.2    83  SER83      -0.2866
     69  CB        22.4110   16.5970   21.1970 C.3    83  SER83       0.2089
     70  OG        22.8110   15.2900   21.5370 O.3    83  SER83      -0.2183
     71  N         22.9640   13.4400   17.6770 N.3    85  VAL85      -0.1245
     72  CA        24.3090   12.9090   17.4190 C.3    85  VAL85       0.1561
     73  C         24.4370   11.4030   17.6520 C.2    85  VAL85       0.2260
     74  O         23.6940   10.8250   18.4370 O.2    85  VAL85      -0.2867
     75  CB        25.3750   13.6250   18.2570 C.3    85  VAL85       0.0252
     76  CG1       25.4300   15.1280   17.9030 C.3    85  VAL85       0.0019
     77  CG2       25.1070   13.4310   19.7340 C.3    85  VAL85       0.0019
     78  N         31.7070   29.2720   29.9390 N.3   112  PHE112     -0.1241
     79  CA        30.5710   28.3670   29.7910 C.3   112  PHE112      0.1605
     80  C         30.5010   27.3960   30.9650 C.2   112  PHE112      0.2264
     81  O         31.5020   26.7640   31.3330 O.2   112  PHE112     -0.2867
     82  CB        30.6710   27.6180   28.4500 C.3   112  PHE112      0.0534
     83  CG        29.5210   26.6830   28.1690 C.ar  112  PHE112     -0.0203
     84  CD1       29.5450   25.3670   28.6200 C.ar  112  PHE112     -0.0042
     85  CD2       28.4320   27.1060   27.4200 C.ar  112  PHE112     -0.0042
     86  CE1       28.4950   24.5010   28.3510 C.ar  112  PHE112     -0.0003
     87  CE2       27.3770   26.2430   27.1450 C.ar  112  PHE112     -0.0003
     88  CZ        27.4110   24.9400   27.6120 C.ar  112  PHE112     -0.0000
     89  N         32.3010   11.6820   25.3920 N.3   121  HIS121     -0.1241
     90  CA        31.8560   11.0010   24.1880 C.3   121  HIS121      0.1621
     91  C         32.6460   11.5500   23.0270 C.2   121  HIS121      0.2264
     92  O         33.2460   12.6310   23.1320 O.2   121  HIS121     -0.2867
     93  CB        30.3520   11.2300   23.9720 C.3   121  HIS121      0.0745
     94  CG        29.9880   12.6590   23.7120 C.ar  121  HIS121      0.0817
     95  ND1       29.9910   13.6210   24.6990 N.ar  121  HIS121     -0.2268
     96  CD2       29.6360   13.2940   22.5700 C.ar  121  HIS121      0.1154
     97  CE1       29.6530   14.7870   24.1750 C.ar  121  HIS121      0.1986
     98  NE2       29.4400   14.6180   22.8830 N.ar  121  HIS121     -0.2212
     99  N         31.8010   12.3890   19.1400 N.3   123  THR123     -0.1218
    100  CA        30.6830   12.4840   18.1990 C.3   123  THR123      0.1862
    101  C         31.1500   12.0480   16.8210 C.2   123  THR123      0.2287
    102  O         32.1870   12.4930   16.3510 O.2   123  THR123     -0.2866
    103  CB        30.1130   13.9110   18.1560 C.3   123  THR123      0.1770
    104  OG1       29.5460   14.2210   19.4350 O.3   123  THR123     -0.2211
    105  CG2       29.0330   14.0430   17.0940 C.3   123  THR123      0.0375
    106  N         26.4970   13.9270   13.0140 N.3   126  ARG126     -0.1245
    107  CA        25.7110   15.0580   13.4530 C.3   126  ARG126      0.1563
    108  C         24.4160   15.1050   12.6310 C.2   126  ARG126      0.2260
    109  O         24.2840   14.4150   11.6070 O.2   126  ARG126     -0.2867
    110  CB        26.5230   16.3560   13.3060 C.3   126  ARG126      0.0307
    111  CG        27.7880   16.3670   14.1550 C.3   126  ARG126      0.0489
    112  CD        28.5290   17.7150   14.1490 C.3   126  ARG126      0.2205
    113  NE        29.6880   17.6410   15.0370 N.pl3 126  ARG126     -0.0865
    114  CZ        29.6090   17.7330   16.3590 C.cat 126  ARG126      0.5346
    115  NH1       28.4310   17.9270   16.9400 N.pl3 126  ARG126      0.1354
    116  NH2       30.7000   17.6330   17.1010 N.pl3 126  ARG126      0.1354
    117  N         37.2840   26.8480   17.4890 N.3   153  SER153     -0.1217
    118  CA        36.3430   26.3070   16.5180 C.3   153  SER153      0.1889
    119  C         35.9280   27.3750   15.4960 C.2   153  SER153      0.2288
    120  O         35.5930   28.4930   15.8660 O.2   153  SER153     -0.2866
    121  CB        35.0900   25.8070   17.2470 C.3   153  SER153      0.2089
    122  OG        34.1630   25.2820   16.3200 O.3   153  SER153     -0.2183
    123  N         38.8380   22.9450   13.4790 N.3   162  TYR162     -0.1241
    124  CA        39.2940   23.0810   14.8530 C.3   162  TYR162      0.1605
    125  C         40.7880   23.3480   14.8210 C.2   162  TYR162      0.2264
    126  O         41.5530   22.4960   14.3850 O.2   162  TYR162     -0.2867
    127  CB        39.0300   21.7980   15.6450 C.3   162  TYR162      0.0534
    128  CG        37.5890   21.3840   15.7610 C.ar  162  TYR162     -0.0201
    129  CD1       36.5750   22.3120   15.9990 C.ar  162  TYR162     -0.0009
    130  CD2       37.2390   20.0480   15.6400 C.ar  162  TYR162     -0.0009
    131  CE1       35.2380   21.9010   16.1190 C.ar  162  TYR162      0.0417
    132  CE2       35.9320   19.6380   15.7480 C.ar  162  TYR162      0.0417
    133  CZ        34.9310   20.5570   15.9780 C.ar  162  TYR162      0.1957
    134  OH        33.6290   20.0910   16.0930 O.3   162  TYR162     -0.2866
@<TRIPOS>BOND
     1   109   108    2
     2   108   107    1
     3   106   107    1
     4   110   107    1
     5   110   111    1
     6   123   124    1
     7   112   111    1
     8   112   113    1
     9   126   125    2
    10   125   124    1
    11   124   127    1
    12   113   114    2
    13   119   120    2
    14   119   118    1
    15   130   132   ar
    16   130   128   ar
    17   127   128    1
    18   132   133   ar
    19   128   129   ar
    20   133   134    1
    21   133   131   ar
    22   129   131   ar
    23   122   121    1
    24   102   101    2
    25   114   115    1
    26   114   116    1
    27   118   121    1
    28   118   117    1
    29   101   100    1
    30   105   103    1
    31    72    73    1
    32    72    71    1
    33    72    75    1
    34    73    74    2
    35    76    75    1
    36   103   100    1
    37   103   104    1
    38    23    24    1
    39   100    99    1
    40    68    67    2
    41    75    77    1
    42    29    31   ar
    43    29    28   ar
    44    31    32   ar
    45    67    66    1
    46     8     7    1
    47     8     9    2
    48     7     6    1
    49     5     6    1
    50     5     2    1
    51    27    24    1
    52    27    28    1
    53    24    25    1
    54    28    30   ar
    55    22    20   ar
    56    22    21   ar
    57    20    18   ar
    58    11     9    1
    59     1     2    1
    60     4     3    2
    61     9    10    1
    62    32    30   ar
    63    54    53    2
    64     2     3    1
    65    66    65    1
    66    66    69    1
    67    26    25    2
    68    21    19   ar
    69    53    52    1
    70    18    17   ar
    71    51    52    1
    72    69    70    1
    73    52    55    1
    74    19    17   ar
    75    17    16    1
    76    48    50   ar
    77    48    46   ar
    78    55    56    1
    79    50    49   ar
    80    96    98   ar
    81    96    94   ar
    82    38    37    1
    83    98    97   ar
    84    91    92    2
    85    91    90    1
    86    12    13    1
    87    46    45   ar
    88    16    13    1
    89    15    14    2
    90    56    58   ar
    91    56    57   ar
    92    94    93    1
    93    94    95   ar
    94    61    58   ar
    95    61    63   ar
    96    49    47   ar
    97    33    34    1
    98    13    14    1
    99    93    90    1
   100    58    60   ar
   101    37    34    1
   102    37    39    1
   103    97    95   ar
   104    90    89    1
   105    57    59   ar
   106    45    47   ar
   107    45    44    1
   108    63    64   ar
   109    34    35    1
   110    60    59   ar
   111    60    62   ar
   112    44    41    1
   113    64    62   ar
   114    35    36    2
   115    41    42    1
   116    41    40    1
   117    42    43    2
   118    87    85   ar
   119    87    88   ar
   120    85    83   ar
   121    88    86   ar
   122    83    82    1
   123    83    84   ar
   124    86    84   ar
   125    82    79    1
   126    79    78    1
   127    79    80    1
   128    80    81    2
