@<TRIPOS>MOLECULE
tmp/4qarB00.pdb
 112 107 0 0 0
SMALL
GASTEIGER

@<TRIPOS>ATOM
      1  N         71.0170  109.1720   77.3530 N.3    13  GLU13      -0.1245
      2  CA        72.2700  109.7930   76.9480 C.3    13  GLU13       0.1567
      3  C         72.3650  109.8810   75.4330 C.2    13  GLU13       0.2260
      4  O         72.9110  110.8590   74.9000 O.2    13  GLU13      -0.2867
      5  CB        73.4410  109.0440   77.5750 C.3    13  GLU13       0.0388
      6  CG        73.3170  109.0980   79.1150 C.3    13  GLU13       0.1160
      7  CD        74.4470  108.4800   79.9240 C.2    13  GLU13       0.3649
      8  OE1       75.5720  108.3290   79.4250 O.co2  13  GLU13      -0.2457
      9  OE2       74.2010  108.1550   81.1160 O.co2  13  GLU13      -0.2457
     10  N         77.4500  110.5380   80.0130 N.3    72  PHE72      -0.1227
     11  CA        77.4740  111.3780   81.2020 C.3    72  PHE72       0.1736
     12  C         78.5500  110.8510   82.1520 C.2    72  PHE72       0.2595
     13  O         78.7410  109.6340   82.2690 O.2    72  PHE72      -0.2718
     14  CB        76.1330  111.3110   81.9250 C.3    72  PHE72       0.0547
     15  CG        74.9180  111.7650   81.1320 C.ar   72  PHE72      -0.0202
     16  CD1       75.0260  112.3730   79.8920 C.ar   72  PHE72      -0.0042
     17  CD2       73.6490  111.5730   81.6460 C.ar   72  PHE72      -0.0042
     18  CE1       73.8770  112.7790   79.1980 C.ar   72  PHE72      -0.0003
     19  CE2       72.5010  112.0030   80.9670 C.ar   72  PHE72      -0.0003
     20  CZ        72.6160  112.5970   79.7220 C.ar   72  PHE72      -0.0000
     21  N         79.2480  111.7590   82.8260 N.am   73  ALA73      -0.1966
     22  CA        80.2840  111.3810   83.7770 C.3    73  ALA73       0.1728
     23  C         80.1640  112.2160   85.0460 C.2    73  ALA73       0.2616
     24  O         79.7850  113.3900   85.0060 O.2    73  ALA73      -0.2715
     25  CB        81.6950  111.5230   83.1780 C.3    73  ALA73       0.0334
     26  N         80.5290  111.6110   86.1740 N.am   74  GLY74      -0.1955
     27  CA        80.5550  112.3380   87.4130 C.3    74  GLY74       0.1869
     28  C         81.8490  113.1080   87.5540 C.2    74  GLY74       0.2309
     29  O         82.8890  112.7000   87.0660 O.2    74  GLY74      -0.2863
     30  N         84.2040  102.8570   87.2610 N.3   113  VAL113     -0.1245
     31  CA        83.8400  102.1860   88.4960 C.3   113  VAL113      0.1561
     32  C         82.6990  101.2160   88.2210 C.2   113  VAL113      0.2260
     33  O         82.0150  101.2830   87.1930 O.2   113  VAL113     -0.2867
     34  CB        83.4430  103.1850   89.5970 C.3   113  VAL113      0.0252
     35  CG1       84.6020  104.0990   89.9310 C.3   113  VAL113      0.0019
     36  CG2       82.2380  104.0090   89.1890 C.3   113  VAL113      0.0019
     37  N         77.7520  103.2900   91.3710 N.3   116  PRO116     -0.2102
     38  CA        77.7000  104.7600   91.4020 C.3   116  PRO116      0.1504
     39  C         78.6350  105.3290   92.4600 C.2   116  PRO116      0.2576
     40  O         78.5430  104.9790   93.6370 O.2   116  PRO116     -0.2718
     41  CB        76.2290  105.0660   91.7280 C.3   116  PRO116      0.0282
     42  CG        75.4810  103.8060   91.4200 C.3   116  PRO116      0.0208
     43  CD        76.4420  102.6770   91.6530 C.3   116  PRO116      0.0893
     44  N         79.5470  106.1950   92.0450 N.am  117  TYR117     -0.1963
     45  CA        80.5770  106.7290   92.9220 C.3   117  TYR117      0.1771
     46  C         80.0600  108.0100   93.5670 C.2   117  TYR117      0.2619
     47  O         79.7780  108.9940   92.8700 O.2   117  TYR117     -0.2715
     48  CB        81.8550  106.9780   92.1230 C.3   117  TYR117      0.0574
     49  CG        83.0250  107.4330   92.9520 C.ar  117  TYR117     -0.0198
     50  CD1       83.8570  106.5200   93.5840 C.ar  117  TYR117     -0.0009
     51  CD2       83.3090  108.7830   93.1030 C.ar  117  TYR117     -0.0009
     52  CE1       84.9330  106.9430   94.3440 C.ar  117  TYR117      0.0417
     53  CE2       84.3830  109.2120   93.8640 C.ar  117  TYR117      0.0417
     54  CZ        85.1950  108.2930   94.4800 C.ar  117  TYR117      0.1957
     55  OH        86.2620  108.7350   95.2480 O.3   117  TYR117     -0.2866
     56  N         79.9320  107.9810   94.9010 N.am  118  ARG118     -0.1977
     57  CA        79.4320  109.0940   95.7030 C.3   118  ARG118      0.1597
     58  C         80.3600  109.4000   96.8760 C.2   118  ARG118      0.2287
     59  O         79.9150  109.9900   97.8650 O.2   118  ARG118     -0.2864
     60  CB        78.0320  108.7860   96.2480 C.3   118  ARG118      0.0334
     61  CG        76.9910  108.4970   95.2000 C.3   118  ARG118      0.0492
     62  CD        76.6060  109.7680   94.5080 C.3   118  ARG118      0.2205
     63  NE        75.9000  109.5080   93.2700 N.pl3 118  ARG118     -0.0865
     64  CZ        75.8370  110.3690   92.2620 C.cat 118  ARG118      0.5346
     65  NH1       76.4290  111.5740   92.3510 N.pl3 118  ARG118      0.1354
     66  NH2       75.1750  110.0180   91.1690 N.pl3 118  ARG118      0.1354
     67  N         84.3700  110.4370   86.3680 N.3   128  VAL128     -0.1231
     68  CA        84.0790  109.0690   86.7840 C.3   128  VAL128      0.1692
     69  C         82.8770  108.5620   85.9840 C.2   128  VAL128      0.2592
     70  O         81.8560  109.2480   85.8830 O.2   128  VAL128     -0.2718
     71  CB        83.8550  108.9780   88.3090 C.3   128  VAL128      0.0266
     72  CG1       83.4960  107.5660   88.7010 C.3   128  VAL128      0.0020
     73  CG2       85.0880  109.4460   89.1020 C.3   128  VAL128      0.0020
     74  N         82.9940  107.3580   85.4190 N.am  129  ASP129     -0.1960
     75  CA        81.8910  106.7250   84.6930 C.3   129  ASP129      0.1840
     76  C         81.8780  105.2360   85.0240 C.2   129  ASP129      0.2621
     77  O         82.5460  104.7890   85.9610 O.2   129  ASP129     -0.2715
     78  CB        81.9980  106.9530   83.1880 C.3   129  ASP129      0.1450
     79  CG        82.9800  105.9850   82.5140 C.2   129  ASP129      0.3671
     80  OD1       83.8810  105.4340   83.1840 O.co2 129  ASP129     -0.2456
     81  OD2       82.8500  105.7780   81.2820 O.co2 129  ASP129     -0.2456
     82  N         81.1040  104.4640   84.2570 N.am  130  MET130     -0.1977
     83  CA        81.0140  103.0170   84.4570 C.3   130  MET130      0.1605
     84  C         81.4070  102.1570   83.2680 C.2   130  MET130      0.2287
     85  O         81.6520  100.9650   83.4730 O.2   130  MET130     -0.2864
     86  CB        79.6030  102.6330   84.9270 C.3   130  MET130      0.0413
     87  CG        79.2280  103.2970   86.2260 C.3   130  MET130      0.0598
     88  SD        77.5520  102.9390   86.7730 S.3   130  MET130     -0.1393
     89  CE        77.5370  103.7190   88.3640 C.3   130  MET130      0.0692
     90  N         77.1940  115.4380   87.1640 N.3   154  ASP154     -0.1239
     91  CA        76.9050  115.4390   88.5910 C.3   154  ASP154      0.1674
     92  C         78.2280  115.5240   89.3230 C.2   154  ASP154      0.2266
     93  O         79.2620  115.1000   88.8040 O.2   154  ASP154     -0.2867
     94  CB        76.1550  114.1690   89.0180 C.3   154  ASP154      0.1410
     95  CG        76.9020  112.8890   88.6640 C.2   154  ASP154      0.3668
     96  OD1       76.9210  112.5110   87.4900 O.co2 154  ASP154     -0.2456
     97  OD2       77.4710  112.2360   89.5550 O.co2 154  ASP154     -0.2456
     98  N         80.2960  113.9060   92.5420 N.3   156  THR156     -0.1218
     99  CA        80.3030  112.5920   93.1740 C.3   156  THR156      0.1862
    100  C         80.1040  112.7040   94.6790 C.2   156  THR156      0.2287
    101  O         80.8960  112.1520   95.4520 O.2   156  THR156     -0.2866
    102  CB        81.6330  111.8720   92.8770 C.3   156  THR156      0.1770
    103  OG1       82.7390  112.6580   93.3550 O.3   156  THR156     -0.2211
    104  CG2       81.7960  111.6460   91.3970 C.3   156  THR156      0.0375
    105  N         71.9440  115.5650   87.4240 N.3   164  LEU164     -0.1245
    106  CA        71.8700  114.7930   86.1880 C.3   164  LEU164      0.1561
    107  C         70.4140  114.5780   85.7660 C.2   164  LEU164      0.2260
    108  O         70.0430  114.8280   84.6140 O.2   164  LEU164     -0.2867
    109  CB        72.5870  113.4620   86.4160 C.3   164  LEU164      0.0270
    110  CG        72.7200  112.4560   85.2670 C.3   164  LEU164      0.0019
    111  CD1       73.7540  111.4490   85.6250 C.3   164  LEU164      0.0001
    112  CD2       71.4310  111.7140   84.9740 C.3   164  LEU164      0.0001
@<TRIPOS>BOND
     1     4     3    2
     2     3     2    1
     3     2     1    1
     4     2     5    1
     5     5     6    1
     6     6     7    1
     7    18    20   ar
     8    18    16   ar
     9     8     7   ar
    10    20    19   ar
    11    16    15   ar
    12     7     9   ar
    13    10    11    1
    14    19    17   ar
    15    15    17   ar
    16    15    14    1
    17    11    14    1
    18    11    12    1
    19    81    79   ar
    20    12    13    2
    21    12    21   am
    22    79    80   ar
    23    79    78    1
    24    21    22    1
    25    25    22    1
    26    78    75    1
    27    84    85    2
    28    84    83    1
    29    22    23    1
    30    82    83    1
    31    82    76   am
    32    83    86    1
    33   108   107    2
    34    75    76    1
    35    75    74    1
    36    86    87    1
    37   112   110    1
    38    24    23    2
    39    76    77    2
    40    23    26   am
    41   110   111    1
    42   110   109    1
    43    74    69   am
    44   107   106    1
    45    70    69    2
    46    69    68    1
    47    26    27    1
    48   106   109    1
    49   106   105    1
    50    87    88    1
    51    67    68    1
    52    88    89    1
    53    68    71    1
    54    29    28    2
    55    90    91    1
    56    33    32    2
    57    30    31    1
    58    27    28    1
    59    96    95   ar
    60    32    31    1
    61    71    72    1
    62    71    73    1
    63    31    34    1
    64    91    94    1
    65    91    92    1
    66    95    94    1
    67    95    97   ar
    68    93    92    2
    69    36    34    1
    70    34    35    1
    71    66    64    1
    72    37    38    1
    73    37    43    1
    74   104   102    1
    75    38    41    1
    76    38    39    1
    77    42    43    1
    78    42    41    1
    79    44    39   am
    80    44    45    1
    81    48    45    1
    82    48    49    1
    83    64    65    1
    84    64    63    2
    85    39    40    2
    86    98    99    1
    87    47    46    2
    88   102    99    1
    89   102   103    1
    90    45    46    1
    91    49    51   ar
    92    49    50   ar
    93    51    53   ar
    94    99   100    1
    95    63    62    1
    96    46    56   am
    97    50    52   ar
    98    53    54   ar
    99    52    54   ar
   100    54    55    1
   101    62    61    1
   102   100   101    2
   103    56    57    1
   104    61    60    1
   105    57    60    1
   106    57    58    1
   107    58    59    2
