@<TRIPOS>MOLECULE
tmp/4qatB00.pdb
 167 159 0 0 0
SMALL
GASTEIGER

@<TRIPOS>ATOM
      1  N         10.0240  104.1390   18.6370 N.3     9  ALA9       -0.1231
      2  CA         9.6070  103.1610   19.6350 C.3     9  ALA9        0.1694
      3  C          8.1130  103.1880   19.9250 C.2     9  ALA9        0.2592
      4  O          7.6120  102.2650   20.5710 O.2     9  ALA9       -0.2718
      5  CB        10.3480  103.3860   20.9480 C.3     9  ALA9        0.0304
      6  N          7.3940  104.2150   19.4910 N.am   10  ASP10      -0.1974
      7  CA         6.0510  104.4720   19.9790 C.3    10  ASP10       0.1709
      8  C          5.2530  105.1690   18.8880 C.2    10  ASP10       0.2293
      9  O          5.7850  106.0620   18.2230 O.2    10  ASP10      -0.2864
     10  CB         6.1010  105.3510   21.2330 C.3    10  ASP10       0.1436
     11  CG         4.7440  105.6170   21.7830 C.2    10  ASP10       0.3671
     12  OD1        4.0420  106.5280   21.2930 O.co2  10  ASP10      -0.2456
     13  OD2        4.3750  104.8760   22.6830 O.co2  10  ASP10      -0.2456
     14  N          5.3120  109.0580   19.1560 N.3    13  GLU13      -0.1245
     15  CA         6.5490  109.6890   18.7200 C.3    13  GLU13       0.1567
     16  C          6.6320  109.7820   17.2000 C.2    13  GLU13       0.2260
     17  O          7.1600  110.7630   16.6600 O.2    13  GLU13      -0.2867
     18  CB         7.7340  108.8920   19.2490 C.3    13  GLU13       0.0388
     19  CG         7.9190  108.8100   20.7080 C.3    13  GLU13       0.1160
     20  CD         9.1500  107.9730   20.9720 C.2    13  GLU13       0.3649
     21  OE1        9.2740  106.8690   20.3760 O.co2  13  GLU13      -0.2457
     22  OE2       10.0110  108.4210   21.6940 O.co2  13  GLU13      -0.2457
     23  N          8.2870   99.0290   23.9500 N.3    48  TRP48      -0.1241
     24  CA         9.4830   99.8010   24.2440 C.3    48  TRP48       0.1605
     25  C         10.6750   98.8980   24.5400 C.2    48  TRP48       0.2264
     26  O         10.5360   97.7040   24.8160 O.2    48  TRP48      -0.2867
     27  CB         9.2470  100.7020   25.4580 C.3    48  TRP48       0.0550
     28  CG         8.1980  101.7380   25.2850 C.ar   48  TRP48       0.0003
     29  CD1        7.7320  102.2570   24.1110 C.ar   48  TRP48       0.0946
     30  CD2        7.4800  102.3980   26.3300 C.ar   48  TRP48       0.0152
     31  NE1        6.7680  103.2020   24.3620 N.ar   48  TRP48      -0.2442
     32  CE2        6.5920  103.3050   25.7180 C.ar   48  TRP48       0.0810
     33  CE3        7.5020  102.3100   27.7280 C.ar   48  TRP48       0.0012
     34  CZ2        5.7340  104.1200   26.4530 C.ar   48  TRP48       0.0191
     35  CZ3        6.6500  103.1200   28.4560 C.ar   48  TRP48       0.0001
     36  CH2        5.7770  104.0110   27.8180 C.ar   48  TRP48       0.0015
     37  N         11.7510  110.3380   21.8680 N.3    72  PHE72      -0.1241
     38  CA        11.7240  111.1610   23.0780 C.3    72  PHE72       0.1605
     39  C         12.7500  110.6350   24.0730 C.2    72  PHE72       0.2264
     40  O         12.8130  109.4310   24.3250 O.2    72  PHE72      -0.2867
     41  CB        10.3430  111.1190   23.7210 C.3    72  PHE72       0.0534
     42  CG         9.1790  111.6150   22.8580 C.ar   72  PHE72      -0.0203
     43  CD1        9.3370  112.2020   21.6230 C.ar   72  PHE72      -0.0042
     44  CD2        7.9060  111.4510   23.3130 C.ar   72  PHE72      -0.0042
     45  CE1        8.2250  112.6240   20.8980 C.ar   72  PHE72      -0.0003
     46  CE2        6.7910  111.8980   22.5920 C.ar   72  PHE72      -0.0003
     47  CZ         6.9680  112.4610   21.3730 C.ar   72  PHE72      -0.0000
     48  N         14.7560  111.3220   28.0540 N.3    74  GLY74      -0.1225
     49  CA        14.8170  112.0180   29.3230 C.3    74  GLY74       0.1811
     50  C         16.1290  112.7730   29.4270 C.2    74  GLY74       0.2280
     51  O         17.1540  112.3420   28.9030 O.2    74  GLY74      -0.2866
     52  N         18.6300  102.5360   29.2150 N.3   115  VAL115     -0.1245
     53  CA        18.3130  101.8580   30.4590 C.3   115  VAL115      0.1561
     54  C         17.2590  100.7990   30.1720 C.2   115  VAL115      0.2260
     55  O         16.6110  100.7920   29.1200 O.2   115  VAL115     -0.2867
     56  CB        17.8160  102.8470   31.5380 C.3   115  VAL115      0.0252
     57  CG1       18.8850  103.8550   31.8420 C.3   115  VAL115      0.0019
     58  CG2       16.5410  103.5550   31.0630 C.3   115  VAL115      0.0019
     59  N         12.1350  102.8190   32.8110 N.3   118  PRO118     -0.2102
     60  CA        12.1330  104.2920   32.7950 C.3   118  PRO118      0.1504
     61  C         12.9320  104.8830   33.9530 C.2   118  PRO118      0.2576
     62  O         12.7930  104.4650   35.1060 O.2   118  PRO118     -0.2718
     63  CB        10.6460  104.6440   32.8940 C.3   118  PRO118      0.0282
     64  CG         9.9430  103.4460   32.3530 C.3   118  PRO118      0.0208
     65  CD        10.7780  102.2590   32.7170 C.3   118  PRO118      0.0893
     66  N         13.7650  105.8730   33.6310 N.am  119  TYR119     -0.1963
     67  CA        14.7820  106.3790   34.5450 C.3   119  TYR119      0.1771
     68  C         14.2890  107.6570   35.2080 C.2   119  TYR119      0.2619
     69  O         13.9310  108.6340   34.5360 O.2   119  TYR119     -0.2715
     70  CB        16.1100  106.6200   33.8300 C.3   119  TYR119      0.0574
     71  CG        17.2420  107.0270   34.7510 C.ar  119  TYR119     -0.0198
     72  CD1       17.9930  106.0770   35.4480 C.ar  119  TYR119     -0.0009
     73  CD2       17.5720  108.3620   34.9150 C.ar  119  TYR119     -0.0009
     74  CE1       19.0350  106.4660   36.2900 C.ar  119  TYR119      0.0417
     75  CE2       18.6030  108.7510   35.7390 C.ar  119  TYR119      0.0417
     76  CZ        19.3340  107.8090   36.4290 C.ar  119  TYR119      0.1957
     77  OH        20.3580  108.2340   37.2680 O.3   119  TYR119     -0.2866
     78  N         14.2940  107.6350   36.5320 N.am  120  ARG120     -0.1977
     79  CA        13.6130  108.6170   37.3600 C.3   120  ARG120      0.1597
     80  C         14.4580  108.9940   38.5810 C.2   120  ARG120      0.2287
     81  O         13.9080  109.4970   39.5770 O.2   120  ARG120     -0.2864
     82  CB        12.2520  108.0090   37.7590 C.3   120  ARG120      0.0334
     83  CG        11.0980  108.9600   37.9330 C.3   120  ARG120      0.0492
     84  CD        10.8420  109.8460   36.7280 C.3   120  ARG120      0.2205
     85  NE        10.3610  109.1890   35.5180 N.pl3 120  ARG120     -0.0865
     86  CZ        10.1620  109.8410   34.3730 C.cat 120  ARG120      0.5346
     87  NH1       10.4270  111.1400   34.2970 N.pl3 120  ARG120      0.1354
     88  NH2        9.7090  109.2050   33.3000 N.pl3 120  ARG120      0.1354
     89  N         18.7080  110.1030   28.1750 N.3   130  VAL130     -0.1231
     90  CA        18.4080  108.7380   28.6000 C.3   130  VAL130      0.1692
     91  C         17.2040  108.2050   27.8080 C.2   130  VAL130      0.2592
     92  O         16.1950  108.9010   27.6460 O.2   130  VAL130     -0.2718
     93  CB        18.1440  108.7010   30.1220 C.3   130  VAL130      0.0266
     94  CG1       17.9250  107.2930   30.6050 C.3   130  VAL130      0.0020
     95  CG2       19.3300  109.3280   30.8830 C.3   130  VAL130      0.0020
     96  N         17.3070  106.9720   27.3120 N.am  131  ASP131     -0.1960
     97  CA        16.2210  106.3240   26.5820 C.3   131  ASP131      0.1840
     98  C         16.2480  104.8440   26.9280 C.2   131  ASP131      0.2622
     99  O         16.9740  104.4170   27.8270 O.2   131  ASP131     -0.2715
    100  CB        16.3530  106.5730   25.0710 C.3   131  ASP131      0.1450
    101  CG        17.3500  105.6230   24.4000 C.2   131  ASP131      0.3671
    102  OD1       18.3050  105.1550   25.0770 O.co2 131  ASP131     -0.2456
    103  OD2       17.1590  105.3300   23.1890 O.co2 131  ASP131     -0.2456
    104  N         15.4880  104.0280   26.1780 N.am  132  MET132     -0.1963
    105  CA        15.5060  102.5800   26.3700 C.3   132  MET132      0.1736
    106  C         15.8840  101.7770   25.1310 C.2   132  MET132      0.2616
    107  O         16.1970  100.6000   25.2740 O.2   132  MET132     -0.2715
    108  CB        14.1390  102.1010   26.8850 C.3   132  MET132      0.0427
    109  CG        13.7860  102.7030   28.2480 C.3   132  MET132      0.0599
    110  SD        12.1210  102.2420   28.7560 S.3   132  MET132     -0.1393
    111  CE        12.2160  100.4610   28.7380 C.3   132  MET132      0.0692
    112  N         15.9200  102.3720   23.9390 N.am  133  GLU133     -0.1977
    113  CA        16.1190  101.6060   22.7060 C.3   133  GLU133      0.1602
    114  C         17.4640  101.8120   22.0320 C.2   133  GLU133      0.2287
    115  O         17.9430  100.8910   21.3580 O.2   133  GLU133     -0.2864
    116  CB        15.0230  101.9460   21.6860 C.3   133  GLU133      0.0415
    117  CG        13.6520  101.5190   22.1290 C.3   133  GLU133      0.1163
    118  CD        12.9940  102.5610   23.0140 C.2   133  GLU133      0.3649
    119  OE1       13.4110  103.7610   22.9290 O.co2 133  GLU133     -0.2457
    120  OE2       12.0820  102.1680   23.7760 O.co2 133  GLU133     -0.2457
    121  N         17.1820  112.5480   19.2230 N.3   152  LYS152     -0.1245
    122  CA        16.5210  112.4300   20.5100 C.3   152  LYS152      0.1561
    123  C         16.1240  113.8120   20.9960 C.2   152  LYS152      0.2260
    124  O         16.9810  114.6870   21.1370 O.2   152  LYS152     -0.2867
    125  CB        17.4320  111.7300   21.5270 C.3   152  LYS152      0.0271
    126  CG        17.8470  110.3070   21.1150 C.3   152  LYS152      0.0035
    127  CD        16.7250  109.3050   21.3350 C.3   152  LYS152      0.0206
    128  CE        17.0100  107.9730   20.6730 C.3   152  LYS152      0.1093
    129  NZ        16.1230  106.9140   21.2270 N.3   152  LYS152     -0.1314
    130  N         12.4190  115.3680   26.4210 N.3   155  SER155     -0.1202
    131  CA        10.9820  115.3180   26.6170 C.3   155  SER155      0.2020
    132  C         10.5620  115.3220   28.0820 C.2   155  SER155      0.2618
    133  O          9.3670  115.4580   28.3580 O.2   155  SER155     -0.2717
    134  CB        10.4090  114.0550   25.9780 C.3   155  SER155      0.2103
    135  OG        11.0070  112.9100   26.5660 O.3   155  SER155     -0.2182
    136  N         11.4810  115.0700   28.9950 N.am  156  ASN156     -0.1974
    137  CA        11.1890  115.0960   30.4270 C.3   156  ASN156      0.1688
    138  C         12.5040  115.1640   31.1630 C.2   156  ASN156      0.2292
    139  O         13.5360  114.7460   30.6460 O.2   156  ASN156     -0.2864
    140  CB        10.3930  113.8590   30.8600 C.3   156  ASN156      0.1181
    141  CG        11.1310  112.5600   30.6120 C.2   156  ASN156      0.2629
    142  OD1       11.6090  111.8940   31.5580 O.2   156  ASN156     -0.2716
    143  ND2       11.2060  112.1530   29.3400 N.am  156  ASN156     -0.0877
    144  N         14.5490  113.6010   34.4040 N.3   158  THR158     -0.1218
    145  CA        14.5530  112.2830   35.0230 C.3   158  THR158      0.1862
    146  C         14.2970  112.3660   36.5050 C.2   158  THR158      0.2287
    147  O         14.9970  111.7450   37.3040 O.2   158  THR158     -0.2866
    148  CB        15.8710  111.5700   34.7280 C.3   158  THR158      0.1770
    149  OG1       16.9690  112.4050   35.1110 O.3   158  THR158     -0.2211
    150  CG2       15.9550  111.2630   33.2350 C.3   158  THR158      0.0375
    151  N          7.3720  112.6680   33.6400 N.3   163  GLN163     -0.1245
    152  CA         6.6360  112.2540   32.4520 C.3   163  GLN163      0.1566
    153  C          5.4380  113.1510   32.1840 C.2   163  GLN163      0.2260
    154  O          4.8720  113.0900   31.0930 O.2   163  GLN163     -0.2867
    155  CB         6.1760  110.7890   32.5990 C.3   163  GLN163      0.0367
    156  CG         5.1630  110.5480   33.7140 C.3   163  GLN163      0.0905
    157  CD         5.8180  110.2130   35.0630 C.2   163  GLN163      0.2608
    158  OE1        6.9710  110.5810   35.3270 O.2   163  GLN163     -0.2717
    159  NE2        5.0830  109.4960   35.9130 N.am  163  GLN163     -0.0878
    160  N          6.2410  115.2960   29.1780 N.3   166  LEU166     -0.1245
    161  CA         6.1400  114.5090   27.9460 C.3   166  LEU166      0.1561
    162  C          4.6800  114.3300   27.5290 C.2   166  LEU166      0.2260
    163  O          4.2970  114.6210   26.3840 O.2   166  LEU166     -0.2867
    164  CB         6.8450  113.1620   28.1670 C.3   166  LEU166      0.0270
    165  CG         6.9440  112.1430   26.9980 C.3   166  LEU166      0.0019
    166  CD1        7.9300  111.0840   27.3500 C.3   166  LEU166      0.0001
    167  CD2        5.6220  111.4850   26.6940 C.3   166  LEU166      0.0001
@<TRIPOS>BOND
     1    17    16    2
     2    16    15    1
     3     9     8    2
     4     1     2    1
     5    15    14    1
     6    15    18    1
     7     8     7    1
     8   121   122    1
     9    18    19    1
    10     6     3   am
    11     6     7    1
    12     2     3    1
    13     2     5    1
    14     3     4    2
    15     7    10    1
    16    21    20   ar
    17   122   123    1
    18   122   125    1
    19   128   129    1
    20   128   127    1
    21    19    20    1
    22    45    47   ar
    23    45    43   ar
    24    20    22   ar
    25   123   124    2
    26   126   127    1
    27   126   125    1
    28    10    11    1
    29    12    11   ar
    30   115   114    2
    31    47    46   ar
    32    43    42   ar
    33   116   117    1
    34   116   113    1
    35    11    13   ar
    36    37    38    1
    37   114   113    1
    38   117   118    1
    39    46    44   ar
    40   113   112    1
    41    42    44   ar
    42    42    41    1
    43   119   118   ar
    44   118   120   ar
    45    38    41    1
    46    38    39    1
    47   103   101   ar
    48   112   106   am
    49    23    24    1
    50    39    40    2
    51    29    31   ar
    52    29    28   ar
    53    24    25    1
    54    24    27    1
    55    31    32   ar
    56   101   100    1
    57   101   102   ar
    58    25    26    2
    59   100    97    1
    60   106   107    2
    61   106   105    1
    62    28    27    1
    63    28    30   ar
    64    32    30   ar
    65    32    34   ar
    66   134   135    1
    67   134   131    1
    68   104   105    1
    69   104    98   am
    70    30    33   ar
    71   105   108    1
    72   163   162    2
    73   130   131    1
    74    34    36   ar
    75    97    98    1
    76    97    96    1
    77   131   132    1
    78   167   165    1
    79   108   109    1
    80    98    99    2
    81   165   166    1
    82   165   164    1
    83    96    91   am
    84   162   161    1
    85    92    91    2
    86    33    35   ar
    87    91    90    1
    88    36    35   ar
    89   161   164    1
    90   161   160    1
    91    48    49    1
    92   132   133    2
    93   132   136   am
    94    89    90    1
    95   109   110    1
    96    90    93    1
    97   111   110    1
    98    51    50    2
    99   136   137    1
   100    55    54    2
   101    52    53    1
   102    49    50    1
   103   143   141   am
   104    93    94    1
   105    93    95    1
   106    54    53    1
   107   137   140    1
   108   137   138    1
   109    53    56    1
   110   141   140    1
   111   141   142    2
   112   139   138    2
   113    58    56    1
   114   154   153    2
   115    56    57    1
   116   153   152    1
   117    64    65    1
   118    64    63    1
   119   152   155    1
   120   152   151    1
   121   155   156    1
   122    65    59    1
   123    60    59    1
   124    60    63    1
   125    60    61    1
   126   150   148    1
   127    88    86    1
   128    66    61   am
   129    66    67    1
   130   156   157    1
   131    70    67    1
   132    70    71    1
   133    61    62    2
   134    87    86    1
   135    86    85    2
   136   144   145    1
   137    69    68    2
   138    67    68    1
   139   148   145    1
   140   148   149    1
   141    71    73   ar
   142    71    72   ar
   143    73    75   ar
   144   145   146    1
   145   157   158    2
   146   157   159   am
   147    68    78   am
   148    72    74   ar
   149    85    84    1
   150    75    76   ar
   151    74    76   ar
   152    76    77    1
   153   146   147    2
   154    78    79    1
   155    84    83    1
   156    79    82    1
   157    79    80    1
   158    82    83    1
   159    80    81    2
