@<TRIPOS>MOLECULE
tmp/4qb2A01.pdb
 82 78 0 0 0
SMALL
GASTEIGER

@<TRIPOS>ATOM
      1  N         -9.1460   23.8380    6.9100 N.3     2  GLY2       -0.1210
      2  CA        -9.2740   22.4030    6.7680 C.3     2  GLY2        0.1956
      3  C        -10.4000   21.8590    7.5830 C.2     2  GLY2        0.2612
      4  O        -11.3370   22.5940    7.9410 O.2     2  GLY2       -0.2717
      5  N        -10.3740   20.5630    7.8170 N.am    3  THR3       -0.1952
      6  CA       -11.3360   19.8400    8.6630 C.3     3  THR3        0.1897
      7  C        -10.5140   19.1030    9.7300 C.2     3  THR3        0.2313
      8  O         -9.5870   18.4120    9.3770 O.2     3  THR3       -0.2863
      9  CB       -12.1080   18.8120    7.8140 C.3     3  THR3        0.1794
     10  OG1      -12.7990   19.5310    6.7510 O.3     3  THR3       -0.2208
     11  CG2      -13.0850   18.0760    8.6020 C.3     3  THR3        0.0378
     12  N        -10.8540   15.9740   12.3330 N.3     5  TYR5       -0.1241
     13  CA       -11.6210   14.7550   12.5950 C.3     5  TYR5        0.1605
     14  C        -11.1060   14.2370   13.9270 C.2     5  TYR5        0.2264
     15  O         -9.9130   13.8830   14.0860 O.2     5  TYR5       -0.2867
     16  CB       -11.3390   13.7250   11.5240 C.3     5  TYR5        0.0534
     17  CG       -11.6520   14.1930   10.1090 C.ar    5  TYR5       -0.0201
     18  CD1      -10.7250   14.8340    9.3300 C.ar    5  TYR5       -0.0009
     19  CD2      -12.9130   13.9700    9.5610 C.ar    5  TYR5       -0.0009
     20  CE1      -11.0230   15.2640    8.0450 C.ar    5  TYR5        0.0417
     21  CE2      -13.2260   14.3900    8.3090 C.ar    5  TYR5        0.0417
     22  CZ       -12.2900   14.9900    7.5370 C.ar    5  TYR5        0.1957
     23  OH       -12.5910   15.4330    6.2700 O.3     5  TYR5       -0.2866
     24  N        -13.1900   13.7780    3.9870 N.3    47  ASN47      -0.1225
     25  CA       -13.9370   14.3010    2.8570 C.3    47  ASN47       0.1785
     26  C        -13.2330   15.5440    2.2950 C.2    47  ASN47       0.2597
     27  O        -13.1440   16.5490    2.9660 O.2    47  ASN47      -0.2718
     28  CB       -15.3560   14.5530    3.2970 C.3    47  ASN47       0.1169
     29  CG       -16.2510   14.7660    2.1200 C.2    47  ASN47       0.2627
     30  OD1      -15.8110   15.2420    1.0730 O.2    47  ASN47      -0.2716
     31  ND2      -17.4890   14.3410    2.2560 N.am   47  ASN47      -0.0877
     32  N        -12.6710   15.4010    1.1070 N.am   48  ASN48      -0.1960
     33  CA       -11.8350   16.4110    0.4890 C.3    48  ASN48       0.1819
     34  C        -12.5480   17.0600   -0.7470 C.2    48  ASN48       0.2621
     35  O        -13.2570   16.3270   -1.4600 O.2    48  ASN48      -0.2715
     36  CB       -10.5300   15.8010    0.0480 C.3    48  ASN48       0.1195
     37  CG        -9.7330   15.2070    1.1830 C.2    48  ASN48       0.2630
     38  OD1       -9.7260   15.7630    2.2750 O.2    48  ASN48      -0.2716
     39  ND2       -9.0060   14.1400    0.9160 N.am   48  ASN48      -0.0877
     40  N        -12.2300   18.2980   -1.0290 N.am   49  MET49      -0.1963
     41  CA       -12.7830   18.9690   -2.2510 C.3    49  MET49       0.1736
     42  C        -11.9850   18.6200   -3.4690 C.2    49  MET49       0.2617
     43  O        -12.5090   18.6820   -4.5890 O.2    49  MET49      -0.2715
     44  CB       -12.7120   20.4270   -2.0860 C.3    49  MET49       0.0427
     45  CG       -13.4660   20.9300   -0.9400 C.3    49  MET49       0.0599
     46  SD       -15.2100   21.0740   -1.2700 S.3    49  MET49      -0.1393
     47  CE       -15.1600   21.6970   -2.8480 C.3    49  MET49       0.0692
     48  N        -10.7310   18.1810   -3.2960 N.am   50  THR50      -0.1951
     49  CA        -9.7710   18.0110   -4.4140 C.3    50  THR50       0.1897
     50  C         -8.8750   16.8220   -4.2240 C.2    50  THR50       0.2313
     51  O         -8.6770   16.3530   -3.0880 O.2    50  THR50      -0.2863
     52  CB        -8.8410   19.2450   -4.6050 C.3    50  THR50       0.1794
     53  OG1       -8.0210   19.4060   -3.4190 O.3    50  THR50      -0.2208
     54  CG2       -9.6420   20.5550   -4.8400 C.3    50  THR50       0.0378
     55  N         -1.9990   16.1860    0.6320 N.3    54  LYS54      -0.1245
     56  CA        -2.6250   16.7660    1.7990 C.3    54  LYS54       0.1561
     57  C         -1.6210   16.8450    2.9560 C.2    54  LYS54       0.2260
     58  O         -0.7830   15.9050    3.0970 O.2    54  LYS54      -0.2867
     59  CB        -3.7880   15.8930    2.2680 C.3    54  LYS54       0.0271
     60  CG        -4.7810   15.5690    1.1720 C.3    54  LYS54       0.0035
     61  CD        -5.3670   16.7810    0.4470 C.3    54  LYS54       0.0206
     62  CE        -6.2370   16.3130   -0.6760 C.3    54  LYS54       0.1093
     63  NZ        -6.6440   17.4740   -1.5150 N.3    54  LYS54      -0.1314
     64  N         -6.8740   17.8770    8.3970 N.3   126  VAL126     -0.1231
     65  CA        -6.4490   17.6580    7.0130 C.3   126  VAL126      0.1692
     66  C         -6.6070   18.9490    6.2400 C.2   126  VAL126      0.2593
     67  O         -7.7050   19.5770    6.3170 O.2   126  VAL126     -0.2718
     68  CB        -7.3220   16.5510    6.3420 C.3   126  VAL126      0.0266
     69  CG1       -6.9120   16.3310    4.8760 C.3   126  VAL126      0.0020
     70  CG2       -7.2480   15.2700    7.1580 C.3   126  VAL126      0.0020
     71  N         -5.5770   19.3880    5.5680 N.am  127  THR127     -0.1939
     72  CA        -5.6380   20.5510    4.6780 C.3   127  THR127      0.2028
     73  C         -4.9620   20.2100    3.3700 C.2   127  THR127      0.2642
     74  O         -4.1270   19.3210    3.2760 O.2   127  THR127     -0.2714
     75  CB        -4.9020   21.7530    5.3040 C.3   127  THR127      0.1808
     76  OG1       -3.5840   21.3530    5.7100 O.3   127  THR127     -0.2208
     77  CG2       -5.6090   22.2430    6.5250 C.3   127  THR127      0.0379
     78  N         -5.2640   20.9670    2.3090 N.am  128  ALA128     -0.1977
     79  CA        -4.5510   20.7840    1.0700 C.3   128  ALA128      0.1597
     80  C         -3.1490   21.3720    1.2060 C.2   128  ALA128      0.2287
     81  O         -2.9480   22.4120    1.8150 O.2   128  ALA128     -0.2864
     82  CB        -5.3390   21.5420    0.0070 C.3   128  ALA128      0.0319
@<TRIPOS>BOND
     1    54    52    1
     2    52    49    1
     3    52    53    1
     4    43    42    2
     5    49    50    1
     6    49    48    1
     7    50    51    2
     8    42    48   am
     9    42    41    1
    10    47    46    1
    11    41    44    1
    12    41    40    1
    13    44    45    1
    14    63    62    1
    15    35    34    2
    16    46    45    1
    17    40    34   am
    18    34    33    1
    19    62    61    1
    20    82    79    1
    21    36    33    1
    22    36    37    1
    23    61    60    1
    24    33    32    1
    25    55    56    1
    26    39    37   am
    27    79    80    1
    28    79    78    1
    29    30    29    2
    30    32    26   am
    31    60    59    1
    32    37    38    2
    33    80    81    2
    34    56    59    1
    35    56    57    1
    36    29    31   am
    37    29    28    1
    38    26    25    1
    39    26    27    2
    40    78    73   am
    41    25    28    1
    42    25    24    1
    43    57    58    2
    44    74    73    2
    45    73    72    1
    46    72    75    1
    47    72    71    1
    48    69    68    1
    49    75    76    1
    50    75    77    1
    51    71    66   am
    52    66    67    2
    53    66    65    1
    54    23    22    1
    55    68    65    1
    56    68    70    1
    57    10     9    1
    58     2     1    1
    59     2     3    1
    60    65    64    1
    61    22    20   ar
    62    22    21   ar
    63     3     5   am
    64     3     4    2
    65     9    11    1
    66     9     6    1
    67     5     6    1
    68    20    18   ar
    69    21    19   ar
    70     6     7    1
    71    18    17   ar
    72     8     7    2
    73    19    17   ar
    74    17    16    1
    75    16    13    1
    76    12    13    1
    77    13    14    1
    78    14    15    2
