@<TRIPOS>MOLECULE
tmp/4qb3A00.pdb
 133 129 0 0 0
SMALL
GASTEIGER

@<TRIPOS>ATOM
      1  N         32.9100   44.4770    0.9370 N.3    40  TRP40      -0.1228
      2  CA        33.0750   45.8240    1.4710 C.3    40  TRP40       0.1722
      3  C         31.7950   46.5930    1.6850 C.2    40  TRP40       0.2437
      4  O         31.7310   47.2850    2.7000 O.2    40  TRP40      -0.2733
      5  CB        34.1660   46.5730    0.6300 C.3    40  TRP40       0.0563
      6  CG        33.8840   46.6730   -0.8740 C.ar   40  TRP40       0.0003
      7  CD1       34.2210   45.7590   -1.8440 C.ar   40  TRP40       0.0946
      8  CD2       33.2260   47.7420   -1.5540 C.ar   40  TRP40       0.0152
      9  NE1       33.7880   46.1710   -3.0570 N.ar   40  TRP40      -0.2442
     10  CE2       33.1840   47.3920   -2.9030 C.ar   40  TRP40       0.0810
     11  CE3       32.6290   48.9610   -1.1540 C.ar   40  TRP40       0.0012
     12  CZ2       32.6170   48.2310   -3.9000 C.ar   40  TRP40       0.0191
     13  CZ3       32.0550   49.7840   -2.2030 C.ar   40  TRP40       0.0001
     14  CH2       32.0610   49.3920   -3.4910 C.ar   40  TRP40       0.0015
     15  N         30.7630   46.5460    0.8340 N.am   41  PRO41      -0.2718
     16  CA        29.5580   47.3460    1.1140 C.3    41  PRO41       0.1535
     17  C         28.7940   46.8690    2.3400 C.2    41  PRO41       0.2598
     18  O         27.8570   47.5570    2.7680 O.2    41  PRO41      -0.2715
     19  CB        28.7170   47.1920   -0.1380 C.3    41  PRO41       0.0310
     20  CG        29.6630   46.7210   -1.2060 C.3    41  PRO41       0.0237
     21  CD        30.6500   45.8470   -0.4590 C.3    41  PRO41       0.0939
     22  N         29.1240   45.6810    2.8320 N.am   42  PHE42      -0.1974
     23  CA        28.4170   44.9880    3.8820 C.3    42  PHE42       0.1639
     24  C         29.1950   44.9560    5.1870 C.2    42  PHE42       0.2290
     25  O         28.7310   44.3740    6.1780 O.2    42  PHE42      -0.2864
     26  CB        28.0600   43.5690    3.4800 C.3    42  PHE42       0.0560
     27  CG        27.2680   43.5250    2.1870 C.ar   42  PHE42      -0.0200
     28  CD1       25.8720   43.6460    2.2270 C.ar   42  PHE42      -0.0042
     29  CD2       27.8920   43.3940    0.9820 C.ar   42  PHE42      -0.0042
     30  CE1       25.1540   43.6470    1.0350 C.ar   42  PHE42      -0.0003
     31  CE2       27.1490   43.4220   -0.2030 C.ar   42  PHE42      -0.0003
     32  CZ        25.8030   43.5500   -0.1840 C.ar   42  PHE42      -0.0000
     33  N         25.1200   50.9020    6.8130 N.3    46  VAL46      -0.1245
     34  CA        24.9920   51.8030    5.6610 C.3    46  VAL46       0.1561
     35  C         25.0820   53.2240    6.1300 C.2    46  VAL46       0.2260
     36  O         24.2640   53.6850    6.9610 O.2    46  VAL46      -0.2867
     37  CB        23.6540   51.5140    4.9390 C.3    46  VAL46       0.0252
     38  CG1       23.3570   52.5670    3.8800 C.3    46  VAL46       0.0019
     39  CG2       23.6810   50.1090    4.3290 C.3    46  VAL46       0.0019
     40  N         26.9070   58.0360    1.3990 N.3    51  LEU51      -0.1245
     41  CA        26.4670   57.3320    0.1860 C.3    51  LEU51       0.1561
     42  C         25.3180   58.0080   -0.5040 C.2    51  LEU51       0.2260
     43  O         24.8390   57.5650   -1.5670 O.2    51  LEU51      -0.2867
     44  CB        26.1760   55.8720    0.4780 C.3    51  LEU51       0.0270
     45  CG        27.3770   55.0680    0.9310 C.3    51  LEU51       0.0019
     46  CD1       26.9740   53.7430    1.5660 C.3    51  LEU51       0.0001
     47  CD2       28.3150   54.7860   -0.2340 C.3    51  LEU51       0.0001
     48  N         21.9650   58.4370    0.2100 N.3    53  LEU53      -0.1245
     49  CA        20.8030   57.5630    0.1550 C.3    53  LEU53       0.1561
     50  C         19.7560   58.1020    1.1770 C.2    53  LEU53       0.2260
     51  O         19.4990   57.4640    2.1890 O.2    53  LEU53      -0.2867
     52  CB        21.1680   56.1270    0.5300 C.3    53  LEU53       0.0270
     53  CG        22.3290   55.5640   -0.2750 C.3    53  LEU53       0.0019
     54  CD1       22.7380   54.1860    0.4520 C.3    53  LEU53       0.0001
     55  CD2       22.0330   55.3190   -1.6990 C.3    53  LEU53       0.0001
     56  N         17.1230   55.6620    2.5260 N.3    56  TYR56      -0.1241
     57  CA        17.4700   54.3150    2.9320 C.3    56  TYR56       0.1605
     58  C         16.7520   53.9220    4.2270 C.2    56  TYR56       0.2264
     59  O         16.1560   52.8570    4.3120 O.2    56  TYR56      -0.2867
     60  CB        18.9950   54.1770    3.0800 C.3    56  TYR56       0.0534
     61  CG        19.3780   52.7440    3.4070 C.ar   56  TYR56      -0.0201
     62  CD1       19.5180   51.8010    2.3900 C.ar   56  TYR56      -0.0009
     63  CD2       19.5660   52.3360    4.7110 C.ar   56  TYR56      -0.0009
     64  CE1       19.7750   50.4790    2.6720 C.ar   56  TYR56       0.0417
     65  CE2       19.8450   51.0050    5.0230 C.ar   56  TYR56       0.0417
     66  CZ        19.9570   50.0750    3.9970 C.ar   56  TYR56       0.1957
     67  OH        20.1690   48.7560    4.3320 O.3    56  TYR56      -0.2866
     68  N         20.2370   41.2140    6.8110 N.3    91  MET91      -0.1245
     69  CA        21.1610   41.9640    5.9740 C.3    91  MET91       0.1570
     70  C         20.8810   41.7360    4.4930 C.2    91  MET91       0.2261
     71  O         20.8000   42.6860    3.6950 O.2    91  MET91      -0.2867
     72  CB        22.5880   41.5870    6.3290 C.3    91  MET91       0.0387
     73  CG        23.6260   42.2890    5.4940 C.3    91  MET91       0.0595
     74  SD        25.3110   41.7840    5.8660 S.3    91  MET91      -0.1393
     75  CE        25.3750   40.2330    4.9330 C.3    91  MET91       0.0692
     76  N         19.0730   44.3980    1.5760 N.3    95  CYS95      -0.1235
     77  CA        19.7200   44.7610    0.3280 C.3    95  CYS95       0.1677
     78  C         18.7510   44.5870   -0.8350 C.2    95  CYS95       0.2270
     79  O         18.6270   45.4680   -1.7060 O.2    95  CYS95      -0.2867
     80  CB        20.9830   43.9300    0.1560 C.3    95  CYS95       0.0956
     81  SG        21.9510   44.3750   -1.2910 S.3    95  CYS95      -0.0801
     82  N         15.7470   47.2220   -0.5820 N.3    98  TYR98      -0.1227
     83  CA        16.0650   48.6040   -0.8860 C.3    98  TYR98       0.1736
     84  C         16.4140   48.8150   -2.3530 C.2    98  TYR98       0.2595
     85  O         15.9730   49.7770   -2.9760 O.2    98  TYR98      -0.2718
     86  CB        17.2070   49.1070   -0.0070 C.3    98  TYR98       0.0548
     87  CG        17.5830   50.5300   -0.3410 C.ar   98  TYR98      -0.0200
     88  CD1       16.7390   51.5790   -0.0090 C.ar   98  TYR98      -0.0009
     89  CD2       18.7240   50.8280   -1.0720 C.ar   98  TYR98      -0.0009
     90  CE1       17.0340   52.8690   -0.3900 C.ar   98  TYR98       0.0417
     91  CE2       19.0190   52.1270   -1.4500 C.ar   98  TYR98       0.0417
     92  CZ        18.1620   53.1390   -1.1040 C.ar   98  TYR98       0.1957
     93  OH        18.4650   54.4400   -1.5200 O.3    98  TYR98      -0.2866
     94  N         17.2810   47.9500   -2.9080 N.am   99  ASN99      -0.1974
     95  CA        17.9550   48.2510   -4.1460 C.3    99  ASN99       0.1688
     96  C         17.1520   47.8660   -5.3770 C.2    99  ASN99       0.2292
     97  O         16.2690   46.9990   -5.3680 O.2    99  ASN99      -0.2864
     98  CB        19.3220   47.5580   -4.1380 C.3    99  ASN99       0.1181
     99  CG        20.2820   48.2720   -3.2140 C.2    99  ASN99       0.2629
    100  OD1       20.7230   49.3860   -3.5150 O.2    99  ASN99      -0.2716
    101  ND2       20.5570   47.6570   -2.0570 N.am   99  ASN99      -0.0877
    102  N         21.0190   45.5070   -9.8090 N.3   103  ASP103     -0.1225
    103  CA        22.1280   46.3910   -9.5640 C.3   103  ASP103      0.1805
    104  C         23.3330   45.6200   -9.0110 C.2   103  ASP103      0.2598
    105  O         23.2030   44.5330   -8.4130 O.2   103  ASP103     -0.2718
    106  CB        21.7490   47.5090   -8.6080 C.3   103  ASP103      0.1424
    107  CG        21.1530   48.7390   -9.2660 C.2   103  ASP103      0.3668
    108  OD1       20.8330   48.7230  -10.4650 O.co2 103  ASP103     -0.2456
    109  OD2       21.0210   49.7700   -8.5120 O.co2 103  ASP103     -0.2456
    110  N         24.5280   46.2070   -9.1570 N.am  104  ASP104     -0.1960
    111  CA        25.7680   45.6020   -8.6590 C.3   104  ASP104      0.1840
    112  C         25.6130   45.1810   -7.2040 C.2   104  ASP104      0.2621
    113  O         26.0610   44.0670   -6.8700 O.2   104  ASP104     -0.2715
    114  CB        26.9190   46.5810   -8.7780 C.3   104  ASP104      0.1450
    115  CG        27.4860   46.7600  -10.1640 C.2   104  ASP104      0.3671
    116  OD1       27.1500   45.9320  -11.0280 O.co2 104  ASP104     -0.2456
    117  OD2       28.2590   47.7150  -10.3350 O.co2 104  ASP104     -0.2456
    118  N         25.0680   46.0190   -6.3560 N.am  105  ILE105     -0.1977
    119  CA        25.0120   45.6910   -4.9410 C.3   105  ILE105      0.1596
    120  C         24.2100   44.4020   -4.7040 C.2   105  ILE105      0.2287
    121  O         24.5140   43.6370   -3.7860 O.2   105  ILE105     -0.2864
    122  CB        24.4770   46.8840   -4.1310 C.3   105  ILE105      0.0276
    123  CG1       24.6230   46.7310   -2.6540 C.3   105  ILE105      0.0022
    124  CG2       23.0260   47.2090   -4.5170 C.3   105  ILE105      0.0022
    125  CD1       25.9750   46.7660   -2.1440 C.3   105  ILE105      0.0001
    126  N         26.3410   41.4950   -5.5650 N.3   108  MET108     -0.1245
    127  CA        27.3350   41.3270   -4.4800 C.3   108  MET108      0.1570
    128  C         26.6940   40.5540   -3.3150 C.2   108  MET108      0.2261
    129  O         27.2780   39.5870   -2.8170 O.2   108  MET108     -0.2867
    130  CB        27.8470   42.6800   -4.0480 C.3   108  MET108      0.0387
    131  CG        28.6550   43.3300   -5.1860 C.3   108  MET108      0.0595
    132  SD        29.0040   45.0870   -4.8910 S.3   108  MET108     -0.1393
    133  CE        30.6440   44.9580   -4.1230 C.3   108  MET108      0.0692
@<TRIPOS>BOND
     1   116   115   ar
     2   108   107   ar
     3   117   115   ar
     4   115   114    1
     5   102   103    1
     6   103   104    1
     7   103   106    1
     8   107   106    1
     9   107   109   ar
    10   110   104   am
    11   110   111    1
    12   104   105    2
    13   114   111    1
    14   111   112    1
    15   112   113    2
    16   112   118   am
    17   118   119    1
    18   126   127    1
    19    96    97    2
    20    96    95    1
    21   131   132    1
    22   131   130    1
    23   119   120    1
    24   119   122    1
    25   132   133    1
    26   120   121    2
    27   124   122    1
    28   127   130    1
    29   127   128    1
    30    95    98    1
    31    95    94    1
    32    98    99    1
    33   122   123    1
    34    12    14   ar
    35    12    10   ar
    36   100    99    2
    37    14    13   ar
    38   128   129    2
    39    99   101   am
    40     9    10   ar
    41     9     7   ar
    42    85    84    2
    43    94    84   am
    44    10     8   ar
    45   123   125    1
    46    84    83    1
    47    13    11   ar
    48     7     6   ar
    49    79    78    2
    50    55    53    1
    51    43    42    2
    52     8    11   ar
    53     8     6   ar
    54    93    92    1
    55    91    92   ar
    56    91    89   ar
    57    81    80    1
    58    20    21    1
    59    20    19    1
    60    92    90   ar
    61    89    87   ar
    62    83    82    1
    63    83    86    1
    64     6     5    1
    65    78    77    1
    66    42    41    1
    67    21    15    1
    68    90    88   ar
    69    87    88   ar
    70    87    86    1
    71    53    54    1
    72    53    52    1
    73    47    45    1
    74    31    32   ar
    75    31    29   ar
    76    32    30   ar
    77    19    16    1
    78    49    48    1
    79    49    52    1
    80    49    50    1
    81    80    77    1
    82    41    44    1
    83    41    40    1
    84    77    76    1
    85    44    45    1
    86     5     2    1
    87    15    16    1
    88    15     3   am
    89    45    46    1
    90     1     2    1
    91    29    27   ar
    92    30    28   ar
    93    16    17    1
    94    50    51    2
    95     2     3    1
    96     3     4    2
    97    27    28   ar
    98    27    26    1
    99    17    18    2
   100    17    22   am
   101    62    64   ar
   102    62    61   ar
   103    56    57    1
   104    64    66   ar
   105    22    23    1
   106    57    60    1
   107    57    58    1
   108    60    61    1
   109    61    63   ar
   110    26    23    1
   111    71    70    2
   112    38    37    1
   113    23    24    1
   114    66    67    1
   115    66    65   ar
   116    58    59    2
   117    39    37    1
   118    70    69    1
   119    63    65   ar
   120    75    74    1
   121    37    34    1
   122    24    25    2
   123    73    74    1
   124    73    72    1
   125    34    35    1
   126    34    33    1
   127    69    72    1
   128    69    68    1
   129    35    36    2
