@<TRIPOS>MOLECULE
tmp/4qb6A00.pdb
 111 106 0 0 0
SMALL
GASTEIGER

@<TRIPOS>ATOM
      1  N        -10.4730   16.3570  -25.7630 N.3    19  GLU19      -0.1245
      2  CA       -10.2710   15.9650  -27.1380 C.3    19  GLU19       0.1567
      3  C        -10.2900   14.4770  -27.3000 C.2    19  GLU19       0.2260
      4  O        -10.3220   13.6980  -26.3270 O.2    19  GLU19      -0.2867
      5  CB        -8.9690   16.5470  -27.6800 C.3    19  GLU19       0.0388
      6  CG        -9.0430   18.0750  -27.7810 C.3    19  GLU19       0.1160
      7  CD        -7.7860   18.7200  -28.2990 C.2    19  GLU19       0.3649
      8  OE1       -6.7130   18.1040  -28.0930 O.co2  19  GLU19      -0.2457
      9  OE2       -7.8980   19.8640  -28.8590 O.co2  19  GLU19      -0.2457
     10  N         -8.6150   13.2360  -30.5000 N.3    21  LEU21      -0.1231
     11  CA        -7.8450   13.1030  -31.7450 C.3    21  LEU21       0.1693
     12  C         -7.0160   11.8290  -31.7520 C.2    21  LEU21       0.2592
     13  O         -6.9680   11.1050  -32.7590 O.2    21  LEU21      -0.2718
     14  CB        -6.9390   14.3270  -31.9090 C.3    21  LEU21       0.0284
     15  CG        -5.9900   14.3500  -33.1020 C.3    21  LEU21       0.0019
     16  CD1       -6.7900   14.2730  -34.3980 C.3    21  LEU21       0.0001
     17  CD2       -5.1330   15.6050  -33.0420 C.3    21  LEU21       0.0001
     18  N         -6.2890   11.5630  -30.6780 N.am   22  TYR22      -0.1976
     19  CA        -5.3840   10.3950  -30.6010 C.3    22  TYR22       0.1639
     20  C         -6.1170    9.2470  -29.9500 C.2    22  TYR22       0.2290
     21  O         -6.7320    9.3980  -28.8940 O.2    22  TYR22      -0.2864
     22  CB        -4.1180   10.7370  -29.8230 C.3    22  TYR22       0.0560
     23  CG        -3.3330   11.7810  -30.5260 C.ar   22  TYR22      -0.0198
     24  CD1       -2.7010   11.5020  -31.7270 C.ar   22  TYR22      -0.0009
     25  CD2       -3.2930   13.0840  -30.0510 C.ar   22  TYR22      -0.0009
     26  CE1       -2.0030   12.4940  -32.4190 C.ar   22  TYR22       0.0417
     27  CE2       -2.6080   14.0590  -30.7310 C.ar   22  TYR22       0.0417
     28  CZ        -1.9980   13.7640  -31.9110 C.ar   22  TYR22       0.1957
     29  OH        -1.2980   14.7770  -32.5640 O.3    22  TYR22      -0.2866
     30  N         -9.7980   12.5930  -23.5860 N.3    30  TYR30      -0.1241
     31  CA        -8.6790   12.9460  -22.7200 C.3    30  TYR30       0.1605
     32  C         -8.6220   14.4460  -22.6700 C.2    30  TYR30       0.2264
     33  O         -9.3130   15.1390  -23.4300 O.2    30  TYR30      -0.2867
     34  CB        -7.3520   12.3330  -23.2160 C.3    30  TYR30       0.0534
     35  CG        -7.0080   12.7160  -24.6240 C.ar   30  TYR30      -0.0201
     36  CD1       -6.3290   13.8830  -24.9100 C.ar   30  TYR30      -0.0009
     37  CD2       -7.3650   11.9040  -25.7000 C.ar   30  TYR30      -0.0009
     38  CE1       -6.0520   14.2620  -26.2000 C.ar   30  TYR30       0.0417
     39  CE2       -7.0810   12.2550  -26.9970 C.ar   30  TYR30       0.0417
     40  CZ        -6.4130   13.4390  -27.2460 C.ar   30  TYR30       0.1957
     41  OH        -6.1570   13.7780  -28.5610 O.3    30  TYR30      -0.2866
     42  N         -6.3780   17.9250  -23.0520 N.3    32  ASN32      -0.1240
     43  CA        -5.2330   18.5620  -23.6090 C.3    32  ASN32       0.1653
     44  C         -5.0220   19.8860  -22.8880 C.2    32  ASN32       0.2266
     45  O         -5.8980   20.7630  -22.9290 O.2    32  ASN32      -0.2867
     46  CB        -5.5040   18.7730  -25.1060 C.3    32  ASN32       0.1155
     47  CG        -4.3760   19.4440  -25.8010 C.2    32  ASN32       0.2627
     48  OD1       -3.4280   19.8640  -25.1750 O.2    32  ASN32      -0.2716
     49  ND2       -4.4700   19.5840  -27.1150 N.am   32  ASN32      -0.0877
     50  N         -3.6970   23.5100  -22.6540 N.3    34  ASN34      -0.1240
     51  CA        -3.3200   24.4380  -23.7290 C.3    34  ASN34       0.1653
     52  C         -2.2680   25.4500  -23.4100 C.2    34  ASN34       0.2266
     53  O         -1.5410   25.8850  -24.3200 O.2    34  ASN34      -0.2867
     54  CB        -4.5380   25.1540  -24.2560 C.3    34  ASN34       0.1155
     55  CG        -5.4910   24.2110  -24.9370 C.2    34  ASN34       0.2627
     56  OD1       -6.6420   24.1420  -24.5680 O.2    34  ASN34      -0.2716
     57  ND2       -4.9770   23.4110  -25.8700 N.am   34  ASN34      -0.0877
     58  N          1.1800   26.9370  -21.4280 N.3    36  TYR36      -0.1241
     59  CA         2.4290   26.4830  -20.8790 C.3    36  TYR36       0.1605
     60  C          2.4670   26.6170  -19.3680 C.2    36  TYR36       0.2264
     61  O          3.1190   25.7790  -18.7040 O.2    36  TYR36      -0.2867
     62  CB         3.6490   27.1680  -21.5280 C.3    36  TYR36       0.0534
     63  CG         4.0930   26.4310  -22.7600 C.ar   36  TYR36      -0.0201
     64  CD1        3.3620   26.4740  -23.9360 C.ar   36  TYR36      -0.0009
     65  CD2        5.2540   25.6730  -22.7440 C.ar   36  TYR36      -0.0009
     66  CE1        3.7870   25.7650  -25.0560 C.ar   36  TYR36       0.0417
     67  CE2        5.6520   24.9560  -23.8480 C.ar   36  TYR36       0.0417
     68  CZ         4.9200   25.0150  -24.9850 C.ar   36  TYR36       0.1957
     69  OH         5.3500   24.3000  -26.0910 O.3    36  TYR36      -0.2866
     70  N          7.5370   17.1640  -19.1640 N.3    67  ARG67      -0.1245
     71  CA         6.6930   18.2920  -18.7920 C.3    67  ARG67       0.1563
     72  C          6.3650   18.1790  -17.3350 C.2    67  ARG67       0.2260
     73  O          6.0680   17.0730  -16.8500 O.2    67  ARG67      -0.2867
     74  CB         5.4490   18.3630  -19.6590 C.3    67  ARG67       0.0307
     75  CG         5.7690   18.5150  -21.1400 C.3    67  ARG67       0.0489
     76  CD         4.5540   18.7080  -22.0160 C.3    67  ARG67       0.2205
     77  NE         4.9400   18.9200  -23.4000 N.pl3  67  ARG67      -0.0865
     78  CZ         4.0930   19.2120  -24.3750 C.cat  67  ARG67       0.5346
     79  NH1        2.8160   19.3310  -24.1440 N.pl3  67  ARG67       0.1354
     80  NH2        4.5240   19.4190  -25.6130 N.pl3  67  ARG67       0.1354
     81  N          1.9090   10.5670  -29.1940 N.3    90  TRP90      -0.1241
     82  CA         0.6630   11.0340  -28.6360 C.3    90  TRP90       0.1605
     83  C         -0.3900    9.9350  -28.5340 C.2    90  TRP90       0.2264
     84  O         -1.4080   10.1140  -27.8890 O.2    90  TRP90      -0.2867
     85  CB         0.0850   12.2360  -29.3810 C.3    90  TRP90       0.0550
     86  CG         0.9330   13.4530  -29.3220 C.ar   90  TRP90       0.0003
     87  CD1        1.5370   14.0710  -30.3660 C.ar   90  TRP90       0.0946
     88  CD2        1.2310   14.2310  -28.1470 C.ar   90  TRP90       0.0152
     89  NE1        2.2260   15.1790  -29.8980 N.ar   90  TRP90      -0.2442
     90  CE2        2.0470   15.2950  -28.5510 C.ar   90  TRP90       0.0810
     91  CE3        0.9090   14.1120  -26.7930 C.ar   90  TRP90       0.0012
     92  CZ2        2.5480   16.2300  -27.6500 C.ar   90  TRP90       0.0191
     93  CZ3        1.3770   15.0590  -25.9210 C.ar   90  TRP90       0.0001
     94  CH2        2.2150   16.0890  -26.3560 C.ar   90  TRP90       0.0015
     95  N          4.0520   23.3380  -20.2240 N.3   117  GLU117     -0.1245
     96  CA         2.7890   22.7840  -20.7430 C.3   117  GLU117      0.1567
     97  C          2.5590   21.4250  -20.0520 C.2   117  GLU117      0.2260
     98  O          3.0740   21.1890  -18.9510 O.2   117  GLU117     -0.2867
     99  CB         2.7740   22.7700  -22.2870 C.3   117  GLU117      0.0388
    100  CG         1.4930   23.2920  -22.9200 C.3   117  GLU117      0.1160
    101  CD         0.6650   22.2660  -23.6620 C.2   117  GLU117      0.3649
    102  OE1        0.4830   21.1330  -23.1580 O.co2 117  GLU117     -0.2457
    103  OE2        0.1380   22.5700  -24.7560 O.co2 117  GLU117     -0.2457
    104  N         -0.9190   15.0420  -22.4480 N.3   120  ASN120     -0.1240
    105  CA        -2.3260   14.8100  -22.6370 C.3   120  ASN120      0.1653
    106  C         -2.7760   13.8050  -21.5670 C.2   120  ASN120      0.2266
    107  O         -2.1160   12.7720  -21.3700 O.2   120  ASN120     -0.2867
    108  CB        -2.6380   14.2810  -24.0140 C.3   120  ASN120      0.1155
    109  CG        -2.4830   15.3100  -25.1010 C.2   120  ASN120      0.2627
    110  OD1       -2.3980   16.5110  -24.8550 O.2   120  ASN120     -0.2716
    111  ND2       -2.5120   14.8390  -26.3380 N.am  120  ASN120     -0.0877
@<TRIPOS>BOND
     1    16    15    1
     2    15    17    1
     3    15    14    1
     4    13    12    2
     5    29    28    1
     6    26    28   ar
     7    26    24   ar
     8    28    27   ar
     9    14    11    1
    10    12    11    1
    11    12    18   am
    12    11    10    1
    13    24    23   ar
    14    27    25   ar
    15    18    19    1
    16    19    20    1
    17    19    22    1
    18    23    25   ar
    19    23    22    1
    20    87    89   ar
    21    87    86   ar
    22    20    21    2
    23    89    90   ar
    24    85    86    1
    25    85    82    1
    26    86    88   ar
    27    81    82    1
    28     9     7   ar
    29    82    83    1
    30    41    40    1
    31    90    88   ar
    32    90    92   ar
    33    83    84    2
    34     7     8   ar
    35     7     6    1
    36    88    91   ar
    37     6     5    1
    38     5     2    1
    39    92    94   ar
    40     3     2    1
    41     3     4    2
    42    40    39   ar
    43    40    38   ar
    44     2     1    1
    45    49    47   am
    46    39    37   ar
    47    91    93   ar
    48    94    93   ar
    49   111   109   am
    50    38    36   ar
    51    69    68    1
    52    57    55   am
    53    47    48    2
    54    47    46    1
    55    37    35   ar
    56    80    78    1
    57    46    43    1
    58   109   110    2
    59   109   108    1
    60    66    68   ar
    61    66    64   ar
    62    68    67   ar
    63    55    56    2
    64    55    54    1
    65    36    35   ar
    66   103   101   ar
    67    35    34    1
    68    78    79    1
    69    78    77    2
    70    53    52    2
    71    54    51    1
    72   108   105    1
    73    64    63   ar
    74    67    65   ar
    75    51    52    1
    76    51    50    1
    77   101   102   ar
    78   101   100    1
    79    43    42    1
    80    43    44    1
    81    30    31    1
    82    33    32    2
    83    77    76    1
    84    34    31    1
    85    45    44    2
    86   100    99    1
    87    63    65   ar
    88    63    62    1
    89    31    32    1
    90   105   104    1
    91   105   106    1
    92    99    96    1
    93    76    75    1
    94   106   107    2
    95    62    59    1
    96    58    59    1
    97    75    74    1
    98    59    60    1
    99    96    95    1
   100    96    97    1
   101    97    98    2
   102    74    71    1
   103    60    61    2
   104    70    71    1
   105    71    72    1
   106    72    73    2
