@<TRIPOS>MOLECULE
tmp/4qb8A00.pdb
 108 100 0 0 0
SMALL
GASTEIGER

@<TRIPOS>ATOM
      1  N        -17.5280   12.3740   -4.1810 N.3    43  CYS43      -0.1221
      2  CA       -16.0700   12.2250   -4.2610 C.3    43  CYS43       0.1808
      3  C        -15.7090   11.7970   -5.6930 C.2    43  CYS43       0.2601
      4  O        -16.4090   12.1780   -6.6390 O.2    43  CYS43      -0.2717
      5  CB       -15.5450   11.3030   -3.1570 C.3    43  CYS43       0.0970
      6  SG       -15.9820   11.9560   -1.5100 S.3    43  CYS43      -0.0800
      7  N        -14.6460   11.0130   -5.8680 N.am   44  SER44      -0.1952
      8  CA       -14.2000   10.6800   -7.2310 C.3    44  SER44       0.1924
      9  C        -15.1400    9.7620   -8.0060 C.2    44  SER44       0.2314
     10  O        -14.8940    9.4900   -9.1760 O.2    44  SER44      -0.2863
     11  CB       -12.7920   10.0720   -7.2380 C.3    44  SER44       0.2116
     12  OG       -12.3610    9.7770   -8.5510 O.3    44  SER44      -0.2180
     13  N         -4.8070   18.7380   -6.3340 N.3    76  SER76      -0.1202
     14  CA        -5.4480   17.6040   -5.6600 C.3    76  SER76       0.2020
     15  C         -4.6580   16.3490   -5.9410 C.2    76  SER76       0.2618
     16  O         -3.7380   16.3690   -6.7560 O.2    76  SER76      -0.2717
     17  CB        -6.8840   17.4350   -6.1560 C.3    76  SER76       0.2103
     18  OG        -6.8970   17.1830   -7.5610 O.3    76  SER76      -0.2182
     19  N         -4.9920   15.2540   -5.2620 N.am   77  ILE77      -0.1979
     20  CA        -4.2900   13.9870   -5.4790 C.3    77  ILE77       0.1595
     21  C         -4.3830   13.5970   -6.9480 C.2    77  ILE77       0.2287
     22  O         -5.4810   13.4390   -7.4880 O.2    77  ILE77      -0.2864
     23  CB        -4.8820   12.8630   -4.6030 C.3    77  ILE77       0.0276
     24  CG1       -4.5290   13.1210   -3.1400 C.3    77  ILE77       0.0022
     25  CG2       -4.3400   11.5040   -5.0380 C.3    77  ILE77       0.0022
     26  CD1       -5.4090   12.4010   -2.1500 C.3    77  ILE77       0.0001
     27  N         -2.0460   11.1260   -9.1280 N.3    79  PRO79      -0.2116
     28  CA        -0.8940   10.2170   -9.2070 C.3    79  PRO79       0.1372
     29  C         -0.2760   10.1680  -10.5960 C.2    79  PRO79       0.2244
     30  O          0.9500   10.0060  -10.7380 O.2    79  PRO79      -0.2868
     31  CB        -1.5120    8.8540   -8.8640 C.3    79  PRO79       0.0268
     32  CG        -2.7240    9.1870   -8.0400 C.3    79  PRO79       0.0207
     33  CD        -3.2650   10.4220   -8.6940 C.3    79  PRO79       0.0892
     34  N         -6.9950    5.8230  -11.2280 N.3   101  TYR101     -0.1227
     35  CA        -6.1780    6.3710  -10.1470 C.3   101  TYR101      0.1736
     36  C         -6.8750    7.4730   -9.3690 C.2   101  TYR101      0.2596
     37  O         -6.2650    8.0610   -8.4740 O.2   101  TYR101     -0.2718
     38  CB        -4.8360    6.8930  -10.6760 C.3   101  TYR101      0.0548
     39  CG        -3.9270    5.7680  -11.1050 C.ar  101  TYR101     -0.0200
     40  CD1       -3.0930    5.1350  -10.1910 C.ar  101  TYR101     -0.0009
     41  CD2       -3.9390    5.3060  -12.4150 C.ar  101  TYR101     -0.0009
     42  CE1       -2.2740    4.0870  -10.5830 C.ar  101  TYR101      0.0417
     43  CE2       -3.1210    4.2570  -12.8100 C.ar  101  TYR101      0.0417
     44  CZ        -2.2990    3.6520  -11.8920 C.ar  101  TYR101      0.1957
     45  OH        -1.4920    2.6010  -12.2880 O.3   101  TYR101     -0.2866
     46  N         -8.1510    7.7180   -9.6750 N.am  102  SER102     -0.1952
     47  CA        -8.8950    8.8240   -9.0610 C.3   102  SER102      0.1924
     48  C         -8.0970   10.1220   -9.1610 C.2   102  SER102      0.2314
     49  O         -8.0120   10.9070   -8.2030 O.2   102  SER102     -0.2863
     50  CB        -9.2390    8.5210   -7.6000 C.3   102  SER102      0.2116
     51  OG       -10.0130    7.3300   -7.5270 O.3   102  SER102     -0.2180
     52  N         -7.2900   13.6740   -9.6640 N.3   104  GLY104     -0.1225
     53  CA        -8.1550   14.8380   -9.5410 C.3   104  GLY104      0.1811
     54  C         -7.8820   15.8820  -10.5970 C.2   104  GLY104      0.2280
     55  O         -8.7910   16.5610  -11.0790 O.2   104  GLY104     -0.2866
     56  N        -12.2520   19.2970   -8.2300 N.3   142  GLU142     -0.1245
     57  CA       -11.3030   18.8210   -7.2160 C.3   142  GLU142      0.1567
     58  C        -10.3910   19.9690   -6.7810 C.2   142  GLU142      0.2260
     59  O         -9.9640   20.7670   -7.6150 O.2   142  GLU142     -0.2867
     60  CB       -10.4650   17.6610   -7.7660 C.3   142  GLU142      0.0388
     61  CG       -11.2660   16.4200   -8.1540 C.3   142  GLU142      0.1160
     62  CD       -11.6660   15.5750   -6.9700 C.2   142  GLU142      0.3649
     63  OE1      -11.3600   15.9570   -5.8220 O.co2 142  GLU142     -0.2457
     64  OE2      -12.3010   14.5220   -7.1780 O.co2 142  GLU142     -0.2457
     65  N        -14.8690   17.4990   -2.3340 N.3   146  ASN146     -0.1240
     66  CA       -14.7590   16.5290   -1.2500 C.3   146  ASN146      0.1653
     67  C        -15.0570   17.1000    0.1150 C.2   146  ASN146      0.2266
     68  O        -15.0990   16.3530    1.1050 O.2   146  ASN146     -0.2867
     69  CB       -13.3510   15.9320   -1.2300 C.3   146  ASN146      0.1155
     70  CG       -12.9830   15.3040   -2.5480 C.2   146  ASN146      0.2627
     71  OD1      -13.5470   14.2790   -2.9290 O.2   146  ASN146     -0.2716
     72  ND2      -12.0550   15.9250   -3.2690 N.am  146  ASN146     -0.0877
     73  N         -7.7120    1.3520   -7.6030 N.3   192  THR192     -0.1218
     74  CA        -7.9500    1.9330   -6.2750 C.3   192  THR192      0.1862
     75  C         -8.9710    1.1960   -5.4150 C.2   192  THR192      0.2287
     76  O         -9.2530    1.6350   -4.2930 O.2   192  THR192     -0.2866
     77  CB        -8.4490    3.3860   -6.3720 C.3   192  THR192      0.1770
     78  OG1       -9.8030    3.3900   -6.8570 O.3   192  THR192     -0.2211
     79  CG2       -7.5650    4.2100   -7.3030 C.3   192  THR192      0.0375
     80  N        -12.3890   -2.5730   -1.4110 N.3   196  ARG196     -0.1245
     81  CA       -13.7810   -2.1530   -1.2870 C.3   196  ARG196      0.1563
     82  C        -14.7630   -3.2060   -1.7860 C.2   196  ARG196      0.2260
     83  O        -14.7980   -4.3040   -1.2380 O.2   196  ARG196     -0.2867
     84  CB       -13.9710   -0.7560   -1.8880 C.3   196  ARG196      0.0307
     85  CG       -13.1980    0.2760   -1.0420 C.3   196  ARG196      0.0489
     86  CD       -13.1840    1.6780   -1.6350 C.3   196  ARG196      0.2205
     87  NE       -12.2000    2.5060   -0.9320 N.pl3 196  ARG196     -0.0865
     88  CZ       -12.2670    3.8290   -0.8050 C.cat 196  ARG196      0.5346
     89  NH1      -13.2940    4.5070   -1.3060 N.pl3 196  ARG196      0.1354
     90  NH2      -11.3070    4.4720   -0.1560 N.pl3 196  ARG196      0.1354
     91  N        -13.9820    4.2040   -7.2690 N.3   211  THR211     -0.1203
     92  CA       -14.0560    4.5570   -5.8540 C.3   211  THR211      0.1994
     93  C        -14.1930    6.0630   -5.6570 C.2   211  THR211      0.2618
     94  O        -14.1060    6.8450   -6.6050 O.2   211  THR211     -0.2717
     95  CB       -12.7770    4.1400   -5.1220 C.3   211  THR211      0.1784
     96  OG1      -11.6500    4.7560   -5.7610 O.3   211  THR211     -0.2211
     97  CG2      -12.6040    2.6330   -5.1510 C.3   211  THR211      0.0376
     98  N        -14.3930    6.4600   -4.4070 N.am  212  GLY212     -0.1942
     99  CA       -14.2940    7.8600   -4.0540 C.3   212  GLY212      0.2014
    100  C        -13.9610    7.9480   -2.5830 C.2   212  GLY212      0.2639
    101  O        -14.4080    7.1070   -1.7970 O.2   212  GLY212     -0.2714
    102  N        -13.1770    8.9510   -2.2090 N.am  213  THR213     -0.1950
    103  CA       -12.8030    9.1290   -0.8110 C.3   213  THR213      0.1897
    104  C        -12.6950   10.6220   -0.5900 C.2   213  THR213      0.2313
    105  O        -12.2600   11.3520   -1.4830 O.2   213  THR213     -0.2863
    106  CB       -11.4400    8.4810   -0.5080 C.3   213  THR213      0.1794
    107  OG1      -11.4720    7.0850   -0.8500 O.3   213  THR213     -0.2208
    108  CG2      -11.0570    8.6430    0.9330 C.3   213  THR213      0.0378
@<TRIPOS>BOND
     1    43    41   ar
     2    43    44   ar
     3    41    39   ar
     4    45    44    1
     5    44    42   ar
     6    34    35    1
     7    39    38    1
     8    39    40   ar
     9    55    54    2
    10    30    29    2
    11    38    35    1
    12    54    53    1
    13    29    28    1
    14    42    40   ar
    15    35    36    1
    16    46    36   am
    17    46    47    1
    18    52    53    1
    19    36    37    2
    20    28    27    1
    21    28    31    1
    22    10     9    2
    23    48    47    1
    24    48    49    2
    25    27    33    1
    26    47    50    1
    27    31    32    1
    28    33    32    1
    29    12    11    1
    30    56    57    1
    31    61    60    1
    32    61    62    1
    33     9     8    1
    34    60    57    1
    35    59    58    2
    36    73    74    1
    37    50    51    1
    38    18    17    1
    39    22    21    2
    40    79    77    1
    41    91    92    1
    42    11     8    1
    43     8     7    1
    44    57    58    1
    45    64    62   ar
    46    62    63   ar
    47    21    20    1
    48    78    77    1
    49    16    15    2
    50     4     3    2
    51    94    93    2
    52    77    74    1
    53    13    14    1
    54    74    75    1
    55    17    14    1
    56    15    14    1
    57    15    19   am
    58     7     3   am
    59    92    93    1
    60    92    95    1
    61    96    95    1
    62     3     2    1
    63    93    98   am
    64    20    19    1
    65    20    23    1
    66    75    76    2
    67    97    95    1
    68    25    23    1
    69    23    24    1
    70    98    99    1
    71     2     1    1
    72     2     5    1
    73    99   100    1
    74    72    70   am
    75     5     6    1
    76    24    26    1
    77    71    70    2
    78   100   102   am
    79   100   101    2
    80    70    69    1
    81    65    66    1
    82   102   103    1
    83    84    81    1
    84    84    85    1
    85    82    81    1
    86    82    83    2
    87    86    85    1
    88    86    87    1
    89   105   104    2
    90    80    81    1
    91    89    88    1
    92    66    69    1
    93    66    67    1
    94    87    88    2
    95   107   106    1
    96   103   104    1
    97   103   106    1
    98    88    90    1
    99   106   108    1
   100    67    68    2
