@<TRIPOS>MOLECULE
tmp/4qb9A00.pdb
 200 196 0 0 0
SMALL
GASTEIGER

@<TRIPOS>ATOM
      1  N         37.2430  -23.6510  -19.2860 N.3    26  PHE26      -0.1241
      2  CA        36.9200  -23.6120  -20.7060 C.3    26  PHE26       0.1605
      3  C         35.4820  -23.1680  -20.9170 C.2    26  PHE26       0.2264
      4  O         35.0810  -22.7980  -22.0340 O.2    26  PHE26      -0.2867
      5  CB        37.1390  -24.9920  -21.3480 C.3    26  PHE26       0.0534
      6  CG        38.5850  -25.3860  -21.4880 C.ar   26  PHE26      -0.0203
      7  CD1       39.4050  -24.7560  -22.4040 C.ar   26  PHE26      -0.0042
      8  CD2       39.1190  -26.4180  -20.7360 C.ar   26  PHE26      -0.0042
      9  CE1       40.7460  -25.1280  -22.5520 C.ar   26  PHE26      -0.0003
     10  CE2       40.4670  -26.7940  -20.8730 C.ar   26  PHE26      -0.0003
     11  CZ        41.2730  -26.1460  -21.7830 C.ar   26  PHE26      -0.0000
     12  N         30.3840  -29.0600  -22.7390 N.3    30  GLU30      -0.1245
     13  CA        30.4580  -29.8150  -24.0000 C.3    30  GLU30       0.1567
     14  C         29.7630  -31.1720  -23.7660 C.2    30  GLU30       0.2260
     15  O         30.1180  -31.8870  -22.8350 O.2    30  GLU30      -0.2867
     16  CB        31.9220  -30.0210  -24.4350 C.3    30  GLU30       0.0388
     17  CG        32.4080  -29.2810  -25.6970 C.3    30  GLU30       0.1160
     18  CD        33.7570  -29.8390  -26.2340 C.2    30  GLU30       0.3649
     19  OE1       34.5310  -30.4250  -25.4390 O.co2  30  GLU30      -0.2457
     20  OE2       34.0380  -29.7200  -27.4570 O.co2  30  GLU30      -0.2457
     21  N         35.7700  -36.9860  -28.3440 N.3    38  TRP38      -0.1241
     22  CA        37.1480  -36.5190  -28.1170 C.3    38  TRP38       0.1605
     23  C         38.0110  -37.5380  -27.3710 C.2    38  TRP38       0.2264
     24  O         39.1990  -37.6940  -27.6850 O.2    38  TRP38      -0.2867
     25  CB        37.1720  -35.1990  -27.3310 C.3    38  TRP38       0.0550
     26  CG        36.7870  -34.0450  -28.1170 C.ar   38  TRP38       0.0003
     27  CD1       35.7650  -33.1890  -27.8650 C.ar   38  TRP38       0.0946
     28  CD2       37.3990  -33.6060  -29.3260 C.ar   38  TRP38       0.0152
     29  NE1       35.7050  -32.2300  -28.8460 N.ar   38  TRP38      -0.2442
     30  CE2       36.7040  -32.4690  -29.7550 C.ar   38  TRP38       0.0810
     31  CE3       38.4750  -34.0590  -30.0840 C.ar   38  TRP38       0.0012
     32  CZ2       37.0520  -31.7810  -30.9110 C.ar   38  TRP38       0.0191
     33  CZ3       38.8150  -33.3750  -31.2210 C.ar   38  TRP38       0.0001
     34  CH2       38.1100  -32.2510  -31.6260 C.ar   38  TRP38       0.0015
     35  N         47.7950  -31.5150  -28.8700 N.3    82  ILE82      -0.1231
     36  CA        47.6990  -31.1260  -27.4730 C.3    82  ILE82       0.1692
     37  C         46.4320  -30.3770  -27.1510 C.2    82  ILE82       0.2593
     38  O         46.0930  -29.4100  -27.8140 O.2    82  ILE82      -0.2718
     39  CB        48.8530  -30.2630  -27.0630 C.3    82  ILE82       0.0266
     40  CG1       50.1620  -30.9460  -27.4610 C.3    82  ILE82       0.0019
     41  CG2       48.7610  -29.9910  -25.5860 C.3    82  ILE82       0.0020
     42  CD1       51.2580  -30.8460  -26.4170 C.3    82  ILE82       0.0001
     43  N         45.7380  -30.8290  -26.1210 N.am   83  SER83      -0.1938
     44  CA        44.4580  -30.2450  -25.7550 C.3    83  SER83       0.2055
     45  C         44.0280  -30.5800  -24.3280 C.2    83  SER83       0.2643
     46  O         44.7660  -31.2090  -23.5680 O.2    83  SER83      -0.2714
     47  CB        43.3780  -30.6870  -26.7380 C.3    83  SER83       0.2130
     48  OG        43.5070  -32.0600  -26.9930 O.3    83  SER83      -0.2179
     49  N         42.8270  -30.1190  -23.9820 N.am   84  PHE84      -0.1959
     50  CA        42.2480  -30.2010  -22.6430 C.3    84  PHE84       0.1771
     51  C         43.2370  -29.8530  -21.5600 C.2    84  PHE84       0.2619
     52  O         43.1050  -30.3260  -20.4170 O.2    84  PHE84      -0.2715
     53  CB        41.6890  -31.5880  -22.3840 C.3    84  PHE84       0.0574
     54  CG        40.4150  -31.8450  -23.0830 C.ar   84  PHE84      -0.0200
     55  CD1       40.4190  -32.4000  -24.3610 C.ar   84  PHE84      -0.0042
     56  CD2       39.2140  -31.5320  -22.4740 C.ar   84  PHE84      -0.0042
     57  CE1       39.2460  -32.6410  -25.0250 C.ar   84  PHE84      -0.0003
     58  CE2       38.0330  -31.7670  -23.1220 C.ar   84  PHE84      -0.0003
     59  CZ        38.0430  -32.3210  -24.4070 C.ar   84  PHE84      -0.0000
     60  N         44.2310  -29.0380  -21.9120 N.am   85  VAL85      -0.1977
     61  CA        45.1830  -28.5750  -20.9160 C.3    85  VAL85       0.1596
     62  C         44.5380  -27.5680  -19.9810 C.2    85  VAL85       0.2287
     63  O         43.9110  -26.6140  -20.4400 O.2    85  VAL85      -0.2864
     64  CB        46.3850  -27.9320  -21.5380 C.3    85  VAL85       0.0276
     65  CG1       47.3080  -27.4480  -20.4400 C.3    85  VAL85       0.0022
     66  CG2       47.0760  -28.9270  -22.4150 C.3    85  VAL85       0.0022
     67  N         48.5190  -27.3030  -31.6270 N.3   118  LEU118     -0.1231
     68  CA        47.4100  -26.8910  -30.7790 C.3   118  LEU118      0.1693
     69  C         46.6640  -25.7250  -31.3910 C.2   118  LEU118      0.2593
     70  O         47.0860  -25.1730  -32.4200 O.2   118  LEU118     -0.2718
     71  CB        47.9080  -26.5150  -29.3930 C.3   118  LEU118      0.0284
     72  CG        49.0590  -25.5080  -29.2690 C.3   118  LEU118      0.0019
     73  CD1       48.5750  -24.0980  -29.1930 C.3   118  LEU118      0.0001
     74  CD2       49.8650  -25.8060  -28.0400 C.3   118  LEU118      0.0001
     75  N         45.5430  -25.3800  -30.7570 N.am  119  THR119     -0.1939
     76  CA        44.8530  -24.1090  -30.9590 C.3   119  THR119      0.2028
     77  C         45.0890  -23.2710  -29.6980 C.2   119  THR119      0.2642
     78  O         45.2850  -23.8200  -28.6210 O.2   119  THR119     -0.2714
     79  CB        43.3680  -24.3270  -31.2070 C.3   119  THR119      0.1808
     80  OG1       42.9220  -25.4240  -30.4050 O.3   119  THR119     -0.2208
     81  CG2       43.1480  -24.7120  -32.6290 C.3   119  THR119      0.0379
     82  N         45.1210  -21.9490  -29.7930 N.am  120  ALA120     -0.1963
     83  CA        45.4290  -21.1860  -28.5710 C.3   120  ALA120      0.1728
     84  C         44.1840  -20.8540  -27.7830 C.2   120  ALA120      0.2616
     85  O         43.1920  -20.3390  -28.3280 O.2   120  ALA120     -0.2715
     86  CB        46.1690  -19.9250  -28.8920 C.3   120  ALA120      0.0334
     87  N         44.2560  -21.1430  -26.4920 N.am  121  SER121     -0.1950
     88  CA        43.1740  -20.8260  -25.5740 C.3   121  SER121      0.1924
     89  C         43.5520  -19.6460  -24.6660 C.2   121  SER121      0.2314
     90  O         44.7170  -19.5260  -24.2620 O.2   121  SER121     -0.2863
     91  CB        42.8150  -22.0800  -24.7790 C.3   121  SER121      0.2116
     92  OG        43.9930  -22.8330  -24.5070 O.3   121  SER121     -0.2180
     93  N         52.7460  -19.7040  -25.0660 N.3   126  TYR126     -0.1241
     94  CA        53.1260  -20.7680  -26.0050 C.3   126  TYR126      0.1605
     95  C         54.4950  -20.6110  -26.6620 C.2   126  TYR126      0.2264
     96  O         55.1270  -21.5910  -27.0660 O.2   126  TYR126     -0.2867
     97  CB        52.0570  -20.8810  -27.0920 C.3   126  TYR126      0.0534
     98  CG        50.6910  -21.2740  -26.5860 C.ar  126  TYR126     -0.0201
     99  CD1       50.4910  -22.5000  -25.9810 C.ar  126  TYR126     -0.0009
    100  CD2       49.5950  -20.4460  -26.7610 C.ar  126  TYR126     -0.0009
    101  CE1       49.2430  -22.8850  -25.5230 C.ar  126  TYR126      0.0417
    102  CE2       48.3280  -20.8310  -26.3200 C.ar  126  TYR126      0.0417
    103  CZ        48.1550  -22.0580  -25.6980 C.ar  126  TYR126      0.1957
    104  OH        46.9040  -22.4640  -25.2440 O.3   126  TYR126     -0.2866
    105  N         43.4940  -17.6750  -39.6330 N.3   137  GLU137     -0.1245
    106  CA        42.0880  -17.6100  -39.9460 C.3   137  GLU137      0.1567
    107  C         41.6700  -16.1750  -40.1700 C.2   137  GLU137      0.2260
    108  O         41.9330  -15.3350  -39.3150 O.2   137  GLU137     -0.2867
    109  CB        41.2440  -18.1910  -38.8340 C.3   137  GLU137      0.0388
    110  CG        39.7860  -18.2480  -39.2630 C.3   137  GLU137      0.1160
    111  CD        38.8600  -18.7840  -38.1960 C.2   137  GLU137      0.3649
    112  OE1       38.3730  -17.9410  -37.3920 O.co2 137  GLU137     -0.2457
    113  OE2       38.6270  -20.0290  -38.1730 O.co2 137  GLU137     -0.2457
    114  N         39.6320  -36.6000  -39.7390 N.3   188  ARG188     -0.1245
    115  CA        38.4980  -36.4360  -38.8630 C.3   188  ARG188      0.1563
    116  C         37.7790  -37.7800  -38.7530 C.2   188  ARG188      0.2260
    117  O         37.1310  -38.2380  -39.7040 O.2   188  ARG188     -0.2867
    118  CB        37.5870  -35.3330  -39.4120 C.3   188  ARG188      0.0307
    119  CG        36.3750  -34.9800  -38.5880 C.3   188  ARG188      0.0489
    120  CD        35.4700  -34.0980  -39.4230 C.3   188  ARG188      0.2205
    121  NE        35.1560  -32.8340  -38.7700 N.pl3 188  ARG188     -0.0865
    122  CZ        34.8010  -31.7330  -39.4200 C.cat 188  ARG188      0.5346
    123  NH1       34.7260  -31.7420  -40.7410 N.pl3 188  ARG188      0.1354
    124  NH2       34.5290  -30.6230  -38.7420 N.pl3 188  ARG188      0.1354
    125  N         30.0090  -22.3280  -41.2310 N.3   237  VAL237     -0.1231
    126  CA        30.7190  -23.0630  -40.1810 C.3   237  VAL237      0.1692
    127  C         31.8200  -23.9560  -40.7220 C.2   237  VAL237      0.2591
    128  O         32.8350  -24.2270  -40.0600 O.2   237  VAL237     -0.2718
    129  CB        29.7510  -23.9100  -39.3930 C.3   237  VAL237      0.0266
    130  CG1       30.4630  -24.5740  -38.1910 C.3   237  VAL237      0.0020
    131  CG2       28.6140  -23.0400  -38.9370 C.3   237  VAL237      0.0020
    132  N         31.5920  -24.4190  -41.9410 N.am  238  GLU238     -0.1979
    133  CA        32.6040  -25.1230  -42.7130 C.3   238  GLU238      0.1602
    134  C         32.2230  -24.9680  -44.1710 C.2   238  GLU238      0.2287
    135  O         31.0520  -25.1590  -44.5050 O.2   238  GLU238     -0.2864
    136  CB        32.6650  -26.5850  -42.3100 C.3   238  GLU238      0.0415
    137  CG        33.8590  -27.3530  -42.7930 C.3   238  GLU238      0.1163
    138  CD        33.9520  -28.7200  -42.1050 C.2   238  GLU238      0.3649
    139  OE1       32.8950  -29.2890  -41.7590 O.co2 238  GLU238     -0.2457
    140  OE2       35.0850  -29.2280  -41.9140 O.co2 238  GLU238     -0.2457
    141  N         42.9960  -13.8360  -37.2570 N.3   289  ALA289     -0.1231
    142  CA        43.3570  -14.4710  -36.0110 C.3   289  ALA289      0.1694
    143  C         44.3790  -15.6040  -36.2240 C.2   289  ALA289      0.2592
    144  O         44.5300  -16.1320  -37.3270 O.2   289  ALA289     -0.2718
    145  CB        42.1070  -14.9860  -35.3350 C.3   289  ALA289      0.0304
    146  N         45.1080  -15.9410  -35.1710 N.am  290  ASP290     -0.1960
    147  CA        45.8770  -17.1600  -35.1680 C.3   290  ASP290      0.1840
    148  C         44.9010  -18.3090  -35.2870 C.2   290  ASP290      0.2622
    149  O         43.7790  -18.2140  -34.8040 O.2   290  ASP290     -0.2715
    150  CB        46.6990  -17.2870  -33.8820 C.3   290  ASP290      0.1450
    151  CG        45.8250  -17.2990  -32.6070 C.2   290  ASP290      0.3671
    152  OD1       45.3780  -16.2030  -32.1550 O.co2 290  ASP290     -0.2456
    153  OD2       45.5990  -18.4160  -32.0520 O.co2 290  ASP290     -0.2456
    154  N         45.2960  -19.3990  -35.9320 N.am  291  ASP291     -0.1971
    155  CA        44.5150  -20.6290  -35.7820 C.3   291  ASP291      0.1709
    156  C         45.3630  -21.7620  -35.1800 C.2   291  ASP291      0.2293
    157  O         45.3740  -21.9680  -33.9430 O.2   291  ASP291     -0.2864
    158  CB        43.9050  -21.0740  -37.1120 C.3   291  ASP291      0.1436
    159  CG        42.6100  -21.8820  -36.9190 C.2   291  ASP291      0.3671
    160  OD1       42.5470  -22.6960  -35.9530 O.co2 291  ASP291     -0.2456
    161  OD2       41.6530  -21.6990  -37.7230 O.co2 291  ASP291     -0.2456
    162  N         43.6170  -24.9420  -41.1660 N.3   398  LEU398     -0.1231
    163  CA        43.3200  -26.0180  -40.2210 C.3   398  LEU398      0.1693
    164  C         41.9070  -26.5730  -40.4640 C.2   398  LEU398      0.2593
    165  O         40.9470  -25.8110  -40.6380 O.2   398  LEU398     -0.2718
    166  CB        43.4480  -25.5250  -38.7860 C.3   398  LEU398      0.0284
    167  CG        43.1140  -26.5170  -37.6770 C.3   398  LEU398      0.0019
    168  CD1       44.3270  -27.3060  -37.2790 C.3   398  LEU398      0.0001
    169  CD2       42.5760  -25.7490  -36.5080 C.3   398  LEU398      0.0001
    170  N         41.7800  -27.8970  -40.4730 N.am  399  GLY399     -0.1942
    171  CA        40.5140  -28.5550  -40.7790 C.3   399  GLY399      0.2014
    172  C         39.4060  -28.3140  -39.7680 C.2   399  GLY399      0.2639
    173  O         38.2580  -28.0350  -40.1340 O.2   399  GLY399     -0.2714
    174  N         39.7540  -28.4350  -38.4920 N.am  400  TYR400     -0.1959
    175  CA        38.8370  -28.1450  -37.3940 C.3   400  TYR400      0.1771
    176  C         39.6280  -27.8360  -36.1470 C.2   400  TYR400      0.2620
    177  O         40.8030  -28.1670  -36.0460 O.2   400  TYR400     -0.2715
    178  CB        37.8860  -29.3080  -37.1150 C.3   400  TYR400      0.0574
    179  CG        38.5900  -30.6430  -36.9610 C.ar  400  TYR400     -0.0198
    180  CD1       39.0740  -31.0730  -35.7270 C.ar  400  TYR400     -0.0009
    181  CD2       38.7740  -31.4760  -38.0600 C.ar  400  TYR400     -0.0009
    182  CE1       39.7250  -32.2920  -35.6070 C.ar  400  TYR400      0.0417
    183  CE2       39.4160  -32.6880  -37.9430 C.ar  400  TYR400      0.0417
    184  CZ        39.8870  -33.0830  -36.7220 C.ar  400  TYR400      0.1957
    185  OH        40.5070  -34.2870  -36.6410 O.3   400  TYR400     -0.2866
    186  N         38.9600  -27.2140  -35.1910 N.am  401  GLY401     -0.1940
    187  CA        39.5960  -26.8470  -33.9530 C.3   401  GLY401      0.2014
    188  C         39.5040  -27.9440  -32.9200 C.2   401  GLY401      0.2638
    189  O         38.6050  -28.7810  -32.9670 O.2   401  GLY401     -0.2714
    190  N         40.4430  -27.9010  -31.9780 N.am  402  PHE402     -0.1973
    191  CA        40.5740  -28.8560  -30.8910 C.3   402  PHE402      0.1639
    192  C         41.2860  -28.1620  -29.7080 C.2   402  PHE402      0.2290
    193  O         41.7600  -28.7920  -28.7550 O.2   402  PHE402     -0.2864
    194  CB        41.3380  -30.1010  -31.3750 C.3   402  PHE402      0.0560
    195  CG        42.7150  -29.8040  -31.8830 C.ar  402  PHE402     -0.0200
    196  CD1       42.9110  -29.3600  -33.1720 C.ar  402  PHE402     -0.0042
    197  CD2       43.8130  -29.9300  -31.0570 C.ar  402  PHE402     -0.0042
    198  CE1       44.1890  -29.0710  -33.6440 C.ar  402  PHE402     -0.0003
    199  CE2       45.0900  -29.6410  -31.5230 C.ar  402  PHE402     -0.0003
    200  CZ        45.2740  -29.2160  -32.8210 C.ar  402  PHE402     -0.0000
@<TRIPOS>BOND
     1   135   134    2
     2   134   133    1
     3   137   136    1
     4   137   138    1
     5   133   136    1
     6   133   132    1
     7   138   140   ar
     8   138   139   ar
     9   132   127   am
    10   125   126    1
    11   162   163    1
    12   171   170    1
    13   171   172    1
    14   123   122    1
    15   127   126    1
    16   127   128    2
    17   165   164    2
    18   170   164   am
    19   164   163    1
    20   163   166    1
    21   126   129    1
    22   107   106    1
    23   107   108    2
    24   173   172    2
    25   106   105    1
    26   106   109    1
    27   172   174   am
    28   114   115    1
    29   117   116    2
    30   120   121    1
    31   120   119    1
    32   122   121    2
    33   122   124    1
    34   118   115    1
    35   118   119    1
    36   129   131    1
    37   129   130    1
    38   110   109    1
    39   110   111    1
    40   115   116    1
    41   166   167    1
    42   174   175    1
    43   111   113   ar
    44   111   112   ar
    45   181   183   ar
    46   181   179   ar
    47   183   184   ar
    48   161   159   ar
    49   167   168    1
    50   167   169    1
    51   175   178    1
    52   175   176    1
    53   144   143    2
    54   141   142    1
    55   178   179    1
    56   158   159    1
    57   158   155    1
    58   179   180   ar
    59   159   160   ar
    60   184   185    1
    61   184   182   ar
    62   143   142    1
    63   143   146   am
    64   176   177    2
    65   176   186   am
    66   142   145    1
    67   154   155    1
    68   154   148   am
    69   155   156    1
    70   180   182   ar
    71   148   147    1
    72   148   149    2
    73   186   187    1
    74   156   157    2
    75   146   147    1
    76   147   150    1
    77   187   188    1
    78   150   151    1
    79   198   196   ar
    80   198   200   ar
    81   196   195   ar
    82   189   188    2
    83   188   190   am
    84   200   199   ar
    85    81    79    1
    86   151   152   ar
    87   151   153   ar
    88    70    69    2
    89   190   191    1
    90   195   194    1
    91   195   197   ar
    92    67    68    1
    93    34    33   ar
    94    34    32   ar
    95   199   197   ar
    96    69    68    1
    97    69    75   am
    98   194   191    1
    99    33    31   ar
   100    79    76    1
   101    79    80    1
   102    76    75    1
   103    76    77    1
   104    32    30   ar
   105   191   192    1
   106    68    71    1
   107    31    28   ar
   108    82    77   am
   109    82    83    1
   110    30    28   ar
   111    30    29   ar
   112   192   193    2
   113    77    78    2
   114    71    72    1
   115    28    26   ar
   116    72    73    1
   117    72    74    1
   118    86    83    1
   119    35    36    1
   120    29    27   ar
   121    83    84    1
   122    21    22    1
   123    85    84    2
   124    22    23    1
   125    22    25    1
   126    26    27   ar
   127    26    25    1
   128    38    37    2
   129    84    87   am
   130    24    23    2
   131    36    37    1
   132    36    39    1
   133    40    39    1
   134    40    42    1
   135    20    18   ar
   136    37    43   am
   137    97    98    1
   138    97    94    1
   139    96    95    2
   140    39    41    1
   141    48    47    1
   142   100    98   ar
   143   100   102   ar
   144    47    44    1
   145    95    94    1
   146    98    99   ar
   147    87    88    1
   148   102   103   ar
   149    18    17    1
   150    18    19   ar
   151    43    44    1
   152    94    93    1
   153    99   101   ar
   154    44    45    1
   155   103   101   ar
   156   103   104    1
   157    17    16    1
   158    88    91    1
   159    88    89    1
   160    57    59   ar
   161    57    55   ar
   162    91    92    1
   163    89    90    2
   164    16    13    1
   165    59    58   ar
   166    55    54   ar
   167    45    49   am
   168    45    46    2
   169    13    14    1
   170    13    12    1
   171    49    50    1
   172    14    15    2
   173    58    56   ar
   174    54    56   ar
   175    54    53    1
   176    50    53    1
   177    50    51    1
   178     9     7   ar
   179     9    11   ar
   180    66    64    1
   181     7     6   ar
   182     4     3    2
   183    60    51   am
   184    60    61    1
   185    11    10   ar
   186    51    52    2
   187    64    61    1
   188    64    65    1
   189     6     5    1
   190     6     8   ar
   191     5     2    1
   192     3     2    1
   193    61    62    1
   194    10     8   ar
   195     2     1    1
   196    63    62    2
