@<TRIPOS>MOLECULE
tmp/4qbjA01.pdb
 254 245 0 0 0
SMALL
GASTEIGER

@<TRIPOS>ATOM
      1  N         20.1810   -7.2020   16.5320 N.3    51  TYR51      -0.1241
      2  CA        20.3550   -5.9810   17.3210 C.3    51  TYR51       0.1605
      3  C         20.6570   -6.3640   18.7650 C.2    51  TYR51       0.2264
      4  O         19.8110   -6.2950   19.6370 O.2    51  TYR51      -0.2867
      5  CB        19.0780   -5.1320   17.2840 C.3    51  TYR51       0.0534
      6  CG        19.2670   -3.7810   17.8470 C.ar   51  TYR51      -0.0201
      7  CD1       19.8460   -2.7840   17.0990 C.ar   51  TYR51      -0.0009
      8  CD2       18.9090   -3.5030   19.1720 C.ar   51  TYR51      -0.0009
      9  CE1       20.0180   -1.5100   17.6330 C.ar   51  TYR51       0.0417
     10  CE2       19.0830   -2.2310   19.7060 C.ar   51  TYR51       0.0417
     11  CZ        19.6150   -1.2410   18.9200 C.ar   51  TYR51       0.1957
     12  OH        19.8030   -0.0040   19.4730 O.3    51  TYR51      -0.2866
     13  N         23.1510   -5.1660   21.3700 N.3    53  GLU53      -0.1245
     14  CA        24.1900   -4.1730   21.7300 C.3    53  GLU53       0.1567
     15  C         25.3290   -4.8300   22.5290 C.2    53  GLU53       0.2260
     16  O         26.4910   -4.4150   22.4060 O.2    53  GLU53      -0.2867
     17  CB        23.6540   -2.9760   22.5300 C.3    53  GLU53       0.0388
     18  CG        22.3080   -2.3850   22.0780 C.3    53  GLU53       0.1160
     19  CD        22.0180   -0.9510   22.6060 C.2    53  GLU53       0.3649
     20  OE1       22.9340   -0.2510   23.1330 O.co2  53  GLU53      -0.2457
     21  OE2       20.8550   -0.4930   22.4740 O.co2  53  GLU53      -0.2457
     22  N         19.5920  -11.3200   28.4130 N.3    59  PHE59      -0.1241
     23  CA        18.2840  -11.0040   27.8350 C.3    59  PHE59       0.1605
     24  C         18.4700  -10.3480   26.4840 C.2    59  PHE59       0.2264
     25  O         19.5150   -9.7510   26.2900 O.2    59  PHE59      -0.2867
     26  CB        17.6640  -10.0180   28.7790 C.3    59  PHE59       0.0534
     27  CG        17.7450  -10.4870   30.1910 C.ar   59  PHE59      -0.0203
     28  CD1       16.9160  -11.4770   30.6230 C.ar   59  PHE59      -0.0042
     29  CD2       18.7200  -10.0090   31.0530 C.ar   59  PHE59      -0.0042
     30  CE1       17.0140  -11.9460   31.9160 C.ar   59  PHE59      -0.0003
     31  CE2       18.8120  -10.4750   32.3610 C.ar   59  PHE59      -0.0003
     32  CZ        17.9570  -11.4490   32.7820 C.ar   59  PHE59      -0.0000
     33  N         16.1700   -7.7640   23.5580 N.3    61  PHE61      -0.1241
     34  CA        14.9080   -7.0410   23.4280 C.3    61  PHE61       0.1605
     35  C         13.9760   -7.8040   22.5810 C.2    61  PHE61       0.2264
     36  O         14.3530   -8.4460   21.6380 O.2    61  PHE61      -0.2867
     37  CB        15.1220   -5.6580   22.8350 C.3    61  PHE61       0.0534
     38  CG        15.9830   -4.7930   23.6900 C.ar   61  PHE61      -0.0203
     39  CD1       15.5570   -4.4080   24.9200 C.ar   61  PHE61      -0.0042
     40  CD2       17.2380   -4.3590   23.2440 C.ar   61  PHE61      -0.0042
     41  CE1       16.3690   -3.6220   25.7260 C.ar   61  PHE61      -0.0003
     42  CE2       18.0630   -3.5520   24.0380 C.ar   61  PHE61      -0.0003
     43  CZ        17.6100   -3.1520   25.2900 C.ar   61  PHE61      -0.0000
     44  N         10.8180   -6.8090   20.2690 N.3    63  TYR63      -0.1241
     45  CA        10.0280   -5.6860   19.7780 C.3    63  TYR63       0.1605
     46  C          8.6090   -6.0690   19.4310 C.2    63  TYR63       0.2264
     47  O          8.2850   -7.2280   19.0650 O.2    63  TYR63      -0.2867
     48  CB        10.7290   -5.0210   18.5570 C.3    63  TYR63       0.0534
     49  CG        12.1620   -4.6540   18.8930 C.ar   63  TYR63      -0.0201
     50  CD1       13.1730   -5.5680   18.7380 C.ar   63  TYR63      -0.0009
     51  CD2       12.4800   -3.4280   19.4440 C.ar   63  TYR63      -0.0009
     52  CE1       14.4860   -5.2500   19.0610 C.ar   63  TYR63       0.0417
     53  CE2       13.7760   -3.1120   19.7800 C.ar   63  TYR63       0.0417
     54  CZ        14.7670   -4.0280   19.5880 C.ar   63  TYR63       0.1957
     55  OH        16.0590   -3.7560   19.9330 O.3    63  TYR63      -0.2866
     56  N          5.6040   -0.9540   19.0760 N.3    67  PHE67      -0.1241
     57  CA         6.7440   -0.1460   19.5850 C.3    67  PHE67       0.1605
     58  C          7.4890    0.4660   18.3640 C.2    67  PHE67       0.2264
     59  O          7.9090    1.6560   18.3660 O.2    67  PHE67      -0.2867
     60  CB         7.6820   -1.0420   20.4060 C.3    67  PHE67       0.0534
     61  CG         8.9190   -0.3440   20.8590 C.ar   67  PHE67      -0.0203
     62  CD1        8.9260    0.3590   22.0520 C.ar   67  PHE67      -0.0042
     63  CD2       10.0850   -0.4190   20.0900 C.ar   67  PHE67      -0.0042
     64  CE1       10.0800    1.0250   22.4860 C.ar   67  PHE67      -0.0003
     65  CE2       11.2480    0.2210   20.4910 C.ar   67  PHE67      -0.0003
     66  CZ        11.2470    0.9210   21.7000 C.ar   67  PHE67      -0.0000
     67  N         18.7980    6.0270   15.8200 N.3   117  ASN117     -0.1225
     68  CA        18.7460    4.7320   16.5520 C.3   117  ASN117      0.1785
     69  C         18.6340    3.5770   15.5560 C.2   117  ASN117      0.2597
     70  O         18.6550    3.8000   14.3130 O.2   117  ASN117     -0.2718
     71  CB        17.6500    4.6920   17.6420 C.3   117  ASN117      0.1169
     72  CG        16.3540    5.3250   17.2050 C.2   117  ASN117      0.2627
     73  OD1       15.8760    5.0670   16.1130 O.2   117  ASN117     -0.2716
     74  ND2       15.7740    6.1510   18.0640 N.am  117  ASN117     -0.0877
     75  N         18.5800    2.3710   16.1100 N.am  118  PHE118     -0.1976
     76  CA        18.3710    1.1660   15.3690 C.3   118  PHE118      0.1639
     77  C         19.4910    1.0420   14.3660 C.2   118  PHE118      0.2290
     78  O         19.3220    0.4480   13.2910 O.2   118  PHE118     -0.2864
     79  CB        16.9880    1.0880   14.6930 C.3   118  PHE118      0.0560
     80  CG        15.8110    1.1920   15.6670 C.ar  118  PHE118     -0.0200
     81  CD1       15.4460    0.1230   16.4520 C.ar  118  PHE118     -0.0042
     82  CD2       15.0780    2.3770   15.7930 C.ar  118  PHE118     -0.0042
     83  CE1       14.3580    0.1940   17.3290 C.ar  118  PHE118     -0.0003
     84  CE2       14.0080    2.4670   16.6940 C.ar  118  PHE118     -0.0003
     85  CZ        13.6570    1.3620   17.4590 C.ar  118  PHE118     -0.0000
     86  N         22.4270    7.9210   21.6160 N.3   153  THR153     -0.1218
     87  CA        23.0090    7.3960   22.8560 C.3   153  THR153      0.1862
     88  C         23.6460    6.1010   22.4930 C.2   153  THR153      0.2287
     89  O         23.3200    5.5020   21.4620 O.2   153  THR153     -0.2866
     90  CB        21.9860    7.1040   23.9610 C.3   153  THR153      0.1770
     91  OG1       21.0090    6.2260   23.4060 O.3   153  THR153     -0.2211
     92  CG2       21.2790    8.3720   24.3290 C.3   153  THR153      0.0375
     93  N         22.3030    3.0590   34.6860 N.3   167  TYR167     -0.1227
     94  CA        21.0670    2.2820   34.7930 C.3   167  TYR167      0.1736
     95  C         20.6460    2.0140   36.2490 C.2   167  TYR167      0.2595
     96  O         21.5010    1.6270   37.0440 O.2   167  TYR167     -0.2718
     97  CB        21.3370    0.8950   34.2640 C.3   167  TYR167      0.0548
     98  CG        21.6450    0.8010   32.8440 C.ar  167  TYR167     -0.0200
     99  CD1       21.4380    1.8440   31.9960 C.ar  167  TYR167     -0.0009
    100  CD2       22.1040   -0.4050   32.3250 C.ar  167  TYR167     -0.0009
    101  CE1       21.7170    1.7290   30.6240 C.ar  167  TYR167      0.0417
    102  CE2       22.3900   -0.5400   30.9880 C.ar  167  TYR167      0.0417
    103  CZ        22.1900    0.5240   30.1440 C.ar  167  TYR167      0.1957
    104  OH        22.4640    0.3100   28.8520 O.3   167  TYR167     -0.2866
    105  N         19.3370    2.0760   36.5510 N.am  168  TYR168     -0.1962
    106  CA        18.8510    1.7360   37.8890 C.3   168  TYR168      0.1771
    107  C         17.6350    0.8730   37.6540 C.2   168  TYR168      0.2619
    108  O         16.9730    1.0350   36.6060 O.2   168  TYR168     -0.2715
    109  CB        18.4530    2.9960   38.7150 C.3   168  TYR168      0.0574
    110  CG        19.5940    3.3980   39.6100 C.ar  168  TYR168     -0.0198
    111  CD1       20.6830    4.0700   39.0980 C.ar  168  TYR168     -0.0009
    112  CD2       19.6310    3.0140   40.9390 C.ar  168  TYR168     -0.0009
    113  CE1       21.7920    4.3560   39.8760 C.ar  168  TYR168      0.0417
    114  CE2       20.7100    3.3490   41.7580 C.ar  168  TYR168      0.0417
    115  CZ        21.7860    4.0230   41.2070 C.ar  168  TYR168      0.1957
    116  OH        22.8780    4.3360   41.9690 O.3   168  TYR168     -0.2866
    117  N         17.3420   -0.0360   38.5820 N.am  169  HIS169     -0.1973
    118  CA        16.2880   -1.1170   38.3340 C.3   169  HIS169      0.1656
    119  C         15.5130   -1.2530   39.6280 C.2   169  HIS169      0.2291
    120  O         16.1180   -1.3370   40.6300 O.2   169  HIS169     -0.2864
    121  CB        16.9000   -2.4750   38.0350 C.3   169  HIS169      0.0771
    122  CG        17.9720   -2.4730   37.0020 C.ar  169  HIS169      0.0820
    123  ND1       17.7180   -2.2650   35.6600 N.ar  169  HIS169     -0.2267
    124  CD2       19.3180   -2.7020   37.1030 C.ar  169  HIS169      0.1154
    125  CE1       18.8590   -2.3460   34.9800 C.ar  169  HIS169      0.1986
    126  NE2       19.8380   -2.6440   35.8250 N.ar  169  HIS169     -0.2212
    127  N         12.5310  -12.0690   39.0320 N.3   177  LEU177     -0.1245
    128  CA        13.8590  -11.5570   38.6710 C.3   177  LEU177      0.1561
    129  C         14.9640  -12.4370   39.2720 C.2   177  LEU177      0.2260
    130  O         16.0010  -12.6230   38.6880 O.2   177  LEU177     -0.2867
    131  CB        14.0200  -10.1260   39.1100 C.3   177  LEU177      0.0270
    132  CG        13.1390   -9.0390   38.4360 C.3   177  LEU177      0.0019
    133  CD1       13.4960   -7.6310   39.0050 C.3   177  LEU177      0.0001
    134  CD2       13.2670   -9.0430   36.8940 C.3   177  LEU177      0.0001
    135  N         18.5230  -12.3630   37.2740 N.3   182  PHE182     -0.1241
    136  CA        18.8170  -10.9260   37.3440 C.3   182  PHE182      0.1605
    137  C         19.2890  -10.4350   38.7520 C.2   182  PHE182      0.2264
    138  O         20.0970   -9.5410   38.8580 O.2   182  PHE182     -0.2867
    139  CB        17.5630  -10.1680   36.9660 C.3   182  PHE182      0.0534
    140  CG        17.7050   -8.7080   37.0310 C.ar  182  PHE182     -0.0203
    141  CD1       18.0940   -7.9980   35.9280 C.ar  182  PHE182     -0.0042
    142  CD2       17.3760   -8.0280   38.1930 C.ar  182  PHE182     -0.0042
    143  CE1       18.1740   -6.6100   35.9690 C.ar  182  PHE182     -0.0003
    144  CE2       17.4800   -6.6450   38.2510 C.ar  182  PHE182     -0.0003
    145  CZ        17.8640   -5.9460   37.1320 C.ar  182  PHE182     -0.0000
    146  N          7.2190    3.6190   29.4090 N.3   278  TYR278     -0.1241
    147  CA         6.8930    2.7960   28.2570 C.3   278  TYR278      0.1605
    148  C          7.3490    1.3850   28.4510 C.2   278  TYR278      0.2264
    149  O          8.1560    1.1060   29.3310 O.2   278  TYR278     -0.2867
    150  CB         7.5320    3.3560   26.9400 C.3   278  TYR278      0.0534
    151  CG         9.0740    3.4080   26.9220 C.ar  278  TYR278     -0.0201
    152  CD1        9.8460    2.3690   26.3990 C.ar  278  TYR278     -0.0009
    153  CD2        9.7430    4.5400   27.3500 C.ar  278  TYR278     -0.0009
    154  CE1       11.2670    2.4300   26.4080 C.ar  278  TYR278      0.0417
    155  CE2       11.1610    4.6270   27.3330 C.ar  278  TYR278      0.0417
    156  CZ        11.9120    3.5810   26.8560 C.ar  278  TYR278      0.1957
    157  OH        13.2980    3.7240   26.8750 O.3   278  TYR278     -0.2866
    158  N          8.8890   -2.1570   27.1330 N.3   280  LEU280     -0.1245
    159  CA         9.6960   -2.8610   26.1450 C.3   280  LEU280      0.1561
    160  C         10.0680   -4.1720   26.7870 C.2   280  LEU280      0.2260
    161  O         10.7690   -4.1790   27.8030 O.2   280  LEU280     -0.2867
    162  CB        10.9870   -2.0860   25.7660 C.3   280  LEU280      0.0270
    163  CG        11.8980   -2.6450   24.6150 C.3   280  LEU280      0.0019
    164  CD1       11.2020   -2.7590   23.2630 C.3   280  LEU280      0.0001
    165  CD2       13.1260   -1.7570   24.4520 C.3   280  LEU280      0.0001
    166  N         11.7740   -8.0510   27.1970 N.3   282  SER282     -0.1217
    167  CA        13.0630   -8.7210   26.9850 C.3   282  SER282      0.1889
    168  C         12.8650  -10.2340   27.0000 C.2   282  SER282      0.2288
    169  O         12.1080  -10.7420   27.8070 O.2   282  SER282     -0.2866
    170  CB        14.0440   -8.3060   28.0620 C.3   282  SER282      0.2089
    171  OG        14.5700   -7.0660   27.6810 O.3   282  SER282     -0.2183
    172  N         10.8330  -11.0360   30.2760 N.3   293  VAL293     -0.1245
    173  CA        10.7510  -10.1290   31.4130 C.3   293  VAL293      0.1561
    174  C         10.0710   -8.8920   30.8300 C.2   293  VAL293      0.2260
    175  O         10.4690   -8.4200   29.7420 O.2   293  VAL293     -0.2867
    176  CB        12.1600   -9.7390   31.8880 C.3   293  VAL293      0.0252
    177  CG1       12.0940   -8.6220   32.9290 C.3   293  VAL293      0.0019
    178  CG2       12.8160  -10.9780   32.5130 C.3   293  VAL293      0.0019
    179  N          9.4920   -5.1730   31.0240 N.3   295  ALA295     -0.1245
    180  CA        10.1690   -4.0880   31.7480 C.3   295  ALA295      0.1562
    181  C          9.4880   -2.7660   31.3680 C.2   295  ALA295      0.2260
    182  O          9.1610   -2.6060   30.2220 O.2   295  ALA295     -0.2867
    183  CB        11.6480   -4.0490   31.3570 C.3   295  ALA295      0.0290
    184  N         10.0260    1.3580   31.3510 N.3   297  TYR297     -0.1241
    185  CA        11.1000    2.3200   31.4130 C.3   297  TYR297      0.1605
    186  C         10.5120    3.7230   31.7380 C.2   297  TYR297      0.2264
    187  O          9.5960    4.2180   31.0480 O.2   297  TYR297     -0.2867
    188  CB        11.8070    2.3730   30.0300 C.3   297  TYR297      0.0534
    189  CG        12.5910    1.0760   29.6850 C.ar  297  TYR297     -0.0201
    190  CD1       11.9240   -0.1040   29.3140 C.ar  297  TYR297     -0.0009
    191  CD2       13.9850    1.0440   29.7680 C.ar  297  TYR297     -0.0009
    192  CE1       12.6240   -1.2460   28.9810 C.ar  297  TYR297      0.0417
    193  CE2       14.7060   -0.1380   29.5350 C.ar  297  TYR297      0.0417
    194  CZ        14.0150   -1.2760   29.1730 C.ar  297  TYR297      0.1957
    195  OH        14.7630   -2.4070   28.8750 O.3   297  TYR297     -0.2866
    196  N          9.7490   -5.3390   36.2510 N.3   336  VAL336     -0.1245
    197  CA        10.8780   -4.5370   36.7070 C.3   336  VAL336      0.1561
    198  C         10.6280   -3.1130   36.1750 C.2   336  VAL336      0.2260
    199  O         10.0000   -2.9400   35.1580 O.2   336  VAL336     -0.2867
    200  CB        12.2340   -5.1070   36.2060 C.3   336  VAL336      0.0252
    201  CG1       12.3170   -5.1710   34.6770 C.3   336  VAL336      0.0019
    202  CG2       13.3840   -4.2670   36.7720 C.3   336  VAL336      0.0019
    203  N         12.6360    0.4040   35.1240 N.3   338  ASN338     -0.1225
    204  CA        14.0110    0.8720   34.8450 C.3   338  ASN338      0.1785
    205  C         14.0240    2.3860   34.7750 C.2   338  ASN338      0.2597
    206  O         13.0370    3.0200   34.2700 O.2   338  ASN338     -0.2718
    207  CB        14.4950    0.2840   33.4770 C.3   338  ASN338      0.1169
    208  CG        14.7680   -1.2070   33.5430 C.2   338  ASN338      0.2627
    209  OD1       15.1860   -1.7390   34.5910 O.2   338  ASN338     -0.2716
    210  ND2       14.6580   -1.8540   32.4480 N.am  338  ASN338     -0.0877
    211  N         15.1080    2.9930   35.2560 N.am  339  ALA339     -0.1966
    212  CA        15.2200    4.4290   35.1650 C.3   339  ALA339      0.1728
    213  C         16.7210    4.7740   35.0570 C.2   339  ALA339      0.2616
    214  O         17.5740    3.9530   35.4110 O.2   339  ALA339     -0.2715
    215  CB        14.6190    5.0920   36.3790 C.3   339  ALA339      0.0334
    216  N         17.0040    5.9780   34.5880 N.am  340  LEU340     -0.1977
    217  CA        18.3530    6.4710   34.4760 C.3   340  LEU340      0.1596
    218  C         18.5560    7.5550   35.5500 C.2   340  LEU340      0.2287
    219  O         17.5970    7.9880   36.1470 O.2   340  LEU340     -0.2864
    220  CB        18.5360    7.0940   33.0990 C.3   340  LEU340      0.0297
    221  CG        18.4700    6.0090   32.0140 C.3   340  LEU340      0.0022
    222  CD1       18.2430    6.6790   30.6310 C.3   340  LEU340      0.0001
    223  CD2       19.7620    5.2180   32.0350 C.3   340  LEU340      0.0001
    224  N         24.6150    4.6770   30.0700 N.3   361  LEU361     -0.1245
    225  CA        24.2020    5.0940   28.7570 C.3   361  LEU361      0.1561
    226  C         24.9330    6.4520   28.4840 C.2   361  LEU361      0.2260
    227  O         24.8520    7.3280   29.2870 O.2   361  LEU361     -0.2867
    228  CB        22.6900    5.3650   28.7640 C.3   361  LEU361      0.0270
    229  CG        22.0460    5.3440   27.3800 C.3   361  LEU361      0.0019
    230  CD1       22.3430    4.0330   26.6710 C.3   361  LEU361      0.0001
    231  CD2       20.5530    5.4960   27.5220 C.3   361  LEU361      0.0001
    232  N         15.1620   12.1960   27.2610 N.3   394  VAL394     -0.1231
    233  CA        15.2710   10.7360   27.3900 C.3   394  VAL394      0.1692
    234  C         15.1720   10.1760   26.0070 C.2   394  VAL394      0.2592
    235  O         14.3640   10.6410   25.2130 O.2   394  VAL394     -0.2718
    236  CB        14.0750   10.1160   28.1630 C.3   394  VAL394      0.0266
    237  CG1       14.2500    8.5990   28.3510 C.3   394  VAL394      0.0020
    238  CG2       13.9410   10.7630   29.5050 C.3   394  VAL394      0.0020
    239  N         15.9750    9.1740   25.7070 N.am  395  MET395     -0.1965
    240  CA        15.8830    8.5030   24.4170 C.3   395  MET395      0.1736
    241  C         15.3740    7.0760   24.6230 C.2   395  MET395      0.2616
    242  O         15.6070    6.5360   25.6690 O.2   395  MET395     -0.2715
    243  CB        17.2180    8.5920   23.7370 C.3   395  MET395      0.0427
    244  CG        17.2620   10.0200   23.2170 C.3   395  MET395      0.0599
    245  SD        18.5610   10.3440   22.0490 S.3   395  MET395     -0.1393
    246  CE        18.3330    9.1080   20.8010 C.3   395  MET395      0.0692
    247  N         14.6530    6.5130   23.6480 N.am  396  LEU396     -0.1977
    248  CA        13.9660    5.2160   23.8020 C.3   396  LEU396      0.1596
    249  C         14.9580    4.0710   24.1350 C.2   396  LEU396      0.2287
    250  O         14.5800    3.0490   24.7810 O.2   396  LEU396     -0.2864
    251  CB        13.1800    4.8650   22.5060 C.3   396  LEU396      0.0297
    252  CG        12.1500    5.8880   22.0810 C.3   396  LEU396      0.0022
    253  CD1       11.3040    5.4970   20.8780 C.3   396  LEU396      0.0001
    254  CD2       11.2970    6.1870   23.2890 C.3   396  LEU396      0.0001
@<TRIPOS>BOND
     1    78    77    2
     2    70    69    2
     3    77    76    1
     4    79    76    1
     5    79    80    1
     6    76    75    1
     7    69    75   am
     8    69    68    1
     9    80    82   ar
    10    80    81   ar
    11    82    84   ar
    12    67    68    1
    13    73    72    2
    14    81    83   ar
    15     1     2    1
    16    68    71    1
    17    84    85   ar
    18     7     9   ar
    19     7     6   ar
    20    72    71    1
    21    72    74   am
    22     5     2    1
    23     5     6    1
    24     2     3    1
    25    83    85   ar
    26     9    11   ar
    27     6     8   ar
    28    58    59    2
    29    58    57    1
    30    48    49    1
    31    48    45    1
    32    50    49   ar
    33    50    52   ar
    34     3     4    2
    35    49    51   ar
    36    11    12    1
    37    11    10   ar
    38    52    54   ar
    39    47    46    2
    40    56    57    1
    41     8    10   ar
    42    46    45    1
    43    51    53   ar
    44    57    60    1
    45    54    53   ar
    46    54    55    1
    47    45    44    1
    48    63    65   ar
    49    63    61   ar
    50    60    61    1
    51    65    66   ar
    52   246   245    1
    53    61    62   ar
    54   253   252    1
    55    13    14    1
    56    89    88    2
    57    86    87    1
    58    36    35    2
    59    66    64   ar
    60    14    15    1
    61    14    17    1
    62   245   244    1
    63    62    64   ar
    64    18    17    1
    65    18    19    1
    66   252   251    1
    67   252   254    1
    68    16    15    2
    69    21    19   ar
    70    88    87    1
    71   251   248    1
    72    35    34    1
    73    19    20   ar
    74    37    34    1
    75    37    38    1
    76    87    90    1
    77   244   243    1
    78    40    38   ar
    79    40    42   ar
    80   164   163    1
    81    91    90    1
    82    34    33    1
    83   247   248    1
    84   247   241   am
    85    38    39   ar
    86   243   240    1
    87   248   249    1
    88    90    92    1
    89    42    43   ar
    90   249   250    2
    91   240   241    1
    92   240   239    1
    93   165   163    1
    94   163   162    1
    95   241   242    2
    96    39    41   ar
    97   235   234    2
    98    43    41   ar
    99   239   234   am
   100   162   159    1
   101   234   233    1
   102   159   160    1
   103   159   158    1
   104    25    24    2
   105   152   154   ar
   106   152   151   ar
   107   154   156   ar
   108    24    23    1
   109   230   229    1
   110   160   161    2
   111   156   157    1
   112   156   155   ar
   113   151   150    1
   114   151   153   ar
   115   150   147    1
   116   167   168    1
   117   167   166    1
   118   167   170    1
   119   168   169    2
   120   232   233    1
   121   155   153   ar
   122   229   231    1
   123   229   228    1
   124   233   236    1
   125   171   170    1
   126    23    22    1
   127    23    26    1
   128   236   237    1
   129   236   238    1
   130   147   148    1
   131   147   146    1
   132   148   149    2
   133   226   225    1
   134   226   227    2
   135   225   228    1
   136   225   224    1
   137    26    27    1
   138   104   103    1
   139   195   194    1
   140   192   194   ar
   141   192   190   ar
   142   194   193   ar
   143   190   189   ar
   144   193   191   ar
   145   189   191   ar
   146   189   188    1
   147   175   174    2
   148   188   185    1
   149   103   101   ar
   150   103   102   ar
   151    27    28   ar
   152    27    29   ar
   153   182   181    2
   154   172   173    1
   155    28    30   ar
   156   101    99   ar
   157   222   221    1
   158   174   173    1
   159   102   100   ar
   160   179   180    1
   161   187   186    2
   162    29    31   ar
   163   184   185    1
   164   183   180    1
   165   181   180    1
   166   173   176    1
   167   185   186    1
   168   176   178    1
   169   176   177    1
   170    30    32   ar
   171    99    98   ar
   172   221   223    1
   173   221   220    1
   174   100    98   ar
   175    31    32   ar
   176   210   208   am
   177    98    97    1
   178   220   217    1
   179   207   208    1
   180   207   204    1
   181   208   209    2
   182    97    94    1
   183   206   205    2
   184   217   216    1
   185   217   218    1
   186   216   213   am
   187   201   200    1
   188    93    94    1
   189   205   204    1
   190   205   211   am
   191    94    95    1
   192   204   203    1
   193   125   123   ar
   194   125   126   ar
   195   213   212    1
   196   213   214    2
   197   199   198    2
   198   212   211    1
   199   212   215    1
   200   218   219    2
   201   123   122   ar
   202   126   124   ar
   203   141   143   ar
   204   141   140   ar
   205   143   145   ar
   206   198   197    1
   207   200   197    1
   208   200   202    1
   209    95   105   am
   210    95    96    2
   211   196   197    1
   212   105   106    1
   213   108   107    2
   214   134   132    1
   215   139   140    1
   216   139   136    1
   217   122   124   ar
   218   122   121    1
   219   140   142   ar
   220   145   144   ar
   221   135   136    1
   222   136   137    1
   223   107   106    1
   224   107   117   am
   225   106   109    1
   226   121   118    1
   227   142   144   ar
   228   118   117    1
   229   118   119    1
   230   132   133    1
   231   132   131    1
   232   128   127    1
   233   128   131    1
   234   128   129    1
   235   130   129    2
   236   109   110    1
   237   137   138    2
   238   111   110   ar
   239   111   113   ar
   240   110   112   ar
   241   119   120    2
   242   113   115   ar
   243   112   114   ar
   244   115   114   ar
   245   115   116    1
