@<TRIPOS>MOLECULE
tmp/4qbkA00.pdb
 144 138 0 0 0
SMALL
GASTEIGER

@<TRIPOS>ATOM
      1  N          4.3890   11.1590    9.1290 N.3    12  ASN12      -0.1240
      2  CA         4.2740   10.1100   10.1300 C.3    12  ASN12       0.1653
      3  C          5.5290    9.2780   10.1190 C.2    12  ASN12       0.2266
      4  O          6.1560    9.1250    9.0620 O.2    12  ASN12      -0.2867
      5  CB         3.0740    9.2190    9.8500 C.3    12  ASN12       0.1155
      6  CG         1.7710    9.8460   10.2880 C.2    12  ASN12       0.2627
      7  OD1        1.6350   10.3140   11.4320 O.2    12  ASN12      -0.2716
      8  ND2        0.8040    9.8620    9.3900 N.am   12  ASN12      -0.0877
      9  N          4.4960    4.4770    6.7160 N.3    17  TYR17      -0.1241
     10  CA         4.0370    5.7890    6.3120 C.3    17  TYR17       0.1605
     11  C          5.0020    6.5090    5.3750 C.2    17  TYR17       0.2264
     12  O          4.7180    7.5260    4.8420 O.2    17  TYR17      -0.2867
     13  CB         3.6970    6.6100    7.5390 C.3    17  TYR17       0.0534
     14  CG         2.5960    6.0660    8.3890 C.ar   17  TYR17      -0.0201
     15  CD1        1.3110    6.0510    7.9550 C.ar   17  TYR17      -0.0009
     16  CD2        2.8410    5.5910    9.6370 C.ar   17  TYR17      -0.0009
     17  CE1        0.2980    5.5850    8.7400 C.ar   17  TYR17       0.0417
     18  CE2        1.8340    5.1110   10.4090 C.ar   17  TYR17       0.0417
     19  CZ         0.5750    5.1170    9.9510 C.ar   17  TYR17       0.1957
     20  OH        -0.4050    4.6440   10.7120 O.3    17  TYR17      -0.2866
     21  N          0.7640   11.9630    3.0800 N.3    22  HIS22      -0.1241
     22  CA         0.7470   12.8040    4.2770 C.3    22  HIS22       0.1621
     23  C          2.1780   13.0810    4.7730 C.2    22  HIS22       0.2264
     24  O          2.3640   13.8320    5.7090 O.2    22  HIS22      -0.2867
     25  CB        -0.1200   12.1000    5.3560 C.3    22  HIS22       0.0745
     26  CG        -0.8740   13.0110    6.2820 C.ar   22  HIS22       0.0817
     27  ND1       -1.4260   14.2120    5.8900 N.ar   22  HIS22      -0.2268
     28  CD2       -1.2370   12.8390    7.5810 C.ar   22  HIS22       0.1154
     29  CE1       -2.0700   14.7570    6.9120 C.ar   22  HIS22       0.1986
     30  NE2       -1.9670   13.9430    7.9500 N.ar   22  HIS22      -0.2212
     31  N          3.5720   10.9660   15.9190 N.3    68  TYR68      -0.1227
     32  CA         2.6290   10.7640   14.8760 C.3    68  TYR68       0.1736
     33  C          2.1850   12.1660   14.4330 C.2    68  TYR68       0.2595
     34  O          2.4100   13.0900   15.1460 O.2    68  TYR68      -0.2718
     35  CB         1.4940    9.9150   15.3550 C.3    68  TYR68       0.0548
     36  CG         1.8640    8.4670   15.2650 C.ar   68  TYR68      -0.0200
     37  CD1        2.2890    7.9340   14.0690 C.ar   68  TYR68      -0.0009
     38  CD2        1.8540    7.6470   16.3750 C.ar   68  TYR68      -0.0009
     39  CE1        2.6610    6.6200   13.9620 C.ar   68  TYR68       0.0417
     40  CE2        2.2260    6.3160   16.2740 C.ar   68  TYR68       0.0417
     41  CZ         2.6350    5.8190   15.0640 C.ar   68  TYR68       0.1957
     42  OH         3.0000    4.5020   14.9300 O.3    68  TYR68      -0.2866
     43  N          1.5530   12.2780   13.2780 N.am   69  MET69      -0.1965
     44  CA         1.2720   13.5720   12.7070 C.3    69  MET69       0.1736
     45  C          0.4780   14.4410   13.6610 C.2    69  MET69       0.2616
     46  O          0.7720   15.5790   13.7770 O.2    69  MET69      -0.2715
     47  CB         0.4590   13.4050   11.4410 C.3    69  MET69       0.0427
     48  CG         0.0130   14.6690   10.7500 C.3    69  MET69       0.0599
     49  SD         1.3990   15.5690   10.0570 S.3    69  MET69      -0.1393
     50  CE         1.6440   14.8100    8.4660 C.3    69  MET69       0.0692
     51  N         -0.5040   13.8840   14.3440 N.am   70  ASN70      -0.1972
     52  CA        -1.3630   14.6820   15.2260 C.3    70  ASN70       0.1688
     53  C         -0.7110   15.2160   16.5150 C.2    70  ASN70       0.2292
     54  O         -1.3760   15.9060   17.2740 O.2    70  ASN70      -0.2864
     55  CB        -2.6550   13.9410   15.5630 C.3    70  ASN70       0.1181
     56  CG        -2.4270   12.7580   16.4760 C.2    70  ASN70       0.2629
     57  OD1       -1.4090   12.0770   16.3660 O.2    70  ASN70      -0.2716
     58  ND2       -3.3660   12.5190   17.4000 N.am   70  ASN70      -0.0877
     59  N          1.5280   18.5640    3.0960 N.3    95  ASP95      -0.1239
     60  CA         0.6380   18.1270    2.0450 C.3    95  ASP95       0.1674
     61  C         -0.6110   19.0110    2.0010 C.2    95  ASP95       0.2266
     62  O         -1.1060   19.4090    3.0010 O.2    95  ASP95      -0.2867
     63  CB         0.2460   16.6580    2.1950 C.3    95  ASP95       0.1410
     64  CG        -0.2360   16.3270    3.5770 C.2    95  ASP95       0.3668
     65  OD1        0.5050   16.5190    4.4760 O.co2  95  ASP95      -0.2456
     66  OD2       -1.3180   15.8540    3.7090 O.co2  95  ASP95      -0.2456
     67  N         -4.3810   19.0510    0.1770 N.3    97  LEU97      -0.1245
     68  CA        -5.4290   18.4410   -0.5990 C.3    97  LEU97       0.1561
     69  C         -5.9780   19.3620   -1.6750 C.2    97  LEU97       0.2260
     70  O         -6.4030   18.9240   -2.6630 O.2    97  LEU97      -0.2867
     71  CB        -6.5810   18.0180    0.3010 C.3    97  LEU97       0.0270
     72  CG        -6.2960   16.8380    1.2070 C.3    97  LEU97       0.0019
     73  CD1       -7.2230   16.8240    2.4000 C.3    97  LEU97       0.0001
     74  CD2       -6.3920   15.5540    0.4400 C.3    97  LEU97       0.0001
     75  N         -7.4160   23.4800    8.1370 N.3   113  GLY113     -0.1210
     76  CA        -8.1530   22.7950    7.0640 C.3   113  GLY113      0.1956
     77  C         -8.3760   21.2940    7.2470 C.2   113  GLY113      0.2612
     78  O         -8.5380   20.5480    6.2860 O.2   113  GLY113     -0.2717
     79  N         -8.4120   20.8650    8.4970 N.am  114  GLY114     -0.1942
     80  CA        -8.4730   19.4510    8.8700 C.3   114  GLY114      0.2014
     81  C         -7.1670   18.6770    8.8340 C.2   114  GLY114      0.2639
     82  O         -7.1700   17.4760    9.0120 O.2   114  GLY114     -0.2714
     83  N         -6.0520   19.3670    8.5970 N.am  115  HIS115     -0.1959
     84  CA        -4.7380   18.7560    8.6490 C.3   115  HIS115      0.1787
     85  C         -4.3300   18.7140   10.1190 C.2   115  HIS115      0.2620
     86  O         -4.0660   19.7420   10.7140 O.2   115  HIS115     -0.2715
     87  CB        -3.7060   19.5970    7.8750 C.3   115  HIS115      0.0785
     88  CG        -2.4350   18.8610    7.5730 C.ar  115  HIS115      0.0821
     89  ND1       -1.5330   18.5130    8.5470 N.ar  115  HIS115     -0.2267
     90  CD2       -1.9530   18.3480    6.4170 C.ar  115  HIS115      0.1154
     91  CE1       -0.5220   17.8620    8.0000 C.ar  115  HIS115      0.1986
     92  NE2       -0.7620   17.7370    6.7080 N.ar  115  HIS115     -0.2212
     93  N         -4.3070   17.5310   10.6920 N.am  116  ASN116     -0.1972
     94  CA        -4.0330   17.3830   12.1140 C.3   116  ASN116      0.1688
     95  C         -2.6230   17.7480   12.5840 C.2   116  ASN116      0.2292
     96  O         -2.4150   18.0270   13.7050 O.2   116  ASN116     -0.2864
     97  CB        -4.4390   16.0030   12.6220 C.3   116  ASN116      0.1181
     98  CG        -5.9240   15.7780   12.5540 C.2   116  ASN116      0.2629
     99  OD1       -6.6790   16.6910   12.5210 O.2   116  ASN116     -0.2716
    100  ND2       -6.3190   14.5420   12.5320 N.am  116  ASN116     -0.0877
    101  N         -7.0810   15.7380   -4.3130 N.3   140  HIS140     -0.1241
    102  CA        -8.1820   15.3880   -3.4050 C.3   140  HIS140      0.1621
    103  C         -8.9740   14.2210   -4.0240 C.2   140  HIS140      0.2264
    104  O         -9.2700   14.2410   -5.2160 O.2   140  HIS140     -0.2867
    105  CB        -9.0770   16.6120   -3.2040 C.3   140  HIS140      0.0745
    106  CG       -10.0580   16.4800   -2.0770 C.ar  140  HIS140      0.0817
    107  ND1      -11.1030   15.5890   -2.1110 N.ar  140  HIS140     -0.2268
    108  CD2      -10.1690   17.1420   -0.9010 C.ar  140  HIS140      0.1154
    109  CE1      -11.8000   15.6840   -0.9920 C.ar  140  HIS140      0.1986
    110  NE2      -11.2660   16.6330   -0.2490 N.ar  140  HIS140     -0.2212
    111  N        -15.1940   13.7250    1.1450 N.3   144  SER144     -0.1217
    112  CA       -14.6820   13.8160    2.5190 C.3   144  SER144      0.1889
    113  C        -14.3900   12.4610    3.1500 C.2   144  SER144      0.2288
    114  O        -13.4300   12.3240    3.8960 O.2   144  SER144     -0.2866
    115  CB       -15.6720   14.5750    3.4130 C.3   144  SER144      0.2089
    116  OG       -16.8830   13.8430    3.5560 O.3   144  SER144     -0.2183
    117  N        -10.8580   10.9450    2.2860 N.3   147  VAL147     -0.1231
    118  CA        -9.6530   11.7170    2.6010 C.3   147  VAL147      0.1692
    119  C         -8.6640   10.9390    3.4780 C.2   147  VAL147      0.2592
    120  O         -7.4700   10.8920    3.1690 O.2   147  VAL147     -0.2718
    121  CB        -9.9890   13.0790    3.2280 C.3   147  VAL147      0.0266
    122  CG1       -8.7470   13.7410    3.8130 C.3   147  VAL147      0.0020
    123  CG2      -10.6380   13.9830    2.1910 C.3   147  VAL147      0.0020
    124  N         -9.1400   10.3200    4.5520 N.am  148  SER148     -0.1952
    125  CA        -8.2230    9.6550    5.4840 C.3   148  SER148      0.1924
    126  C         -7.3920    8.5640    4.7810 C.2   148  SER148      0.2314
    127  O         -6.1570    8.5280    4.9140 O.2   148  SER148     -0.2863
    128  CB        -8.9830    9.0710    6.6890 C.3   148  SER148      0.2116
    129  OG        -8.1020    8.2870    7.4890 O.3   148  SER148     -0.2180
    130  N         -4.8060   10.3160    2.0790 N.3   151  VAL151     -0.1231
    131  CA        -3.5520   10.9120    2.5450 C.3   151  VAL151      0.1692
    132  C         -2.5780    9.8830    3.1450 C.2   151  VAL151      0.2591
    133  O         -1.3570   10.0750    3.0840 O.2   151  VAL151     -0.2718
    134  CB        -3.7370   12.1060    3.5110 C.3   151  VAL151      0.0266
    135  CG1       -4.6860   13.1440    2.9290 C.3   151  VAL151      0.0020
    136  CG2       -4.1810   11.6720    4.9070 C.3   151  VAL151      0.0020
    137  N         -3.1070    8.7920    3.7130 N.am  152  LEU152     -0.1980
    138  CA        -2.2610    7.7160    4.2400 C.3   152  LEU152      0.1596
    139  C         -1.9290    6.6490    3.2140 C.2   152  LEU152      0.2287
    140  O         -1.3390    5.6210    3.5510 O.2   152  LEU152     -0.2864
    141  CB        -2.9350    7.0480    5.4400 C.3   152  LEU152      0.0297
    142  CG        -3.2300    7.9830    6.6010 C.3   152  LEU152      0.0022
    143  CD1       -3.8950    7.1650    7.7220 C.3   152  LEU152      0.0001
    144  CD2       -1.9580    8.6260    7.0930 C.3   152  LEU152      0.0001
@<TRIPOS>BOND
     1   104   103    2
     2   101   102    1
     3   103   102    1
     4   102   105    1
     5   105   106    1
     6    70    69    2
     7   107   106   ar
     8   107   109   ar
     9   106   108   ar
    10    69    68    1
    11   109   110   ar
    12   108   110   ar
    13    68    67    1
    14    68    71    1
    15    71    72    1
    16    74    72    1
    17   111   112    1
    18    72    73    1
    19    61    60    1
    20    61    62    2
    21    60    63    1
    22    60    59    1
    23   130   131    1
    24   123   121    1
    25    63    64    1
    26   117   118    1
    27   112   113    1
    28   112   115    1
    29   131   132    1
    30   131   134    1
    31   118   121    1
    32   118   119    1
    33   135   134    1
    34    21    22    1
    35   133   132    2
    36   132   137   am
    37   113   114    2
    38   120   119    2
    39   139   140    2
    40   139   138    1
    41   121   122    1
    42   115   116    1
    43   119   124   am
    44   134   136    1
    45    64    66   ar
    46    64    65   ar
    47   137   138    1
    48   138   141    1
    49    22    23    1
    50    22    25    1
    51   124   125    1
    52    23    24    2
    53   126   127    2
    54   126   125    1
    55    12    11    2
    56    25    26    1
    57    11    10    1
    58   141   142    1
    59   125   128    1
    60    27    26   ar
    61    27    29   ar
    62    26    28   ar
    63    78    77    2
    64    10     9    1
    65    10    13    1
    66    90    92   ar
    67    90    88   ar
    68   142   144    1
    69   142   143    1
    70   128   129    1
    71    92    91   ar
    72    29    30   ar
    73    76    77    1
    74    76    75    1
    75    77    79   am
    76    13    14    1
    77    88    87    1
    78    88    89   ar
    79    28    30   ar
    80    87    84    1
    81    15    14   ar
    82    15    17   ar
    83    91    89   ar
    84    14    16   ar
    85    50    49    1
    86    79    80    1
    87    83    84    1
    88    83    81   am
    89    84    85    1
    90    17    19   ar
    91    81    80    1
    92    81    82    2
    93     4     3    2
    94     1     2    1
    95     8     6   am
    96    16    18   ar
    97     5     2    1
    98     5     6    1
    99    19    18   ar
   100    19    20    1
   101    49    48    1
   102     3     2    1
   103    85    93   am
   104    85    86    2
   105     6     7    2
   106    93    94    1
   107    48    47    1
   108    47    44    1
   109    94    95    1
   110    94    97    1
   111    99    98    2
   112   100    98   am
   113    98    97    1
   114    95    96    2
   115    44    43    1
   116    44    45    1
   117    43    33   am
   118    45    46    2
   119    45    51   am
   120    39    37   ar
   121    39    41   ar
   122    37    36   ar
   123    51    52    1
   124    33    32    1
   125    33    34    2
   126    32    35    1
   127    32    31    1
   128    42    41    1
   129    41    40   ar
   130    52    55    1
   131    52    53    1
   132    36    35    1
   133    36    38   ar
   134    55    56    1
   135    40    38   ar
   136    57    56    2
   137    56    58   am
   138    53    54    2
