@<TRIPOS>MOLECULE
tmp/4qbmA00.pdb
 184 183 0 0 0
SMALL
GASTEIGER

@<TRIPOS>ATOM
      1  N         15.0870   -0.5770  -48.9130 N.3    23  TRP23      -0.1228
      2  CA        16.1770    0.2480  -48.4040 C.3    23  TRP23       0.1722
      3  C         17.1070    0.8320  -49.4860 C.2    23  TRP23       0.2437
      4  O         17.4910    1.9990  -49.3670 O.2    23  TRP23      -0.2733
      5  CB        16.9650   -0.4570  -47.2650 C.3    23  TRP23       0.0563
      6  CG        17.7150   -1.6190  -47.6850 C.ar   23  TRP23       0.0003
      7  CD1       17.2990   -2.9130  -47.7000 C.ar   23  TRP23       0.0946
      8  CD2       19.0170   -1.6110  -48.2550 C.ar   23  TRP23       0.0152
      9  NE1       18.2850   -3.7310  -48.2130 N.ar   23  TRP23      -0.2442
     10  CE2       19.3600   -2.9440  -48.5470 C.ar   23  TRP23       0.0810
     11  CE3       19.9410   -0.6000  -48.5130 C.ar   23  TRP23       0.0012
     12  CZ2       20.5970   -3.2960  -49.1060 C.ar   23  TRP23       0.0191
     13  CZ3       21.1520   -0.9530  -49.0840 C.ar   23  TRP23       0.0001
     14  CH2       21.4710   -2.2570  -49.3600 C.ar   23  TRP23       0.0015
     15  N         17.3900    0.0950  -50.5850 N.am   24  PRO24      -0.2718
     16  CA        18.2980    0.7150  -51.5480 C.3    24  PRO24       0.1535
     17  C         17.6950    1.8450  -52.3430 C.2    24  PRO24       0.2598
     18  O         18.4470    2.5390  -53.0420 O.2    24  PRO24      -0.2715
     19  CB        18.5980   -0.4210  -52.5310 C.3    24  PRO24       0.0310
     20  CG        18.2570   -1.6670  -51.8260 C.3    24  PRO24       0.0237
     21  CD        17.0940   -1.3010  -50.9640 C.3    24  PRO24       0.0939
     22  N         16.3710    1.9740  -52.3070 N.am   25  PHE25      -0.1974
     23  CA        15.6370    2.8720  -53.2470 C.3    25  PHE25       0.1639
     24  C         15.0160    4.1000  -52.5910 C.2    25  PHE25       0.2290
     25  O         14.3580    4.9270  -53.2400 O.2    25  PHE25      -0.2864
     26  CB        14.5360    2.0720  -53.9520 C.3    25  PHE25       0.0560
     27  CG        15.0200    0.7640  -54.4520 C.ar   25  PHE25      -0.0200
     28  CD1       15.9770    0.7250  -55.4610 C.ar   25  PHE25      -0.0042
     29  CD2       14.6280   -0.4200  -53.8440 C.ar   25  PHE25      -0.0042
     30  CE1       16.4930   -0.4970  -55.9120 C.ar   25  PHE25      -0.0003
     31  CE2       15.1350   -1.6300  -54.2860 C.ar   25  PHE25      -0.0003
     32  CZ        16.1000   -1.6660  -55.2890 C.ar   25  PHE25      -0.0000
     33  N         20.8560    7.4800  -55.2290 N.3    29  VAL29      -0.1245
     34  CA        22.1780    6.8780  -55.1100 C.3    29  VAL29       0.1561
     35  C         23.2550    7.9740  -55.1470 C.2    29  VAL29       0.2260
     36  O         23.1660    8.9280  -55.9200 O.2    29  VAL29      -0.2867
     37  CB        22.4530    5.8110  -56.2030 C.3    29  VAL29       0.0252
     38  CG1       23.8950    5.3110  -56.1100 C.3    29  VAL29       0.0019
     39  CG2       21.4390    4.6690  -56.0940 C.3    29  VAL29       0.0019
     40  N         29.5290    6.8620  -52.7950 N.3    33  LEU33      -0.1231
     41  CA        29.4630    5.5710  -52.0940 C.3    33  LEU33       0.1693
     42  C         29.4470    4.4030  -53.0520 C.2    33  LEU33       0.2592
     43  O         29.9160    3.3150  -52.7000 O.2    33  LEU33      -0.2718
     44  CB        28.2120    5.5020  -51.2210 C.3    33  LEU33       0.0284
     45  CG        28.0820    6.6200  -50.1940 C.3    33  LEU33       0.0019
     46  CD1       26.9170    6.3110  -49.2630 C.3    33  LEU33       0.0001
     47  CD2       29.3770    6.7760  -49.4200 C.3    33  LEU33       0.0001
     48  N         28.8710    4.6210  -54.2360 N.am   34  VAL34      -0.1966
     49  CA        28.6330    3.5680  -55.2190 C.3    34  VAL34       0.1727
     50  C         29.3660    3.8590  -56.5350 C.2    34  VAL34       0.2617
     51  O         28.8730    4.5830  -57.3900 O.2    34  VAL34      -0.2715
     52  CB        27.1270    3.4000  -55.4540 C.3    34  VAL34       0.0290
     53  CG1       26.8840    2.2190  -56.3850 C.3    34  VAL34       0.0023
     54  CG2       26.4020    3.1860  -54.1190 C.3    34  VAL34       0.0023
     55  N         30.5310    3.2260  -56.7040 N.am   35  SER35      -0.1936
     56  CA        31.4360    3.5040  -57.8210 C.3    35  SER35       0.2055
     57  C         30.8280    3.2010  -59.1970 C.2    35  SER35       0.2644
     58  O         30.2760    2.1270  -59.4120 O.2    35  SER35      -0.2714
     59  CB        32.7230    2.6830  -57.6660 C.3    35  SER35       0.2130
     60  OG        33.6950    3.0930  -58.6010 O.3    35  SER35      -0.2179
     61  N         30.9560    4.1460  -60.1370 N.am   36  GLY36      -0.1939
     62  CA        30.5260    3.9550  -61.5140 C.3    36  GLY36       0.2014
     63  C         29.0480    4.1860  -61.7950 C.2    36  GLY36       0.2638
     64  O         28.6150    4.0470  -62.9340 O.2    36  GLY36      -0.2714
     65  N         28.2880    4.5570  -60.7610 N.am   37  TYR37      -0.1973
     66  CA        26.8430    4.6960  -60.9040 C.3    37  TYR37       0.1639
     67  C         26.5000    5.7500  -61.9670 C.2    37  TYR37       0.2290
     68  O         25.6810    5.4920  -62.8440 O.2    37  TYR37      -0.2864
     69  CB        26.1630    4.9670  -59.5570 C.3    37  TYR37       0.0560
     70  CG        24.6860    4.7240  -59.6210 C.ar   37  TYR37      -0.0198
     71  CD1       24.1780    3.4490  -59.4590 C.ar   37  TYR37      -0.0009
     72  CD2       23.8020    5.7480  -59.9550 C.ar   37  TYR37      -0.0009
     73  CE1       22.8290    3.1800  -59.5480 C.ar   37  TYR37       0.0417
     74  CE2       22.4500    5.4940  -60.0600 C.ar   37  TYR37       0.0417
     75  CZ        21.9580    4.2170  -59.8480 C.ar   37  TYR37       0.1957
     76  OH        20.6120    3.9480  -59.9830 O.3    37  TYR37      -0.2866
     77  N         28.3780    6.8070  -64.4910 N.3    39  ARG39      -0.1231
     78  CA        28.7690    6.3320  -65.8130 C.3    39  ARG39       0.1694
     79  C         27.7530    5.3600  -66.4110 C.2    39  ARG39       0.2591
     80  O         27.4800    5.3900  -67.6040 O.2    39  ARG39      -0.2718
     81  CB        30.1580    5.6800  -65.7840 C.3    39  ARG39       0.0321
     82  CG        30.5270    4.9540  -67.0700 C.3    39  ARG39       0.0489
     83  CD        31.9580    4.4470  -67.0600 C.3    39  ARG39       0.2205
     84  NE        32.2460    3.5690  -65.9260 N.pl3  39  ARG39      -0.0865
     85  CZ        31.9910    2.2550  -65.8860 C.cat  39  ARG39       0.5346
     86  NH1       31.4130    1.6320  -66.9060 N.pl3  39  ARG39       0.1354
     87  NH2       32.3170    1.5570  -64.8100 N.pl3  39  ARG39       0.1354
     88  N         27.1720    4.5120  -65.5720 N.am   40  ILE40      -0.1980
     89  CA        26.3560    3.4020  -66.0450 C.3    40  ILE40       0.1595
     90  C         24.8770    3.7610  -66.1530 C.2    40  ILE40       0.2287
     91  O         24.1890    3.3240  -67.0850 O.2    40  ILE40      -0.2864
     92  CB        26.5580    2.1720  -65.1390 C.3    40  ILE40       0.0276
     93  CG1       27.9630    1.5880  -65.3580 C.3    40  ILE40       0.0022
     94  CG2       25.5150    1.0800  -65.3860 C.3    40  ILE40       0.0022
     95  CD1       28.4780    0.7880  -64.1670 C.3    40  ILE40       0.0001
     96  N         13.2330    3.0250  -61.6540 N.3    72  VAL72      -0.1245
     97  CA        13.8610    2.5020  -60.4640 C.3    72  VAL72       0.1561
     98  C         14.2540    1.0350  -60.6290 C.2    72  VAL72       0.2260
     99  O         15.3940    0.6500  -60.3430 O.2    72  VAL72      -0.2867
    100  CB        12.9740    2.6220  -59.2140 C.3    72  VAL72       0.0252
    101  CG1       13.6280    1.9850  -58.0020 C.3    72  VAL72       0.0019
    102  CG2       12.6570    4.0670  -58.8950 C.3    72  VAL72       0.0019
    103  N         16.8830    0.4810  -63.6230 N.3    75  ASN75      -0.1225
    104  CA        18.2160    0.9160  -63.2370 C.3    75  ASN75       0.1785
    105  C         18.8380   -0.1230  -62.3270 C.2    75  ASN75       0.2597
    106  O         20.0140   -0.4830  -62.4970 O.2    75  ASN75      -0.2718
    107  CB        18.1650    2.2500  -62.5120 C.3    75  ASN75       0.1169
    108  CG        17.8850    3.4290  -63.4400 C.2    75  ASN75       0.2627
    109  OD1       17.9550    3.3190  -64.6600 O.2    75  ASN75      -0.2716
    110  ND2       17.5870    4.5820  -62.8300 N.am   75  ASN75      -0.0877
    111  N         18.0400   -0.6610  -61.3990 N.am   76  CYS76      -0.1956
    112  CA        18.5460   -1.6580  -60.4500 C.3    76  CYS76       0.1843
    113  C         19.0130   -2.9360  -61.1580 C.2    76  CYS76       0.2625
    114  O         20.1150   -3.4610  -60.8710 O.2    76  CYS76      -0.2714
    115  CB        17.4650   -2.0070  -59.4420 C.3    76  CYS76       0.0997
    116  SG        18.0310   -3.0720  -58.0950 S.3    76  CYS76      -0.0797
    117  N         18.2030   -3.3970  -62.1080 N.am   77  GLN77      -0.1963
    118  CA        18.5280   -4.6030  -62.8600 C.3    77  GLN77       0.1733
    119  C         19.8030   -4.3920  -63.6750 C.2    77  GLN77       0.2617
    120  O         20.6470   -5.2990  -63.8360 O.2    77  GLN77      -0.2715
    121  CB        17.3510   -4.9450  -63.7650 C.3    77  GLN77       0.0408
    122  CG        17.5880   -6.1910  -64.6080 C.3    77  GLN77       0.0908
    123  CD        17.6420   -7.4440  -63.7860 C.2    77  GLN77       0.2608
    124  OE1       16.8430   -7.6300  -62.8540 O.2    77  GLN77      -0.2717
    125  NE2       18.5240   -8.3630  -64.1710 N.am   77  GLN77      -0.0878
    126  N         19.9260   -3.1960  -64.2120 N.am   78  THR78      -0.1937
    127  CA        21.0220   -2.8370  -65.1100 C.3    78  THR78       0.2028
    128  C         22.3220   -2.8150  -64.3240 C.2    78  THR78       0.2642
    129  O         23.3260   -3.3890  -64.7340 O.2    78  THR78      -0.2714
    130  CB        20.7550   -1.4720  -65.7990 C.3    78  THR78       0.1808
    131  OG1       19.6430   -1.6240  -66.6890 O.3    78  THR78      -0.2208
    132  CG2       21.9740   -1.0150  -66.6040 C.3    78  THR78       0.0379
    133  N         22.2790   -2.2030  -63.1460 N.am   79  PHE79      -0.1959
    134  CA        23.5150   -1.9260  -62.4170 C.3    79  PHE79       0.1771
    135  C         24.0280   -3.0930  -61.5710 C.2    79  PHE79       0.2620
    136  O         25.2430   -3.2510  -61.4570 O.2    79  PHE79      -0.2715
    137  CB        23.3090   -0.6640  -61.5570 C.3    79  PHE79       0.0574
    138  CG        24.5360   -0.2050  -60.8370 C.ar   79  PHE79      -0.0200
    139  CD1       25.4520    0.6090  -61.4760 C.ar   79  PHE79      -0.0042
    140  CD2       24.7720   -0.6120  -59.5410 C.ar   79  PHE79      -0.0042
    141  CE1       26.5800    1.0270  -60.8150 C.ar   79  PHE79      -0.0003
    142  CE2       25.9010   -0.1620  -58.8740 C.ar   79  PHE79      -0.0003
    143  CZ        26.8140    0.6090  -59.5470 C.ar   79  PHE79      -0.0000
    144  N         23.1250   -3.8490  -60.9330 N.am   80  ASN80      -0.1958
    145  CA        23.4840   -4.7930  -59.8560 C.3    80  ASN80       0.1819
    146  C         23.4090   -6.2330  -60.3130 C.2    80  ASN80       0.2621
    147  O         22.5680   -6.5830  -61.1050 O.2    80  ASN80      -0.2715
    148  CB        22.5350   -4.6490  -58.6700 C.3    80  ASN80       0.1195
    149  CG        22.5670   -3.2670  -58.0580 C.2    80  ASN80       0.2630
    150  OD1       23.4090   -2.9610  -57.2210 O.2    80  ASN80      -0.2716
    151  ND2       21.6360   -2.4070  -58.4840 N.am   80  ASN80      -0.0877
    152  N         24.2730   -7.0800  -59.7560 N.am   81  GLU81      -0.1963
    153  CA        24.1840   -8.4970  -60.0250 C.3    81  GLU81       0.1733
    154  C         22.8370   -9.0370  -59.5040 C.2    81  GLU81       0.2616
    155  O         22.3290   -8.6040  -58.4780 O.2    81  GLU81      -0.2715
    156  CB        25.3140   -9.2560  -59.3390 C.3    81  GLU81       0.0429
    157  CG        26.7380   -8.8750  -59.7530 C.3    81  GLU81       0.1163
    158  CD        27.2290   -9.4860  -61.0570 C.2    81  GLU81       0.3649
    159  OE1       26.4570  -10.1880  -61.7370 O.co2  81  GLU81      -0.2457
    160  OE2       28.4180   -9.2350  -61.3930 O.co2  81  GLU81      -0.2457
    161  N         22.2670  -10.0040  -60.1990 N.am   82  ASP82      -0.1971
    162  CA        20.9820  -10.5370  -59.7860 C.3    82  ASP82       0.1709
    163  C         21.0400  -11.2150  -58.4270 C.2    82  ASP82       0.2293
    164  O         20.0550  -11.1800  -57.6890 O.2    82  ASP82      -0.2864
    165  CB        20.4210  -11.4640  -60.8660 C.3    82  ASP82       0.1436
    166  CG        20.2850  -10.7470  -62.1880 C.2    82  ASP82       0.3671
    167  OD1       19.4580   -9.8120  -62.2600 O.co2  82  ASP82      -0.2456
    168  OD2       21.0440  -11.0810  -63.1350 O.co2  82  ASP82      -0.2456
    169  N         22.3900   -8.3470  -52.8810 N.3    85  GLU85      -0.1231
    170  CA        21.2950   -7.9570  -52.0160 C.3    85  GLU85       0.1699
    171  C         20.4330   -6.8970  -52.6960 C.2    85  GLU85       0.2592
    172  O         19.2050   -6.9800  -52.6530 O.2    85  GLU85      -0.2718
    173  CB        21.8130   -7.4820  -50.6550 C.3    85  GLU85       0.0402
    174  CG        22.3600   -8.6300  -49.8210 C.3    85  GLU85       0.1161
    175  CD        21.3340   -9.7450  -49.6260 C.2    85  GLU85       0.3649
    176  OE1       20.2230   -9.4480  -49.1300 O.co2  85  GLU85      -0.2457
    177  OE2       21.6280  -10.9110  -49.9890 O.co2  85  GLU85      -0.2457
    178  N         21.0820   -5.9260  -53.3230 N.am   86  VAL86      -0.1980
    179  CA        20.3330   -4.8600  -54.0080 C.3    86  VAL86       0.1595
    180  C         19.5970   -5.3950  -55.2360 C.2    86  VAL86       0.2287
    181  O         18.4360   -5.0660  -55.4640 O.2    86  VAL86      -0.2864
    182  CB        21.2040   -3.6190  -54.2900 C.3    86  VAL86       0.0276
    183  CG1       20.4580   -2.5810  -55.1430 C.3    86  VAL86       0.0022
    184  CG2       21.5900   -2.9540  -52.9830 C.3    86  VAL86       0.0022
@<TRIPOS>BOND
     1    80    79    2
     2    91    90    2
     3    82    83    1
     4    82    81    1
     5    83    84    1
     6    86    85    1
     7   131   130    1
     8   132   130    1
     9    79    78    1
    10    79    88   am
    11    90    89    1
    12    89    88    1
    13    89    92    1
    14    84    85    2
    15    85    87    1
    16    78    81    1
    17    78    77    1
    18   130   127    1
    19    94    92    1
    20    93    92    1
    21    93    95    1
    22   127   128    1
    23   127   126    1
    24   129   128    2
    25   109   108    2
    26   122   123    1
    27   122   121    1
    28   128   133   am
    29   126   119   am
    30   125   123   am
    31   120   119    2
    32   123   124    2
    33   121   118    1
    34   119   118    1
    35   103   104    1
    36   108   110   am
    37   108   107    1
    38   104   107    1
    39   104   105    1
    40   133   134    1
    41   168   166   ar
    42    64    63    2
    43   118   117    1
    44    68    67    2
    45   106   105    2
    46   134   135    1
    47   134   137    1
    48   105   111   am
    49   167   166   ar
    50   166   165    1
    51   117   113   am
    52    67    66    1
    53    63    62    1
    54    63    65   am
    55   159   158   ar
    56    96    97    1
    57   135   136    2
    58   135   144   am
    59   137   138    1
    60    62    61    1
    61   139   138   ar
    62   139   141   ar
    63   111   112    1
    64   160   158   ar
    65   113   114    2
    66   113   112    1
    67   147   146    2
    68   158   157    1
    69   144   145    1
    70    66    65    1
    71    66    69    1
    72   165   162    1
    73   138   140   ar
    74   141   143   ar
    75    98    97    1
    76    98    99    2
    77    97   100    1
    78   112   115    1
    79   146   145    1
    80   146   152   am
    81   161   162    1
    82   161   154   am
    83    61    57   am
    84    74    72   ar
    85    74    75   ar
    86   153   152    1
    87   153   154    1
    88   153   156    1
    89    76    75    1
    90    72    70   ar
    91   145   148    1
    92    75    73   ar
    93   162   163    1
    94   157   156    1
    95    70    69    1
    96    70    71   ar
    97    73    71   ar
    98   143   142   ar
    99   140   142   ar
   100   154   155    2
   101   115   116    1
   102    58    57    2
   103   100   102    1
   104   100   101    1
   105    57    56    1
   106   148   149    1
   107    60    59    1
   108   151   149   am
   109   163   164    2
   110   149   150    2
   111    56    59    1
   112    56    55    1
   113    51    50    2
   114    55    50   am
   115    50    49    1
   116    53    52    1
   117    37    38    1
   118    37    39    1
   119    37    34    1
   120    36    35    2
   121    30    28   ar
   122    30    32   ar
   123   181   180    2
   124    28    27   ar
   125    52    49    1
   126    52    54    1
   127    32    31   ar
   128   180   179    1
   129    33    34    1
   130    49    48    1
   131    35    34    1
   132   183   182    1
   133    27    26    1
   134    27    29   ar
   135   182   179    1
   136   182   184    1
   137    31    29   ar
   138    48    42   am
   139   179   178    1
   140    26    23    1
   141   178   171   am
   142    23    24    1
   143    23    22    1
   144    25    24    2
   145    42    43    2
   146    42    41    1
   147    18    17    2
   148   169   170    1
   149    40    41    1
   150   171   172    2
   151   171   170    1
   152    19    20    1
   153    19    16    1
   154    17    22   am
   155    17    16    1
   156    41    44    1
   157   170   173    1
   158    20    21    1
   159    16    15    1
   160    44    45    1
   161    21    15    1
   162   173   174    1
   163    15     3   am
   164    45    47    1
   165    45    46    1
   166   177   175   ar
   167   174   175    1
   168   175   176   ar
   169     3     4    2
   170     3     2    1
   171    14    12   ar
   172    14    13   ar
   173    12    10   ar
   174    13    11   ar
   175     1     2    1
   176    10     8   ar
   177    10     9   ar
   178    11     8   ar
   179     2     5    1
   180     8     6   ar
   181     9     7   ar
   182     7     6   ar
   183     6     5    1
