@<TRIPOS>MOLECULE
tmp/4qbqB00.pdb
 163 161 0 0 0
SMALL
GASTEIGER

@<TRIPOS>ATOM
      1  N        -11.1580    8.7050    2.0700 N.3    56  ASP56      -0.1239
      2  CA       -12.4090    7.9580    2.0100 C.3    56  ASP56       0.1674
      3  C        -13.4500    8.7430    1.2180 C.2    56  ASP56       0.2266
      4  O        -13.2640    9.9350    0.9090 O.2    56  ASP56      -0.2867
      5  CB       -12.9540    7.7000    3.4150 C.3    56  ASP56       0.1410
      6  CG       -12.1360    6.6750    4.1960 C.2    56  ASP56       0.3668
      7  OD1      -11.4060    5.8530    3.5900 O.co2  56  ASP56      -0.2456
      8  OD2      -12.2540    6.6880    5.4380 O.co2  56  ASP56      -0.2456
      9  N        -16.0140   10.0470    2.0690 N.3    58  ASP58      -0.1239
     10  CA       -16.6190   11.1500    2.8100 C.3    58  ASP58       0.1674
     11  C        -15.8220   12.4590    2.6740 C.2    58  ASP58       0.2266
     12  O        -16.2530   13.5100    3.1440 O.2    58  ASP58      -0.2867
     13  CB       -16.8230   10.7710    4.2800 C.3    58  ASP58       0.1410
     14  CG       -15.5130   10.6770    5.0650 C.2    58  ASP58       0.3668
     15  OD1      -14.4630   10.2910    4.4920 O.co2  58  ASP58      -0.2456
     16  OD2      -15.5470   10.9850    6.2740 O.co2  58  ASP58      -0.2456
     17  N        -12.6150   12.7640    3.7050 N.3    60  TYR60      -0.1227
     18  CA       -11.6250   12.8210    4.7800 C.3    60  TYR60       0.1736
     19  C        -10.5510   11.7670    4.6590 C.2    60  TYR60       0.2595
     20  O        -10.7450   10.7430    3.9930 O.2    60  TYR60      -0.2718
     21  CB       -12.2970   12.7030    6.1420 C.3    60  TYR60       0.0548
     22  CG       -12.9990   13.9670    6.5380 C.ar   60  TYR60      -0.0200
     23  CD1      -12.3360   14.9580    7.2450 C.ar   60  TYR60      -0.0009
     24  CD2      -14.3250   14.1800    6.1840 C.ar   60  TYR60      -0.0009
     25  CE1      -12.9820   16.1180    7.6030 C.ar   60  TYR60       0.0417
     26  CE2      -14.9740   15.3330    6.5310 C.ar   60  TYR60       0.0417
     27  CZ       -14.3050   16.3000    7.2380 C.ar   60  TYR60       0.1957
     28  OH       -14.9720   17.4550    7.5830 O.3    60  TYR60      -0.2866
     29  N         -9.4130   12.0390    5.2980 N.am   61  GLN61      -0.1965
     30  CA        -8.2860   11.1040    5.3140 C.3    61  GLN61       0.1733
     31  C         -8.7070    9.7870    5.9510 C.2    61  GLN61       0.2617
     32  O         -9.4730    9.7880    6.9220 O.2    61  GLN61      -0.2715
     33  CB        -7.0490   11.7240    5.9930 C.3    61  GLN61       0.0408
     34  CG        -6.5630   12.9490    5.2270 C.3    61  GLN61       0.0908
     35  CD        -5.3160   13.6060    5.7870 C.2    61  GLN61       0.2608
     36  OE1       -4.8230   13.2430    6.8560 O.2    61  GLN61      -0.2717
     37  NE2       -4.8040   14.6000    5.0600 N.am   61  GLN61      -0.0878
     38  N         -8.2530    8.6740    5.3680 N.am   62  SER62      -0.1936
     39  CA        -8.6910    7.3370    5.7960 C.3    62  SER62       0.2055
     40  C         -8.1350    6.9740    7.1520 C.2    62  SER62       0.2643
     41  O         -8.7980    6.3080    7.9460 O.2    62  SER62      -0.2714
     42  CB        -8.2540    6.2590    4.8090 C.3    62  SER62       0.2130
     43  OG        -8.6180    6.6080    3.4920 O.3    62  SER62      -0.2179
     44  N         -6.9190    7.4320    7.4110 N.am   63  TYR63      -0.1973
     45  CA        -6.1470    6.9780    8.5530 C.3    63  TYR63       0.1639
     46  C         -5.7880    8.1030    9.5150 C.2    63  TYR63       0.2290
     47  O         -5.8620    9.2860    9.1600 O.2    63  TYR63      -0.2864
     48  CB        -4.8780    6.2810    8.0720 C.3    63  TYR63       0.0560
     49  CG        -5.1510    5.1440    7.1080 C.ar   63  TYR63      -0.0198
     50  CD1       -5.6790    3.9280    7.5520 C.ar   63  TYR63      -0.0009
     51  CD2       -4.8790    5.2830    5.7470 C.ar   63  TYR63      -0.0009
     52  CE1       -5.9240    2.8900    6.6640 C.ar   63  TYR63       0.0417
     53  CE2       -5.1180    4.2420    4.8520 C.ar   63  TYR63       0.0417
     54  CZ        -5.6350    3.0550    5.3150 C.ar   63  TYR63       0.1957
     55  OH        -5.8620    2.0450    4.4150 O.3    63  TYR63      -0.2866
     56  N         -3.3550    4.6150   11.3850 N.3    69  GLY69      -0.1210
     57  CA        -4.3560    3.5650   11.4220 C.3    69  GLY69       0.1956
     58  C         -5.6390    4.0900   12.0310 C.2    69  GLY69       0.2612
     59  O         -6.1590    5.1190   11.5890 O.2    69  GLY69      -0.2717
     60  N         -6.1380    3.3840   13.0470 N.am   70  GLY70      -0.1942
     61  CA        -7.2380    3.8530   13.8800 C.3    70  GLY70       0.2014
     62  C         -8.5750    3.2150   13.5570 C.2    70  GLY70       0.2639
     63  O         -8.8460    2.9250   12.4060 O.2    70  GLY70      -0.2714
     64  N         -9.3980    2.9950   14.5790 N.am   71  ARG71      -0.1963
     65  CA       -10.7370    2.4340   14.4100 C.3    71  ARG71       0.1729
     66  C        -11.7750    3.5560   14.3610 C.2    71  ARG71       0.2616
     67  O        -12.2980    3.8660   13.3050 O.2    71  ARG71      -0.2715
     68  CB       -11.0530    1.4330   15.5230 C.3    71  ARG71       0.0348
     69  CG        -9.8430    0.6000   15.9740 C.3    71  ARG71       0.0492
     70  CD        -9.3160    1.0960   17.3320 C.3    71  ARG71       0.2205
     71  NE        -9.8370    2.4330   17.6330 N.pl3  71  ARG71      -0.0865
     72  CZ        -9.1060    3.5470   17.6870 C.cat  71  ARG71       0.5346
     73  NH1       -7.7910    3.4970   17.4930 N.pl3  71  ARG71       0.1354
     74  NH2       -9.6900    4.7090   17.9460 N.pl3  71  ARG71       0.1354
     75  N        -12.0600    4.1820   15.4960 N.am   72  GLU72      -0.1963
     76  CA       -12.9050    5.3750   15.5120 C.3    72  GLU72       0.1733
     77  C        -12.0510    6.6380   15.5850 C.2    72  GLU72       0.2616
     78  O        -11.1560    6.7370   16.4150 O.2    72  GLU72      -0.2715
     79  CB       -13.8830    5.3360   16.6890 C.3    72  GLU72       0.0429
     80  CG       -14.8210    6.5490   16.7660 C.3    72  GLU72       0.1163
     81  CD       -15.6890    6.5490   18.0350 C.2    72  GLU72       0.3649
     82  OE1      -15.8490    5.4700   18.6610 O.co2  72  GLU72      -0.2457
     83  OE2      -16.2020    7.6360   18.4110 O.co2  72  GLU72      -0.2457
     84  N        -12.3330    7.6050   14.7190 N.am   73  VAL73      -0.1963
     85  CA       -11.4880    8.7910   14.6100 C.3    73  VAL73       0.1727
     86  C        -12.2780   10.0820   14.7730 C.2    73  VAL73       0.2616
     87  O        -13.4900   10.0940   14.5820 O.2    73  VAL73      -0.2715
     88  CB       -10.7690    8.8420   13.2430 C.3    73  VAL73       0.0290
     89  CG1       -9.7480    7.7230   13.1240 C.3    73  VAL73       0.0023
     90  CG2      -11.7780    8.7780   12.1100 C.3    73  VAL73       0.0023
     91  N        -11.5780   11.1600   15.1290 N.am   74  LEU74      -0.1963
     92  CA       -12.1400   12.5150   15.1160 C.3    74  LEU74       0.1728
     93  C        -11.7140   13.1860   13.8210 C.2    74  LEU74       0.2616
     94  O        -10.5950   12.9650   13.3430 O.2    74  LEU74      -0.2715
     95  CB       -11.6040   13.3760   16.2610 C.3    74  LEU74       0.0311
     96  CG       -11.4730   12.9480   17.7240 C.3    74  LEU74       0.0022
     97  CD1      -11.7410   14.1630   18.6030 C.3    74  LEU74       0.0001
     98  CD2      -12.3830   11.7970   18.1190 C.3    74  LEU74       0.0001
     99  N        -12.5900   14.0140   13.2640 N.am   75  MET75      -0.1977
    100  CA       -12.3130   14.6800   11.9950 C.3    75  MET75       0.1605
    101  C        -12.2220   16.1630   12.2000 C.2    75  MET75       0.2287
    102  O        -12.9760   16.7420   12.9910 O.2    75  MET75      -0.2864
    103  CB       -13.3910   14.3590   10.9770 C.3    75  MET75       0.0413
    104  CG       -13.4050   12.8850   10.5940 C.3    75  MET75       0.0598
    105  SD       -15.0710   12.2200   10.5010 S.3    75  MET75      -0.1393
    106  CE       -15.7350   13.1490    9.1290 C.3    75  MET75       0.0692
    107  N         -7.5800   13.1910   10.1970 N.3    84  CYS84      -0.1235
    108  CA        -8.2420   12.4040   11.2380 C.3    84  CYS84       0.1677
    109  C         -7.3100   12.0070   12.3930 C.2    84  CYS84       0.2270
    110  O         -6.1050   11.7800   12.2070 O.2    84  CYS84      -0.2867
    111  CB        -8.9640   11.2020   10.6370 C.3    84  CYS84       0.0956
    112  SG       -10.2670   11.7260    9.4740 S.3    84  CYS84      -0.0801
    113  N        -13.2530   16.5930   22.9630 N.3   102  ALA102     -0.1231
    114  CA       -13.1230   17.1500   21.6210 C.3   102  ALA102      0.1694
    115  C        -14.3460   16.8640   20.7190 C.2   102  ALA102      0.2591
    116  O        -14.7310   17.6980   19.9090 O.2   102  ALA102     -0.2718
    117  CB       -11.8200   16.6660   20.9760 C.3   102  ALA102      0.0304
    118  N        -14.9390   15.6830   20.8700 N.am  103  ILE103     -0.1980
    119  CA       -16.1990   15.3360   20.2030 C.3   103  ILE103      0.1595
    120  C        -17.3250   16.2880   20.6150 C.2   103  ILE103      0.2287
    121  O        -18.1330   16.6860   19.7800 O.2   103  ILE103     -0.2864
    122  CB       -16.6070   13.8750   20.5070 C.3   103  ILE103      0.0276
    123  CG1      -15.6100   12.9080   19.8620 C.3   103  ILE103      0.0022
    124  CG2      -18.0270   13.5730   20.0190 C.3   103  ILE103      0.0022
    125  CD1      -15.6940   11.4870   20.3950 C.3   103  ILE103      0.0001
    126  N        -16.7890   19.3440   21.7500 N.3   105  GLU105     -0.1231
    127  CA       -16.3870   20.6390   21.2160 C.3   105  GLU105      0.1699
    128  C        -16.9840   20.8230   19.8290 C.2   105  GLU105      0.2592
    129  O        -16.8440   19.9540   18.9640 O.2   105  GLU105     -0.2718
    130  CB       -14.8630   20.7420   21.1620 C.3   105  GLU105      0.0402
    131  CG       -14.3150   22.0750   21.6180 C.3   105  GLU105      0.1161
    132  CD       -12.7980   22.1300   21.5550 C.2   105  GLU105      0.3649
    133  OE1      -12.2560   23.2230   21.2660 O.co2 105  GLU105     -0.2457
    134  OE2      -12.1430   21.0880   21.7940 O.co2 105  GLU105     -0.2457
    135  N        -17.6600   21.9480   19.6190 N.am  106  ASP106     -0.1960
    136  CA       -18.3540   22.1930   18.3560 C.3   106  ASP106      0.1825
    137  C        -18.1490   23.6260   17.8520 C.2   106  ASP106      0.2464
    138  O        -18.5580   24.5770   18.5260 O.2   106  ASP106     -0.2730
    139  CB       -19.8410   21.9100   18.5390 C.3   106  ASP106      0.1450
    140  CG       -20.6320   22.1200   17.2700 C.2   106  ASP106      0.3671
    141  OD1      -20.1050   21.8170   16.1720 O.co2 106  ASP106     -0.2456
    142  OD2      -21.7880   22.5870   17.3840 O.co2 106  ASP106     -0.2456
    143  N        -17.4890   23.7940   16.6830 N.am  107  PRO107     -0.2715
    144  CA       -16.8560   22.7630   15.8540 C.3   107  PRO107      0.1536
    145  C        -15.5540   22.3010   16.4900 C.2   107  PRO107      0.2598
    146  O        -15.3810   22.4420   17.7050 O.2   107  PRO107     -0.2715
    147  CB       -16.5270   23.5070   14.5440 C.3   107  PRO107      0.0310
    148  CG       -17.1630   24.8290   14.6470 C.3   107  PRO107      0.0237
    149  CD       -17.2820   25.1270   16.1030 C.3   107  PRO107      0.0939
    150  N        -14.6320   21.7750   15.6920 N.am  108  TRP108     -0.1974
    151  CA       -13.3480   21.3570   16.2490 C.3   108  TRP108      0.1640
    152  C        -12.1870   21.5700   15.2900 C.2   108  TRP108      0.2290
    153  O        -12.1840   21.0710   14.1700 O.2   108  TRP108     -0.2864
    154  CB       -13.4140   19.9000   16.7190 C.3   108  TRP108      0.0576
    155  CG       -12.1380   19.3500   17.3270 C.ar  108  TRP108      0.0006
    156  CD1      -11.6150   19.6460   18.5610 C.ar  108  TRP108      0.0946
    157  CD2      -11.2480   18.3960   16.7340 C.ar  108  TRP108      0.0152
    158  NE1      -10.4540   18.9460   18.7610 N.ar  108  TRP108     -0.2442
    159  CE2      -10.2030   18.1740   17.6560 C.ar  108  TRP108      0.0810
    160  CE3      -11.2290   17.7140   15.5120 C.ar  108  TRP108      0.0012
    161  CZ2       -9.1540   17.2960   17.3940 C.ar  108  TRP108      0.0191
    162  CZ3      -10.1880   16.8510   15.2540 C.ar  108  TRP108      0.0001
    163  CH2       -9.1650   16.6460   16.1940 C.ar  108  TRP108      0.0015
@<TRIPOS>BOND
     1     4     3    2
     2     3     2    1
     3     2     1    1
     4     2     5    1
     5     9    10    1
     6    11    10    1
     7    11    12    2
     8    10    13    1
     9     5     6    1
    10    43    42    1
    11     7     6   ar
    12    17    18    1
    13    20    19    2
    14     6     8   ar
    15    13    14    1
    16    55    54    1
    17    15    14   ar
    18    19    18    1
    19    19    29   am
    20    18    21    1
    21    42    39    1
    22    53    54   ar
    23    53    51   ar
    24    37    35   am
    25    14    16   ar
    26    34    35    1
    27    34    33    1
    28    29    30    1
    29    30    31    1
    30    30    33    1
    31    54    52   ar
    32    38    39    1
    33    38    31   am
    34    51    49   ar
    35    35    36    2
    36    39    40    1
    37    31    32    2
    38    21    22    1
    39    24    26   ar
    40    24    22   ar
    41    26    27   ar
    42    22    23   ar
    43    52    50   ar
    44    49    50   ar
    45    49    48    1
    46    40    44   am
    47    40    41    2
    48    27    28    1
    49    27    25   ar
    50    23    25   ar
    51    44    45    1
    52    48    45    1
    53    45    46    1
    54   106   105    1
    55    47    46    2
    56   112   111    1
    57   107   108    1
    58   105   104    1
    59   104   103    1
    60   111   108    1
    61   103   100    1
    62   108   109    1
    63    56    57    1
    64    57    58    1
    65    59    58    2
    66   100   101    1
    67   100    99    1
    68    58    60   am
    69    90    88    1
    70   101   102    2
    71   110   109    2
    72    63    62    2
    73    60    61    1
    74    89    88    1
    75    88    85    1
    76    99    93   am
    77    67    66    2
    78    94    93    2
    79    62    61    1
    80    62    64   am
    81    93    92    1
    82   153   152    2
    83    66    65    1
    84    66    75   am
    85    65    64    1
    86    65    68    1
    87   147   148    1
    88   147   144    1
    89    87    86    2
    90    85    84    1
    91    85    86    1
    92   148   149    1
    93    84    77   am
    94    86    91   am
    95    92    91    1
    96    92    95    1
    97   162   160   ar
    98   162   163   ar
    99   152   151    1
   100    75    76    1
   101    76    77    1
   102    76    79    1
   103   160   157   ar
   104    68    69    1
   105    77    78    2
   106   150   151    1
   107   150   145   am
   108   144   145    1
   109   144   143    1
   110    69    70    1
   111   149   143    1
   112   141   140   ar
   113   163   161   ar
   114   151   154    1
   115    95    96    1
   116   145   146    2
   117   143   137   am
   118    79    80    1
   119   154   155    1
   120   157   155   ar
   121   157   159   ar
   122    80    81    1
   123   140   142   ar
   124   140   139    1
   125   155   156   ar
   126    70    71    1
   127   161   159   ar
   128    73    72    1
   129    71    72    2
   130   159   158   ar
   131    72    74    1
   132    96    98    1
   133    96    97    1
   134   137   136    1
   135   137   138    2
   136    81    83   ar
   137    81    82   ar
   138   136   139    1
   139   136   135    1
   140   156   158   ar
   141   129   128    2
   142   135   128   am
   143   121   120    2
   144   128   127    1
   145   123   125    1
   146   123   122    1
   147   116   115    2
   148   124   122    1
   149   119   122    1
   150   119   120    1
   151   119   118    1
   152   115   118   am
   153   115   114    1
   154   117   114    1
   155   130   127    1
   156   130   131    1
   157   127   126    1
   158   133   132   ar
   159   132   131    1
   160   132   134   ar
   161   114   113    1
