@<TRIPOS>MOLECULE
tmp/4qbrC00.pdb
 164 161 0 0 0
SMALL
GASTEIGER

@<TRIPOS>ATOM
      1  N         24.8690   -8.3290    2.3160 N.3    55  ASP55      -0.1239
      2  CA        24.6920   -7.1610    3.1940 C.3    55  ASP55       0.1674
      3  C         23.4010   -7.2750    4.0000 C.2    55  ASP55       0.2266
      4  O         22.6240   -8.2090    3.8060 O.2    55  ASP55      -0.2867
      5  CB        24.6630   -5.8510    2.3930 C.3    55  ASP55       0.1410
      6  CG        25.9590   -5.5700    1.6750 C.2    55  ASP55       0.3668
      7  OD1       27.0340   -5.9980    2.1520 O.co2  55  ASP55      -0.2456
      8  OD2       25.8990   -4.9030    0.6220 O.co2  55  ASP55      -0.2456
      9  N         20.7610   -5.6150    3.7210 N.3    57  ASP57      -0.1239
     10  CA        19.5850   -5.3930    2.8730 C.3    57  ASP57       0.1674
     11  C         19.0690   -6.7060    2.2820 C.2    57  ASP57       0.2266
     12  O         18.0240   -6.7260    1.6390 O.2    57  ASP57      -0.2867
     13  CB        19.8800   -4.3800    1.7350 C.3    57  ASP57       0.1410
     14  CG        21.0100   -4.8170    0.8050 C.2    57  ASP57       0.3668
     15  OD1       21.6740   -5.8430    1.0700 O.co2  57  ASP57      -0.2456
     16  OD2       21.2460   -4.1110   -0.2080 O.co2  57  ASP57      -0.2456
     17  N         20.8030   -8.4790    0.0680 N.3    59  TYR59      -0.1227
     18  CA        21.3860   -8.6590   -1.2580 C.3    59  TYR59       0.1736
     19  C         22.9040   -8.7940   -1.1730 C.2    59  TYR59       0.2595
     20  O         23.5300   -8.3990   -0.1860 O.2    59  TYR59      -0.2718
     21  CB        20.9960   -7.5020   -2.1860 C.3    59  TYR59       0.0548
     22  CG        19.5180   -7.5180   -2.5050 C.ar   59  TYR59      -0.0200
     23  CD1       18.6130   -6.8480   -1.6980 C.ar   59  TYR59      -0.0009
     24  CD2       19.0230   -8.2560   -3.5800 C.ar   59  TYR59      -0.0009
     25  CE1       17.2490   -6.8750   -1.9610 C.ar   59  TYR59       0.0417
     26  CE2       17.6490   -8.2900   -3.8600 C.ar   59  TYR59       0.0417
     27  CZ        16.7730   -7.5960   -3.0440 C.ar   59  TYR59       0.1957
     28  OH        15.4130   -7.6160   -3.2930 O.3    59  TYR59      -0.2866
     29  N         23.4920   -9.3600   -2.2150 N.am   60  GLN60      -0.1965
     30  CA        24.9170   -9.6230   -2.2010 C.3    60  GLN60       0.1733
     31  C         25.7460   -8.3500   -2.0930 C.2    60  GLN60       0.2617
     32  O         25.3310   -7.2800   -2.5430 O.2    60  GLN60      -0.2715
     33  CB        25.2950  -10.4530   -3.4370 C.3    60  GLN60       0.0408
     34  CG        24.6700  -11.8340   -3.3100 C.3    60  GLN60       0.0908
     35  CD        24.9950  -12.7760   -4.4410 C.2    60  GLN60       0.2608
     36  OE1       25.9760  -12.5960   -5.1580 O.2    60  GLN60      -0.2717
     37  NE2       24.1710  -13.8040   -4.5970 N.am   60  GLN60      -0.0878
     38  N         26.9120   -8.4890   -1.4700 N.am   61  SER61      -0.1936
     39  CA        27.7310   -7.3560   -1.0930 C.3    61  SER61       0.2055
     40  C         28.5350   -6.8490   -2.2810 C.2    61  SER61       0.2643
     41  O         28.7390   -5.6430   -2.4280 O.2    61  SER61      -0.2714
     42  CB        28.6740   -7.7360    0.0600 C.3    61  SER61       0.2130
     43  OG        27.9460   -8.1960    1.1940 O.3    61  SER61      -0.2179
     44  N         28.9640   -7.7760   -3.1360 N.am   62  TYR62      -0.1973
     45  CA        29.9110   -7.4450   -4.1850 C.3    62  TYR62       0.1639
     46  C         29.5080   -7.8930   -5.5670 C.2    62  TYR62       0.2290
     47  O         28.8240   -8.8900   -5.7150 O.2    62  TYR62      -0.2864
     48  CB        31.2670   -8.0560   -3.8550 C.3    62  TYR62       0.0560
     49  CG        31.7500   -7.6000   -2.5140 C.ar   62  TYR62      -0.0198
     50  CD1       32.0750   -6.2680   -2.3050 C.ar   62  TYR62      -0.0009
     51  CD2       31.8470   -8.4850   -1.4500 C.ar   62  TYR62      -0.0009
     52  CE1       32.5110   -5.8270   -1.0760 C.ar   62  TYR62       0.0417
     53  CE2       32.2850   -8.0530   -0.2130 C.ar   62  TYR62       0.0417
     54  CZ        32.6170   -6.7200   -0.0350 C.ar   62  TYR62       0.1957
     55  OH        33.0510   -6.2670    1.1890 O.3    62  TYR62      -0.2866
     56  N         33.9670   -6.6340   -6.5960 N.3    68  GLY68      -0.1210
     57  CA        34.1480   -5.3330   -5.9900 C.3    68  GLY68       0.1956
     58  C         33.0350   -4.3980   -6.3990 C.2    68  GLY68       0.2612
     59  O         31.8630   -4.6760   -6.1530 O.2    68  GLY68      -0.2717
     60  N         33.4120   -3.2880   -7.0260 N.am   69  GLY69      -0.1942
     61  CA        32.4590   -2.3230   -7.5370 C.3    69  GLY69       0.2014
     62  C         32.2080   -1.1800   -6.5760 C.2    69  GLY69       0.2639
     63  O         32.4050   -1.3270   -5.3670 O.2    69  GLY69      -0.2714
     64  N         31.7840   -0.0400   -7.1160 N.am   70  ARG70      -0.1963
     65  CA        31.3580    1.0960   -6.3020 C.3    70  ARG70       0.1729
     66  C         29.8250    1.2270   -6.2820 C.2    70  ARG70       0.2616
     67  O         29.2170    1.1960   -5.2180 O.2    70  ARG70      -0.2715
     68  CB        31.9960    2.3930   -6.8060 C.3    70  ARG70       0.0348
     69  CG        33.4520    2.5640   -6.4010 C.3    70  ARG70       0.0492
     70  CD        34.0670    3.7970   -7.0450 C.3    70  ARG70       0.2205
     71  NE        34.1270    3.6650   -8.4980 N.pl3  70  ARG70      -0.0865
     72  CZ        35.1110    3.0540   -9.1520 C.cat  70  ARG70       0.5346
     73  NH1       36.1300    2.5200   -8.4840 N.pl3  70  ARG70       0.1354
     74  NH2       35.0780    2.9810  -10.4770 N.pl3  70  ARG70       0.1354
     75  N         29.2040    1.3910   -7.4470 N.am   71  GLU71      -0.1963
     76  CA        27.7390    1.3360   -7.5300 C.3    71  GLU71       0.1733
     77  C         27.3210    0.0170   -8.1720 C.2    71  GLU71       0.2616
     78  O         27.7970   -0.3330   -9.2370 O.2    71  GLU71      -0.2715
     79  CB        27.1720    2.5110   -8.3260 C.3    71  GLU71       0.0429
     80  CG        25.6390    2.5150   -8.4430 C.3    71  GLU71       0.1163
     81  CD        25.1090    3.7540   -9.1470 C.2    71  GLU71       0.3649
     82  OE1       23.8730    3.8980   -9.2870 O.co2  71  GLU71      -0.2457
     83  OE2       25.9340    4.5880   -9.5670 O.co2  71  GLU71      -0.2457
     84  N         26.4470   -0.7220   -7.5060 N.am   72  VAL72      -0.1963
     85  CA        26.0080   -2.0050   -8.0240 C.3    72  VAL72       0.1727
     86  C         24.5070   -2.0050   -8.2640 C.2    72  VAL72       0.2616
     87  O         23.7520   -1.3350   -7.5690 O.2    72  VAL72      -0.2715
     88  CB        26.3760   -3.1670   -7.0780 C.3    72  VAL72       0.0290
     89  CG1       27.9040   -3.3420   -7.0160 C.3    72  VAL72       0.0023
     90  CG2       25.8140   -2.9150   -5.6950 C.3    72  VAL72       0.0023
     91  N         24.1070   -2.7540   -9.2840 N.am   73  LEU73      -0.1963
     92  CA        22.7130   -2.9880   -9.6040 C.3    73  LEU73       0.1728
     93  C         22.3450   -4.3100   -8.9760 C.2    73  LEU73       0.2616
     94  O         23.1130   -5.2570   -9.0840 O.2    73  LEU73      -0.2715
     95  CB        22.4890   -3.0390  -11.1140 C.3    73  LEU73       0.0311
     96  CG        22.5320   -1.7330  -11.9170 C.3    73  LEU73       0.0022
     97  CD1       23.9300   -1.1800  -11.9970 C.3    73  LEU73       0.0001
     98  CD2       21.9830   -1.9740  -13.3010 C.3    73  LEU73       0.0001
     99  N         21.1800   -4.3870   -8.3520 N.am   74  MET74      -0.1963
    100  CA        20.7640   -5.5980   -7.6350 C.3    74  MET74       0.1736
    101  C         19.6590   -6.3580   -8.3720 C.2    74  MET74       0.2617
    102  O         18.7150   -5.7600   -8.8620 O.2    74  MET74      -0.2715
    103  CB        20.2890   -5.2340   -6.2270 C.3    74  MET74       0.0427
    104  CG        21.4170   -4.7910   -5.3080 C.3    74  MET74       0.0599
    105  SD        20.8250   -4.1960   -3.7060 S.3    74  MET74      -0.1393
    106  CE        20.1620   -2.6020   -4.1870 C.3    74  MET74       0.0692
    107  N         19.7950   -7.6780   -8.4580 N.am   75  CYS75      -0.1954
    108  CA        18.8130   -8.4960   -9.1430 C.3    75  CYS75       0.1843
    109  C         17.5100   -8.5520   -8.3340 C.2    75  CYS75       0.2625
    110  O         17.5450   -8.6700   -7.1150 O.2    75  CYS75      -0.2714
    111  CB        19.3610   -9.9060   -9.3660 C.3    75  CYS75       0.0997
    112  SG        18.2320  -10.9860  -10.2700 S.3    75  CYS75      -0.0797
    113  N         16.3990   -8.4210   -9.0190 N.am   76  ASP76      -0.1971
    114  CA        15.0940   -8.4440   -8.3660 C.3    76  ASP76       0.1709
    115  C         14.5870   -9.8650   -8.0330 C.2    76  ASP76       0.2293
    116  O         13.6650  -10.0000   -7.2940 O.2    76  ASP76      -0.2864
    117  CB        14.0620   -7.6930   -9.1680 C.3    76  ASP76       0.1436
    118  CG        14.1430   -6.1930   -8.9710 C.2    76  ASP76       0.3671
    119  OD1       14.4730   -5.7570   -7.8880 O.co2  76  ASP76      -0.2456
    120  OD2       13.9000   -5.4820   -9.8900 O.co2  76  ASP76      -0.2456
    121  N         19.8800   -0.5920  -17.9220 N.3   101  ALA101     -0.1231
    122  CA        19.4290   -1.5540  -16.9280 C.3   101  ALA101      0.1694
    123  C         18.8400   -0.8530  -15.7060 C.2   101  ALA101      0.2591
    124  O         17.8820   -1.3400  -15.1110 O.2   101  ALA101     -0.2718
    125  CB        20.5820   -2.4710  -16.5090 C.3   101  ALA101      0.0304
    126  N         19.4100    0.2900  -15.3330 N.am  102  ILE102     -0.1980
    127  CA        18.9520    0.9860  -14.1280 C.3   102  ILE102      0.1595
    128  C         17.4990    1.4270  -14.3310 C.2   102  ILE102      0.2287
    129  O         16.7120    1.4790  -13.3820 O.2   102  ILE102     -0.2864
    130  CB        19.8860    2.1690  -13.7700 C.3   102  ILE102      0.0276
    131  CG1       21.1840    1.6310  -13.1530 C.3   102  ILE102      0.0022
    132  CG2       19.2480    3.1370  -12.7690 C.3   102  ILE102      0.0022
    133  CD1       22.2240    2.6940  -12.8580 C.3   102  ILE102      0.0001
    134  N         15.2120   -0.3640  -16.1490 N.3   104  GLU104     -0.1231
    135  CA        14.3110   -1.5260  -16.1540 C.3   104  GLU104      0.1699
    136  C         13.7530   -1.8160  -14.7670 C.2   104  GLU104      0.2592
    137  O         14.5060   -1.8950  -13.8010 O.2   104  GLU104     -0.2718
    138  CB        15.0180   -2.7970  -16.6420 C.3   104  GLU104      0.0402
    139  CG        15.5920   -2.7840  -18.0370 C.3   104  GLU104      0.1161
    140  CD        16.2060   -4.1430  -18.4100 C.2   104  GLU104      0.3649
    141  OE1       15.6800   -5.1880  -17.9560 O.co2 104  GLU104     -0.2457
    142  OE2       17.2190   -4.1680  -19.1500 O.co2 104  GLU104     -0.2457
    143  N         12.4400   -2.0200  -14.6740 N.am  105  ASP105     -0.1974
    144  CA        11.8240   -2.3740  -13.4040 C.3   105  ASP105      0.1709
    145  C         10.5550   -3.2110  -13.6460 C.2   105  ASP105      0.2293
    146  O          9.5560   -2.7030  -14.1400 O.2   105  ASP105     -0.2864
    147  CB        11.5240   -1.1070  -12.5940 C.3   105  ASP105      0.1436
    148  CG        10.6840   -1.3820  -11.3720 C.2   105  ASP105      0.3671
    149  OD1       10.7790   -2.4910  -10.8060 O.co2 105  ASP105     -0.2456
    150  OD2        9.9190   -0.4860  -10.9770 O.co2 105  ASP105     -0.2456
    151  N         14.0680   -5.6980  -12.7500 N.3   107  TRP107     -0.1241
    152  CA        15.3020   -6.0410  -13.4550 C.3   107  TRP107      0.1605
    153  C         15.8160   -7.4130  -13.0760 C.2   107  TRP107      0.2264
    154  O         16.0760   -7.6890  -11.9080 O.2   107  TRP107     -0.2867
    155  CB        16.4020   -5.0160  -13.1900 C.3   107  TRP107      0.0550
    156  CG        17.6710   -5.2730  -13.9830 C.ar  107  TRP107      0.0003
    157  CD1       17.8470   -5.1220  -15.3300 C.ar  107  TRP107      0.0946
    158  CD2       18.9330   -5.7020  -13.4630 C.ar  107  TRP107      0.0152
    159  NE1       19.1380   -5.4350  -15.6810 N.ar  107  TRP107     -0.2442
    160  CE2       19.8270   -5.7930  -14.5540 C.ar  107  TRP107      0.0810
    161  CE3       19.3930   -6.0210  -12.1840 C.ar  107  TRP107      0.0012
    162  CZ2       21.1530   -6.1860  -14.4020 C.ar  107  TRP107      0.0191
    163  CZ3       20.7050   -6.4190  -12.0360 C.ar  107  TRP107      0.0001
    164  CH2       21.5750   -6.4890  -13.1370 C.ar  107  TRP107      0.0015
@<TRIPOS>BOND
     1   142   140   ar
     2   140   139    1
     3   140   141   ar
     4   139   138    1
     5   121   122    1
     6   122   125    1
     7   122   123    1
     8   138   135    1
     9   135   134    1
    10   135   136    1
    11   123   126   am
    12   123   124    2
    13   159   157   ar
    14   159   160   ar
    15   126   127    1
    16   157   156   ar
    17   136   143   am
    18   136   137    2
    19   143   144    1
    20   160   162   ar
    21   160   158   ar
    22   162   164   ar
    23   128   127    1
    24   128   129    2
    25   146   145    2
    26   127   130    1
    27   156   158   ar
    28   156   155    1
    29   130   131    1
    30   130   132    1
    31   145   144    1
    32   158   161   ar
    33   152   155    1
    34   152   153    1
    35   152   151    1
    36   144   147    1
    37    98    96    1
    38   131   133    1
    39   164   163   ar
    40   153   154    2
    41   147   148    1
    42   161   163   ar
    43    97    96    1
    44    96    95    1
    45   148   150   ar
    46   148   149   ar
    47    95    92    1
    48    74    72    1
    49   112   111    1
    50   120   118   ar
    51    92    91    1
    52    92    93    1
    53    83    81   ar
    54   111   108    1
    55    82    81   ar
    56    91    86   am
    57    78    77    2
    58   117   118    1
    59   117   114    1
    60    72    71    2
    61    72    73    1
    62    81    80    1
    63   108   107    1
    64   108   109    1
    65    94    93    2
    66   113   114    1
    67   113   109   am
    68    93    99   am
    69   118   119   ar
    70   102   101    2
    71    71    70    1
    72   107   101   am
    73    80    79    1
    74   101   100    1
    75   114   115    1
    76    99   100    1
    77   109   110    2
    78    79    76    1
    79    86    85    1
    80    86    87    2
    81    77    76    1
    82    77    84   am
    83   115   116    2
    84    85    84    1
    85    85    88    1
    86   100   103    1
    87    61    60    1
    88    61    62    1
    89    76    75    1
    90    75    66   am
    91    64    62   am
    92    64    65    1
    93    88    89    1
    94    88    90    1
    95    70    69    1
    96    60    58   am
    97    68    69    1
    98    68    65    1
    99    56    57    1
   100    62    63    2
   101    58    59    2
   102    58    57    1
   103    65    66    1
   104    66    67    2
   105   103   104    1
   106    47    46    2
   107    46    45    1
   108   104   105    1
   109    36    35    2
   110    37    35   am
   111    35    34    1
   112   106   105    1
   113    45    48    1
   114    45    44    1
   115    26    24   ar
   116    26    27   ar
   117    48    49    1
   118    24    22   ar
   119    33    34    1
   120    33    30    1
   121    28    27    1
   122    44    40   am
   123    27    25   ar
   124    32    31    2
   125    49    50   ar
   126    49    51   ar
   127    22    21    1
   128    22    23   ar
   129    41    40    2
   130    50    52   ar
   131    40    39    1
   132    29    30    1
   133    29    19   am
   134    30    31    1
   135    21    18    1
   136    31    38   am
   137    25    23   ar
   138    38    39    1
   139    51    53   ar
   140    18    19    1
   141    18    17    1
   142    19    20    2
   143    39    42    1
   144    52    54   ar
   145    53    54   ar
   146    16    14   ar
   147    54    55    1
   148    42    43    1
   149     8     6   ar
   150    14    15   ar
   151    14    13    1
   152    12    11    2
   153     6     7   ar
   154     6     5    1
   155    13    10    1
   156    11    10    1
   157     1     2    1
   158     5     2    1
   159    10     9    1
   160     2     3    1
   161     4     3    2
