@<TRIPOS>MOLECULE
tmp/4qbsA00.pdb
 158 153 0 0 0
SMALL
GASTEIGER

@<TRIPOS>ATOM
      1  N         18.4020   -4.7290   -2.5720 N.3    56  ASP56      -0.1239
      2  CA        17.2690   -3.9190   -3.0340 C.3    56  ASP56       0.1674
      3  C         16.8760   -2.9220   -1.9530 C.2    56  ASP56       0.2266
      4  O         17.4260   -2.9550   -0.8570 O.2    56  ASP56      -0.2867
      5  CB        16.0770   -4.8120   -3.3780 C.3    56  ASP56       0.1410
      6  CG        16.3190   -5.6560   -4.6020 C.2    56  ASP56       0.3668
      7  OD1       17.2270   -5.3180   -5.3950 O.co2  56  ASP56      -0.2456
      8  OD2       15.5910   -6.6550   -4.7790 O.co2  56  ASP56      -0.2456
      9  N         14.2430   -2.8720   -0.3070 N.3    58  ASP58      -0.1239
     10  CA        13.4940   -3.5540    0.7420 C.3    58  ASP58       0.1674
     11  C         14.4200   -4.0760    1.8280 C.2    58  ASP58       0.2266
     12  O         13.9810   -4.7040    2.7850 O.2    58  ASP58      -0.2867
     13  CB        12.6600   -4.7100    0.1550 C.3    58  ASP58       0.1410
     14  CG        13.5160   -5.7720   -0.5500 C.2    58  ASP58       0.3668
     15  OD1       14.7610   -5.6570   -0.5440 O.co2  58  ASP58      -0.2456
     16  OD2       12.9310   -6.7330   -1.1080 O.co2  58  ASP58      -0.2456
     17  N         16.5910   -6.4100    1.3240 N.3    60  TYR60      -0.1227
     18  CA        16.9710   -7.7930    1.0490 C.3    60  TYR60       0.1736
     19  C         17.9210   -7.9000   -0.1330 C.2    60  TYR60       0.2595
     20  O         17.9510   -7.0390   -1.0170 O.2    60  TYR60      -0.2718
     21  CB        15.7370   -8.6630    0.7960 C.3    60  TYR60       0.0548
     22  CG        15.0630   -9.1170    2.0700 C.ar   60  TYR60      -0.0200
     23  CD1       14.2510   -8.2550    2.7870 C.ar   60  TYR60      -0.0009
     24  CD2       15.2500  -10.4130    2.5610 C.ar   60  TYR60      -0.0009
     25  CE1       13.6320   -8.6620    3.9630 C.ar   60  TYR60       0.0417
     26  CE2       14.6390  -10.8300    3.7380 C.ar   60  TYR60       0.0417
     27  CZ        13.8330   -9.9460    4.4330 C.ar   60  TYR60       0.1957
     28  OH        13.2180  -10.3580    5.5930 O.3    60  TYR60      -0.2866
     29  N         18.6960   -8.9780   -0.1450 N.am   61  GLN61      -0.1965
     30  CA        19.5820   -9.2350   -1.2610 C.3    61  GLN61       0.1733
     31  C         18.7710   -9.3240   -2.5420 C.2    61  GLN61       0.2617
     32  O         17.6090   -9.7440   -2.5250 O.2    61  GLN61      -0.2715
     33  CB        20.4030  -10.5120   -0.9920 C.3    61  GLN61       0.0408
     34  CG        21.3990  -10.2630    0.1590 C.3    61  GLN61       0.0908
     35  CD        22.0560  -11.5030    0.7300 C.2    61  GLN61       0.2608
     36  OE1       21.9230  -12.5950    0.1930 O.2    61  GLN61      -0.2717
     37  NE2       22.7920  -11.3260    1.8300 N.am   61  GLN61      -0.0878
     38  N         19.3770   -8.9160   -3.6570 N.am   62  SER62      -0.1936
     39  CA        18.6450   -8.7960   -4.8980 C.3    62  SER62       0.2055
     40  C         18.3280  -10.1480   -5.5180 C.2    62  SER62       0.2643
     41  O         17.2940  -10.3130   -6.1710 O.2    62  SER62      -0.2714
     42  CB        19.4400   -7.9430   -5.8980 C.3    62  SER62       0.2130
     43  OG        19.5430   -6.6110   -5.4360 O.3    62  SER62      -0.2179
     44  N         19.2250  -11.1090   -5.3160 N.am   63  TYR63      -0.1973
     45  CA        19.1030  -12.4030   -5.9850 C.3    63  TYR63       0.1639
     46  C         19.2440  -13.6080   -5.0640 C.2    63  TYR63       0.2290
     47  O         19.5310  -13.4810   -3.8720 O.2    63  TYR63      -0.2864
     48  CB        20.1410  -12.5080   -7.0900 C.3    63  TYR63       0.0560
     49  CG        19.9930  -11.4230   -8.1410 C.ar   63  TYR63      -0.0198
     50  CD1       18.9900  -11.4930   -9.1040 C.ar   63  TYR63      -0.0009
     51  CD2       20.8470  -10.3380   -8.1610 C.ar   63  TYR63      -0.0009
     52  CE1       18.8520  -10.5020  -10.0620 C.ar   63  TYR63       0.0417
     53  CE2       20.7270   -9.3400   -9.1250 C.ar   63  TYR63       0.0417
     54  CZ        19.7280   -9.4290  -10.0640 C.ar   63  TYR63       0.1957
     55  OH        19.5990   -8.4340  -11.0050 O.3    63  TYR63      -0.2866
     56  N         17.6410  -15.7560  -10.5580 N.3    70  GLY70      -0.1210
     57  CA        16.2550  -16.0760  -10.2490 C.3    70  GLY70       0.1956
     58  C         15.3610  -14.9490  -10.7220 C.2    70  GLY70       0.2612
     59  O         15.7760  -13.8020  -10.7560 O.2    70  GLY70      -0.2717
     60  N         14.1330  -15.2700  -11.0950 N.am   71  ARG71      -0.1965
     61  CA        13.1860  -14.2480  -11.5130 C.3    71  ARG71       0.1729
     62  C         12.2210  -13.9540  -10.3790 C.2    71  ARG71       0.2616
     63  O         11.7330  -12.8340  -10.2250 O.2    71  ARG71      -0.2715
     64  CB        12.4190  -14.6970  -12.7600 C.3    71  ARG71       0.0348
     65  CG        13.3040  -15.0800  -13.9470 C.3    71  ARG71       0.0492
     66  CD        12.4880  -15.1790  -15.2400 C.3    71  ARG71       0.2205
     67  NE        11.8400  -13.9090  -15.5680 N.pl3  71  ARG71      -0.0865
     68  CZ        10.5560  -13.6340  -15.3440 C.cat  71  ARG71       0.5346
     69  NH1       10.0630  -12.4440  -15.6710 N.pl3  71  ARG71       0.1354
     70  NH2        9.7630  -14.5460  -14.7950 N.pl3  71  ARG71       0.1354
     71  N         11.9390  -14.9900   -9.6010 N.am   72  ARG72      -0.1963
     72  CA        11.0150  -14.9210   -8.4820 C.3    72  ARG72       0.1729
     73  C         11.7150  -15.5750   -7.3250 C.2    72  ARG72       0.2616
     74  O         12.2270  -16.6800   -7.4810 O.2    72  ARG72      -0.2715
     75  CB         9.7060  -15.6390   -8.8170 C.3    72  ARG72       0.0348
     76  CG         8.7820  -15.9190   -7.6400 C.3    72  ARG72       0.0492
     77  CD         7.3900  -16.2990   -8.1500 C.3    72  ARG72       0.2205
     78  NE         6.4710  -16.6080   -7.0660 N.pl3  72  ARG72      -0.0865
     79  CZ         6.1340  -17.8410   -6.7180 C.cat  72  ARG72       0.5346
     80  NH1        6.6370  -18.8720   -7.3850 N.pl3  72  ARG72       0.1354
     81  NH2        5.2850  -18.0320   -5.7210 N.pl3  72  ARG72       0.1354
     82  N         11.7870  -14.8980   -6.1800 N.am   73  VAL73      -0.1963
     83  CA        12.5010  -15.4560   -5.0470 C.3    73  VAL73       0.1727
     84  C         11.6900  -15.4200   -3.7510 C.2    73  VAL73       0.2616
     85  O         10.7920  -14.5930   -3.5840 O.2    73  VAL73      -0.2715
     86  CB        13.8470  -14.7310   -4.7980 C.3    73  VAL73       0.0290
     87  CG1       14.8080  -14.8730   -5.9940 C.3    73  VAL73       0.0023
     88  CG2       13.6260  -13.2830   -4.4670 C.3    73  VAL73       0.0023
     89  N         12.0280  -16.3340   -2.8410 N.am   74  LEU74      -0.1963
     90  CA        11.5060  -16.3540   -1.4770 C.3    74  LEU74       0.1728
     91  C         12.4500  -15.5950   -0.5800 C.2    74  LEU74       0.2616
     92  O         13.6640  -15.7560   -0.7050 O.2    74  LEU74      -0.2715
     93  CB        11.3900  -17.7840   -0.9250 C.3    74  LEU74       0.0311
     94  CG        10.5360  -18.9060   -1.4790 C.3    74  LEU74       0.0022
     95  CD1       10.8490  -19.1950   -2.9210 C.3    74  LEU74       0.0001
     96  CD2       10.8540  -20.1180   -0.6320 C.3    74  LEU74       0.0001
     97  N         11.9020  -14.8220    0.3550 N.am   75  MET75      -0.1977
     98  CA        12.7060  -14.0080    1.2440 C.3    75  MET75       0.1605
     99  C         12.7140  -14.6170    2.6470 C.2    75  MET75       0.2287
    100  O         11.6980  -15.1340    3.1030 O.2    75  MET75      -0.2864
    101  CB        12.1710  -12.5720    1.2650 C.3    75  MET75       0.0413
    102  CG        12.1620  -11.9200   -0.1170 C.3    75  MET75       0.0598
    103  SD        11.0010  -10.5440   -0.2260 S.3    75  MET75      -0.1393
    104  CE        11.6790   -9.4390    0.9790 C.3    75  MET75       0.0692
    105  N         12.4580  -14.9590    6.5590 N.3    77  GLY77      -0.1225
    106  CA        11.6040  -14.2380    7.4760 C.3    77  GLY77       0.1811
    107  C         12.3410  -13.8920    8.7500 C.2    77  GLY77       0.2280
    108  O         11.8070  -13.2030    9.6140 O.2    77  GLY77      -0.2866
    109  N         17.6410  -14.4170    0.0850 N.3    84  CYS84      -0.1235
    110  CA        16.5810  -14.8540   -0.8180 C.3    84  CYS84       0.1677
    111  C         17.0050  -16.1640   -1.4920 C.2    84  CYS84       0.2270
    112  O         18.2060  -16.4400   -1.6250 O.2    84  CYS84      -0.2867
    113  CB        16.2880  -13.7950   -1.8910 C.3    84  CYS84       0.0956
    114  SG        15.7260  -12.2150   -1.2120 S.3    84  CYS84      -0.0801
    115  N          7.7970  -23.7940    1.7140 N.3   102  ALA102     -0.1231
    116  CA         8.5000  -22.6830    2.3240 C.3   102  ALA102      0.1694
    117  C          7.7100  -21.3900    2.1540 C.2   102  ALA102      0.2591
    118  O          7.7040  -20.5450    3.0400 O.2   102  ALA102     -0.2718
    119  CB         9.8870  -22.5500    1.7320 C.3   102  ALA102      0.0304
    120  N          7.0740  -21.2100    0.9950 N.am  103  ILE103     -0.1980
    121  CA         6.2820  -19.9940    0.7500 C.3   103  ILE103      0.1595
    122  C          5.0900  -19.9450    1.7140 C.2   103  ILE103      0.2287
    123  O          4.6980  -18.8880    2.2200 O.2   103  ILE103     -0.2864
    124  CB         5.8050  -19.9550   -0.7290 C.3   103  ILE103      0.0276
    125  CG1        7.0070  -19.6590   -1.6380 C.3   103  ILE103      0.0022
    126  CG2        4.7000  -18.9170   -0.9140 C.3   103  ILE103      0.0022
    127  CD1        6.7930  -19.9270   -3.1400 C.3   103  ILE103      0.0001
    128  N          4.9720  -21.4460    4.7180 N.3   105  GLU105     -0.1231
    129  CA         5.4870  -21.2840    6.0790 C.3   105  GLU105      0.1699
    130  C          5.5590  -19.8300    6.4910 C.2   105  GLU105      0.2592
    131  O          6.1190  -19.0020    5.7700 O.2   105  GLU105     -0.2718
    132  CB         6.8930  -21.8720    6.1970 C.3   105  GLU105      0.0402
    133  CG         6.9750  -23.2670    6.7400 C.3   105  GLU105      0.1161
    134  CD         8.3890  -23.6160    7.1210 C.2   105  GLU105      0.3649
    135  OE1        8.8380  -23.2210    8.2250 O.co2 105  GLU105     -0.2457
    136  OE2        9.0570  -24.2580    6.2870 O.co2 105  GLU105     -0.2457
    137  N          5.0120  -19.5020    7.6560 N.am  106  ASP106     -0.1974
    138  CA         5.0150  -18.1060    8.0800 C.3   106  ASP106      0.1709
    139  C          5.1660  -18.0210    9.5930 C.2   106  ASP106      0.2293
    140  O          4.2700  -18.4370   10.3290 O.2   106  ASP106     -0.2864
    141  CB         3.7270  -17.4100    7.6030 C.3   106  ASP106      0.1436
    142  CG         3.6210  -15.9570    8.0610 C.2   106  ASP106      0.3671
    143  OD1        4.6540  -15.3310    8.3810 O.co2 106  ASP106     -0.2456
    144  OD2        2.4790  -15.4470    8.1020 O.co2 106  ASP106     -0.2456
    145  N          9.1630  -17.8920    7.8030 N.3   108  TRP108     -0.1241
    146  CA        10.0530  -18.8970    7.2510 C.3   108  TRP108      0.1605
    147  C         11.4850  -18.5160    7.5300 C.2   108  TRP108      0.2264
    148  O         11.9100  -17.4420    7.1040 O.2   108  TRP108     -0.2867
    149  CB         9.8590  -19.0140    5.7420 C.3   108  TRP108      0.0550
    150  CG        10.7880  -19.9860    5.0690 C.ar  108  TRP108      0.0003
    151  CD1       10.7990  -21.3400    5.2190 C.ar  108  TRP108      0.0946
    152  CD2       11.8160  -19.6830    4.1110 C.ar  108  TRP108      0.0152
    153  NE1       11.7660  -21.9070    4.4160 N.ar  108  TRP108     -0.2442
    154  CE2       12.4100  -20.9060    3.7310 C.ar  108  TRP108      0.0810
    155  CE3       12.2810  -18.4950    3.5310 C.ar  108  TRP108      0.0012
    156  CZ2       13.4530  -20.9840    2.8100 C.ar  108  TRP108      0.0191
    157  CZ3       13.3370  -18.5680    2.6120 C.ar  108  TRP108      0.0001
    158  CH2       13.8990  -19.8070    2.2450 C.ar  108  TRP108      0.0015
@<TRIPOS>BOND
     1    69    68    1
     2    67    68    2
     3    67    66    1
     4    68    70    1
     5    66    65    1
     6    65    64    1
     7    64    61    1
     8    61    60    1
     9    61    62    1
    10    60    58   am
    11    55    54    1
    12    59    58    2
    13    58    57    1
    14    56    57    1
    15    62    63    2
    16    62    71   am
    17    54    52   ar
    18    54    53   ar
    19    52    50   ar
    20    71    72    1
    21    53    51   ar
    22    50    49   ar
    23    75    72    1
    24    75    76    1
    25    72    73    1
    26    51    49   ar
    27    77    76    1
    28    77    78    1
    29    49    48    1
    30    74    73    2
    31    80    79    1
    32    73    82   am
    33    48    45    1
    34    78    79    2
    35    79    81    1
    36    82    83    1
    37    41    40    2
    38    87    86    1
    39    45    44    1
    40    45    46    1
    41    42    43    1
    42    42    39    1
    43    40    44   am
    44    40    39    1
    45     7     6   ar
    46    46    47    2
    47    83    86    1
    48    83    84    1
    49    39    38    1
    50    86    88    1
    51     8     6   ar
    52     6     5    1
    53    84    85    2
    54    84    89   am
    55    38    31   am
    56     5     2    1
    57   127   125    1
    58     2     1    1
    59     2     3    1
    60    95    94    1
    61    89    90    1
    62    31    32    2
    63    31    30    1
    64     3     4    2
    65   113   114    1
    66   113   110    1
    67   125   124    1
    68   112   111    2
    69   111   110    1
    70    94    93    1
    71    94    96    1
    72    90    93    1
    73    90    91    1
    74    30    33    1
    75    30    29    1
    76    16    14   ar
    77    20    19    2
    78    33    34    1
    79   126   124    1
    80   110   109    1
    81   124   121    1
    82    92    91    2
    83    91    97   am
    84    14    15   ar
    85    14    13    1
    86     9    10    1
    87   103   102    1
    88   103   104    1
    89    29    19   am
    90    19    18    1
    91   102   101    1
    92    13    10    1
    93    34    35    1
    94    36    35    2
    95    97    98    1
    96    35    37   am
    97    10    11    1
    98   121   120    1
    99   121   122    1
   100    21    18    1
   101    21    22    1
   102   120   117   am
   103    18    17    1
   104    98   101    1
   105    98    99    1
   106   122   123    2
   107   115   116    1
   108   119   116    1
   109    11    12    2
   110    22    24   ar
   111    22    23   ar
   112   117   116    1
   113   117   118    2
   114   158   157   ar
   115   158   156   ar
   116    24    26   ar
   117   157   155   ar
   118    99   100    2
   119    23    25   ar
   120   156   154   ar
   121   155   152   ar
   122   154   152   ar
   123   154   153   ar
   124    26    27   ar
   125    25    27   ar
   126   152   150   ar
   127   153   151   ar
   128    27    28    1
   129   128   129    1
   130   150   151   ar
   131   150   149    1
   132   149   146    1
   133   131   130    2
   134   129   132    1
   135   129   130    1
   136   132   133    1
   137   136   134   ar
   138   130   137   am
   139   105   106    1
   140   133   134    1
   141   148   147    2
   142   134   135   ar
   143   146   147    1
   144   146   145    1
   145   106   107    1
   146   141   142    1
   147   141   138    1
   148   137   138    1
   149   142   144   ar
   150   142   143   ar
   151   138   139    1
   152   107   108    2
   153   139   140    2
