@<TRIPOS>MOLECULE
tmp/4qbyY00.pdb
 106 100 0 0 0
SMALL
GASTEIGER

@<TRIPOS>ATOM
      1  N         56.8310 -151.9530    7.9520 N.3     1  THR1       -0.1218
      2  CA        57.0960 -153.0470    6.9660 C.3     1  THR1        0.1862
      3  C         56.4150 -152.7650    5.6310 C.2     1  THR1        0.2287
      4  O         55.2400 -152.4110    5.5860 O.2     1  THR1       -0.2866
      5  CB        56.5900 -154.4020    7.4790 C.3     1  THR1        0.1770
      6  OG1       57.4120 -154.7940    8.5780 O.3     1  THR1       -0.2211
      7  CG2       56.6800 -155.5050    6.4100 C.3     1  THR1        0.0375
      8  N         63.2360 -153.6900    8.0320 N.3    19  ARG19      -0.1231
      9  CA        63.1310 -153.0660    9.3510 C.3    19  ARG19       0.1694
     10  C         62.1530 -153.8050   10.2610 C.2    19  ARG19       0.2592
     11  O         61.1490 -154.3470    9.8020 O.2    19  ARG19      -0.2718
     12  CB        62.6850 -151.6090    9.2060 C.3    19  ARG19       0.0321
     13  CG        62.6100 -150.8490   10.5210 C.3    19  ARG19       0.0489
     14  CD        62.4840 -149.3550   10.2890 C.3    19  ARG19       0.2205
     15  NE        63.7290 -148.7780    9.7910 N.pl3  19  ARG19      -0.0865
     16  CZ        63.9200 -147.4850    9.5450 C.cat  19  ARG19       0.5346
     17  NH1       62.9450 -146.6040    9.7500 N.pl3  19  ARG19       0.1354
     18  NH2       65.0970 -147.0690    9.0900 N.pl3  19  ARG19       0.1354
     19  N         62.4530 -153.8220   11.5550 N.am   20  ALA20      -0.1966
     20  CA        61.5020 -154.2920   12.5550 C.3    20  ALA20       0.1728
     21  C         61.5010 -153.3360   13.7320 C.2    20  ALA20       0.2617
     22  O         62.5600 -152.9740   14.2440 O.2    20  ALA20      -0.2715
     23  CB        61.8400 -155.6990   13.0130 C.3    20  ALA20       0.0334
     24  N         60.3060 -152.9290   14.1490 N.am   21  THR21      -0.1937
     25  CA        60.1510 -151.9630   15.2250 C.3    21  THR21       0.2028
     26  C         59.3790 -152.5580   16.3940 C.2    21  THR21       0.2642
     27  O         58.6020 -153.5000   16.2260 O.2    21  THR21      -0.2714
     28  CB        59.4230 -150.6960   14.7360 C.3    21  THR21       0.1808
     29  OG1       58.0880 -151.0270   14.3410 O.3    21  THR21      -0.2208
     30  CG2       60.1550 -150.0810   13.5540 C.3    21  THR21       0.0379
     31  N         59.6240 -152.0120   17.5790 N.am   22  ALA22      -0.1963
     32  CA        58.8250 -152.3040   18.7610 C.3    22  ALA22       0.1728
     33  C         58.3150 -150.9610   19.2690 C.2    22  ALA22       0.2616
     34  O         58.9300 -150.3270   20.1290 O.2    22  ALA22      -0.2715
     35  CB        59.6550 -153.0210   19.8140 C.3    22  ALA22       0.0334
     36  N         57.1910 -150.5300   18.7030 N.am   23  GLY23      -0.1955
     37  CA        56.6960 -149.1720   18.8940 C.3    23  GLY23       0.1869
     38  C         57.4680 -148.2330   17.9860 C.2    23  GLY23       0.2309
     39  O         57.4080 -148.3630   16.7620 O.2    23  GLY23      -0.2863
     40  N         64.0750 -152.0880   16.2040 N.3    27  ALA27      -0.1245
     41  CA        64.5980 -153.3070   16.8180 C.3    27  ALA27       0.1562
     42  C         65.7000 -153.9340   15.9810 C.2    27  ALA27       0.2260
     43  O         66.7070 -154.4000   16.5140 O.2    27  ALA27      -0.2867
     44  CB        63.4740 -154.3080   17.0320 C.3    27  ALA27       0.0290
     45  N         62.6760 -160.8730    5.6540 N.3    33  LYS33      -0.1245
     46  CA        61.2140 -160.8570    5.5170 C.3    33  LYS33       0.1561
     47  C         60.6720 -161.7400    4.3930 C.2    33  LYS33       0.2260
     48  O         59.4560 -161.8530    4.2300 O.2    33  LYS33      -0.2867
     49  CB        60.7110 -159.4240    5.3530 C.3    33  LYS33       0.0271
     50  CG        60.8160 -158.6360    6.6390 C.3    33  LYS33       0.0035
     51  CD        60.3610 -157.2060    6.4660 C.3    33  LYS33       0.0206
     52  CE        60.3240 -156.5110    7.8110 C.3    33  LYS33       0.1093
     53  NZ        60.1050 -155.0560    7.6360 N.3    33  LYS33      -0.1314
     54  N         56.8470 -161.8170    4.9910 N.3    45  MET45      -0.1182
     55  CA        56.5100 -161.5210    6.3910 C.3    45  MET45       0.1917
     56  C         55.9500 -160.1060    6.5570 C.2    45  MET45       0.2634
     57  O         56.5290 -159.1400    6.0630 O.2    45  MET45      -0.2714
     58  CB        57.7460 -161.7260    7.2910 C.2    45  MET45       0.0083
     59  CG        57.9260 -160.7180    8.4270 C.2    45  MET45       0.0282
     60  SD        59.4020 -160.9500    9.4480 S.3    45  MET45      -0.1125
     61  CE        59.4350 -162.7240    9.6880 C.3    45  MET45       0.0742
     62  N         54.8210 -160.0000    7.2540 N.am   46  ALA46      -0.1963
     63  CA        54.2700 -158.7080    7.6750 C.3    46  ALA46       0.1728
     64  C         53.3080 -158.9090    8.8460 C.2    46  ALA46       0.2617
     65  O         52.5430 -159.8730    8.8650 O.2    46  ALA46      -0.2715
     66  CB        53.5720 -158.0130    6.5200 C.3    46  ALA46       0.0334
     67  N         53.3510 -157.9940    9.8140 N.am   47  GLY47      -0.1940
     68  CA        52.6100 -158.1450   11.0690 C.3    47  GLY47       0.2014
     69  C         53.5410 -158.6030   12.1760 C.2    47  GLY47       0.2639
     70  O         54.5500 -157.9510   12.4550 O.2    47  GLY47      -0.2714
     71  N         53.2100 -159.7280   12.8060 N.am   48  GLY48      -0.1939
     72  CA        54.0720 -160.3210   13.8240 C.3    48  GLY48       0.2014
     73  C         55.3180 -160.9120   13.1920 C.2    48  GLY48       0.2639
     74  O         55.2260 -161.6840   12.2340 O.2    48  GLY48      -0.2714
     75  N         56.4870 -160.5390   13.7070 N.am   49  ALA49      -0.1963
     76  CA        57.7400 -161.1240   13.2360 C.3    49  ALA49       0.1728
     77  C         57.7210 -162.6170   13.5200 C.2    49  ALA49       0.2616
     78  O         57.8970 -163.4310   12.6160 O.2    49  ALA49      -0.2715
     79  CB        58.9330 -160.4720   13.9170 C.3    49  ALA49       0.0334
     80  N         57.4770 -162.9580   14.7820 N.am   50  ALA50      -0.1977
     81  CA        57.4260 -164.3480   15.2310 C.3    50  ALA50       0.1597
     82  C         56.3200 -165.1330   14.5450 C.2    50  ALA50       0.2287
     83  O         56.5110 -166.2820   14.1550 O.2    50  ALA50      -0.2864
     84  CB        57.2230 -164.3960   16.7360 C.3    50  ALA50       0.0319
     85  N         51.6110 -154.3180    4.4180 N.3   130  GLY130     -0.1210
     86  CA        52.2860 -153.7730    5.5940 C.3   130  GLY130      0.1956
     87  C         52.0760 -152.2770    5.7390 C.2   130  GLY130      0.2612
     88  O         51.4000 -151.6540    4.9220 O.2   130  GLY130     -0.2717
     89  N         52.6720 -151.7020    6.7810 N.am  131  SER131     -0.1952
     90  CA        52.5170 -150.2770    7.0890 C.3   131  SER131      0.1924
     91  C         52.9460 -149.3360    5.9580 C.2   131  SER131      0.2314
     92  O         52.4980 -148.1930    5.9080 O.2   131  SER131     -0.2863
     93  CB        53.2890 -149.9260    8.3620 C.3   131  SER131      0.2116
     94  OG        54.6590 -150.2530    8.2310 O.3   131  SER131     -0.2180
     95  N         58.1100 -146.8220    9.6250 N.3   170  TYR170     -0.1241
     96  CA        58.2600 -148.1980   10.0950 C.3   170  TYR170      0.1605
     97  C         58.8170 -149.1600    9.0380 C.2   170  TYR170      0.2264
     98  O         58.9860 -150.3500    9.3120 O.2   170  TYR170     -0.2867
     99  CB        56.9190 -148.7050   10.6400 C.3   170  TYR170      0.0534
    100  CG        56.3890 -147.8610   11.7840 C.ar  170  TYR170     -0.0201
    101  CD1       57.1940 -147.5590   12.8780 C.ar  170  TYR170     -0.0009
    102  CD2       55.0900 -147.3650   11.7740 C.ar  170  TYR170     -0.0009
    103  CE1       56.7270 -146.7890   13.9240 C.ar  170  TYR170      0.0417
    104  CE2       54.6120 -146.5930   12.8210 C.ar  170  TYR170      0.0417
    105  CZ        55.4370 -146.3090   13.8930 C.ar  170  TYR170      0.1957
    106  OH        54.9790 -145.5440   14.9410 O.3   170  TYR170     -0.2866
@<TRIPOS>BOND
     1    48    47    2
     2    47    46    1
     3    85    86    1
     4    88    87    2
     5    54    55    1
     6    49    46    1
     7    49    50    1
     8    46    45    1
     9     4     3    2
    10    86    87    1
    11     3     2    1
    12    87    89   am
    13    92    91    2
    14    91    90    1
    15    57    56    2
    16    55    56    1
    17    55    58    1
    18     7     5    1
    19    51    50    1
    20    51    52    1
    21    66    63    1
    22    56    62   am
    23    89    90    1
    24     2     5    1
    25     2     1    1
    26    90    93    1
    27    62    63    1
    28    58    59    2
    29     5     6    1
    30    53    52    1
    31    63    64    1
    32     8     9    1
    33    94    93    1
    34    59    60    1
    35    64    65    2
    36    64    67   am
    37    97    98    2
    38    97    96    1
    39    18    16    1
    40    12     9    1
    41    12    13    1
    42     9    10    1
    43    60    61    1
    44    16    17    1
    45    16    15    2
    46    95    96    1
    47    15    14    1
    48    11    10    2
    49    67    68    1
    50    96    99    1
    51    10    19   am
    52    14    13    1
    53    99   100    1
    54    68    69    1
    55    19    20    1
    56   102   100   ar
    57   102   104   ar
    58   100   101   ar
    59    69    70    2
    60    69    71   am
    61    74    73    2
    62    20    23    1
    63    20    21    1
    64    78    77    2
    65    71    72    1
    66   104   105   ar
    67   101   103   ar
    68    73    75   am
    69    73    72    1
    70    76    77    1
    71    76    75    1
    72    76    79    1
    73    77    80   am
    74    30    28    1
    75    21    24   am
    76    21    22    2
    77   105   103   ar
    78   105   106    1
    79    24    25    1
    80    83    82    2
    81    29    28    1
    82    82    81    1
    83    28    25    1
    84    80    81    1
    85    25    26    1
    86    81    84    1
    87    42    43    2
    88    42    41    1
    89    40    41    1
    90    27    26    2
    91    26    31   am
    92    39    38    2
    93    41    44    1
    94    31    32    1
    95    38    37    1
    96    36    37    1
    97    36    33   am
    98    32    33    1
    99    32    35    1
   100    33    34    2
