@<TRIPOS>MOLECULE
tmp/4qbyH00.pdb
 111 102 0 0 0
SMALL
GASTEIGER

@<TRIPOS>ATOM
      1  N         64.6520 -139.3550   45.0160 N.3     1  THR1       -0.1218
      2  CA        65.2610 -138.2700   45.8440 C.3     1  THR1        0.1862
      3  C         65.3020 -138.7010   47.3070 C.2     1  THR1        0.2287
      4  O         64.3360 -139.2600   47.8230 O.2     1  THR1       -0.2866
      5  CB        64.4640 -136.9560   45.7480 C.3     1  THR1        0.1770
      6  OG1       64.6360 -136.3730   44.4440 O.3     1  THR1       -0.2211
      7  CG2       64.9300 -135.9300   46.7980 C.3     1  THR1        0.0375
      8  N         70.4740 -136.5990   42.2470 N.3    19  ARG19      -0.1231
      9  CA        69.9580 -137.2850   41.0580 C.3    19  ARG19       0.1694
     10  C         68.5010 -136.9010   40.7920 C.2    19  ARG19       0.2593
     11  O         67.6620 -137.0060   41.6860 O.2    19  ARG19      -0.2718
     12  CB        70.0780 -138.8060   41.2450 C.3    19  ARG19       0.0321
     13  CG        69.3490 -139.6510   40.2060 C.3    19  ARG19       0.0489
     14  CD        69.3170 -141.1220   40.5920 C.3    19  ARG19       0.2205
     15  NE        70.5930 -141.7940   40.3510 N.pl3  19  ARG19      -0.0865
     16  CZ        70.7730 -143.1140   40.3670 C.cat  19  ARG19       0.5346
     17  NH1       69.7600 -143.9410   40.6150 N.pl3  19  ARG19       0.1354
     18  NH2       71.9790 -143.6180   40.1300 N.pl3  19  ARG19       0.1354
     19  N         68.2030 -136.4520   39.5730 N.am   20  SER20      -0.1938
     20  CA        66.8130 -136.2980   39.1310 C.3    20  SER20       0.2055
     21  C         66.5600 -137.2490   37.9690 C.2    20  SER20       0.2644
     22  O         67.4360 -137.4620   37.1280 O.2    20  SER20      -0.2714
     23  CB        66.4840 -134.8540   38.7370 C.3    20  SER20       0.2130
     24  OG        67.0440 -134.5070   37.4830 O.3    20  SER20      -0.2179
     25  N         65.3600 -137.8140   37.9260 N.am   21  THR21      -0.1936
     26  CA        65.0620 -138.9030   37.0100 C.3    21  THR21       0.2028
     27  C         63.7780 -138.6840   36.2390 C.2    21  THR21       0.2642
     28  O         62.8370 -138.0670   36.7370 O.2    21  THR21      -0.2714
     29  CB        64.9240 -140.2300   37.7720 C.3    21  THR21       0.1808
     30  OG1       64.0280 -140.0560   38.8790 O.3    21  THR21      -0.2208
     31  CG2       66.2780 -140.6870   38.2800 C.3    21  THR21       0.0379
     32  N         63.7520 -139.2040   35.0170 N.am   22  GLN22      -0.1976
     33  CA        62.5370 -139.2540   34.2230 C.3    22  GLN22       0.1601
     34  C         62.2420 -140.7200   33.9200 C.2    22  GLN22       0.2287
     35  O         62.8120 -141.3160   32.9970 O.2    22  GLN22      -0.2864
     36  CB        62.6860 -138.4090   32.9570 C.3    22  GLN22       0.0394
     37  CG        61.4680 -137.5380   32.6790 C.3    22  GLN22       0.0908
     38  CD        61.8120 -136.1500   32.1640 C.2    22  GLN22       0.2608
     39  OE1       62.9750 -135.8250   31.9120 O.2    22  GLN22      -0.2717
     40  NE2       60.7910 -135.3180   32.0150 N.am   22  GLN22      -0.0878
     41  N         68.0930 -137.9930   34.4420 N.3    27  ALA27      -0.1245
     42  CA        68.1240 -136.7300   33.7100 C.3    27  ALA27       0.1562
     43  C         69.3480 -135.9000   34.1030 C.2    27  ALA27       0.2260
     44  O         70.1760 -135.5680   33.2540 O.2    27  ALA27      -0.2867
     45  CB        66.8420 -135.9460   33.9550 C.3    27  ALA27       0.0290
     46  N         71.7880 -132.4000   40.3500 N.3    31  CYS31      -0.1235
     47  CA        70.6580 -131.5250   40.6240 C.3    31  CYS31       0.1677
     48  C         70.7510 -131.0820   42.0770 C.2    31  CYS31       0.2270
     49  O         70.6450 -131.9090   42.9800 O.2    31  CYS31      -0.2867
     50  CB        69.3480 -132.2870   40.3900 C.3    31  CYS31       0.0956
     51  SG        67.8500 -131.2790   40.3300 S.3    31  CYS31      -0.0801
     52  N         69.1790 -129.9430   45.1670 N.3    33  LYS33      -0.1245
     53  CA        67.8040 -129.9650   45.6690 C.3    33  LYS33       0.1561
     54  C         67.6570 -129.1550   46.9610 C.2    33  LYS33       0.2260
     55  O         66.5750 -129.0990   47.5500 O.2    33  LYS33      -0.2867
     56  CB        67.3340 -131.4110   45.8480 C.3    33  LYS33       0.0271
     57  CG        67.6780 -132.2860   44.6490 C.3    33  LYS33       0.0035
     58  CD        67.0520 -133.6650   44.7260 C.3    33  LYS33       0.0206
     59  CE        67.8170 -134.6590   43.8640 C.3    33  LYS33       0.1093
     60  NZ        67.3040 -136.0410   44.0480 N.3    33  LYS33      -0.1314
     61  N         63.7600 -130.1220   48.7710 N.3    45  GLY45      -0.1210
     62  CA        62.5220 -130.5060   48.1040 C.3    45  GLY45       0.1956
     63  C         62.5870 -131.7950   47.3110 C.2    45  GLY45       0.2612
     64  O         63.5640 -132.0590   46.6070 O.2    45  GLY45      -0.2717
     65  N         61.5280 -132.5930   47.4420 N.am   46  ALA46      -0.1965
     66  CA        61.3080 -133.7820   46.6270 C.3    46  ALA46       0.1728
     67  C         59.9570 -133.6710   45.9260 C.2    46  ALA46       0.2617
     68  O         59.1610 -132.7850   46.2440 O.2    46  ALA46      -0.2715
     69  CB        61.3590 -135.0340   47.4850 C.3    46  ALA46       0.0334
     70  N         59.7020 -134.5730   44.9800 N.am   47  GLY47      -0.1940
     71  CA        58.4730 -134.5450   44.1820 C.3    47  GLY47       0.2014
     72  C         58.7620 -134.1260   42.7520 C.2    47  GLY47       0.2640
     73  O         59.7820 -134.5170   42.1830 O.2    47  GLY47      -0.2714
     74  N         57.8640 -133.3350   42.1680 N.am   48  THR48      -0.1936
     75  CA        58.0780 -132.7760   40.8350 C.3    48  THR48       0.2028
     76  C         59.1170 -131.6620   40.9320 C.2    48  THR48       0.2642
     77  O         58.8670 -130.6210   41.5410 O.2    48  THR48      -0.2714
     78  CB        56.7770 -132.2110   40.2410 C.3    48  THR48       0.1808
     79  OG1       55.7580 -133.2170   40.2740 O.3    48  THR48      -0.2208
     80  CG2       56.9850 -131.7450   38.8000 C.3    48  THR48       0.0379
     81  N         60.2780 -131.8950   40.3230 N.am   49  ALA49      -0.1963
     82  CA        61.4400 -131.0100   40.4610 C.3    49  ALA49       0.1728
     83  C         61.1760 -129.5460   40.0900 C.2    49  ALA49       0.2616
     84  O         61.7060 -128.6380   40.7330 O.2    49  ALA49      -0.2715
     85  CB        62.6050 -131.5540   39.6470 C.3    49  ALA49       0.0334
     86  N         60.3720 -129.3140   39.0580 N.am   50  ALA50      -0.1977
     87  CA        59.9980 -127.9470   38.6960 C.3    50  ALA50       0.1597
     88  C         59.1380 -127.2970   39.7770 C.2    50  ALA50       0.2287
     89  O         59.2980 -126.1100   40.0590 O.2    50  ALA50      -0.2864
     90  CB        59.2600 -127.9260   37.3750 C.3    50  ALA50       0.0319
     91  N         59.1230 -127.9530   43.0430 N.3    52  THR52      -0.1218
     92  CA        59.9420 -127.6280   44.2040 C.3    52  THR52       0.1862
     93  C         60.7570 -126.3580   43.9850 C.2    52  THR52       0.2287
     94  O         60.8910 -125.5730   44.9120 O.2    52  THR52      -0.2866
     95  CB        60.8620 -128.7910   44.6290 C.3    52  THR52       0.1770
     96  OG1       61.6020 -129.2750   43.5010 O.3    52  THR52      -0.2211
     97  CG2       60.0340 -129.9210   45.2200 C.3    52  THR52       0.0375
     98  N         60.8950 -138.1660   50.2740 N.3   128  GLY128     -0.1210
     99  CA        61.3000 -138.5990   48.9410 C.3   128  GLY128      0.1956
    100  C         61.2890 -140.1070   48.8160 C.2   128  GLY128      0.2612
    101  O         60.9010 -140.8020   49.7480 O.2   128  GLY128     -0.2717
    102  N         61.7130 -140.6140   47.6610 N.am  129  SER129     -0.1952
    103  CA        61.7180 -142.0580   47.4050 C.3   129  SER129      0.1924
    104  C         62.7780 -142.7840   48.2330 C.2   129  SER129      0.2314
    105  O         62.6160 -143.9600   48.5610 O.2   129  SER129     -0.2863
    106  CB        61.9320 -142.3450   45.9180 C.3   129  SER129      0.2116
    107  OG        63.2190 -141.9310   45.4920 O.3   129  SER129     -0.2180
    108  N         65.8060 -144.1560   42.9980 N.3   168  GLY168     -0.1225
    109  CA        65.4100 -142.7690   42.7740 C.3   168  GLY168      0.1811
    110  C         66.4910 -141.7670   43.1470 C.2   168  GLY168      0.2280
    111  O         66.4300 -140.6050   42.7400 O.2   168  GLY168     -0.2866
@<TRIPOS>BOND
     1    39    38    2
     2    40    38   am
     3    38    37    1
     4    37    36    1
     5    36    33    1
     6    35    34    2
     7    44    43    2
     8    42    45    1
     9    42    43    1
    10    42    41    1
    11    34    33    1
    12    33    32    1
    13    32    27   am
    14    27    28    2
    15    27    26    1
    16    26    29    1
    17    26    25    1
    18    22    21    2
    19    90    87    1
    20    24    23    1
    21    29    31    1
    22    29    30    1
    23    25    21   am
    24    21    20    1
    25    87    86    1
    26    87    88    1
    27    23    20    1
    28    80    78    1
    29    86    83   am
    30    20    19    1
    31    19    10   am
    32    85    82    1
    33    88    89    2
    34    83    82    1
    35    83    84    2
    36    18    16    1
    37    13    14    1
    38    13    12    1
    39    78    79    1
    40    78    75    1
    41    81    82    1
    42    81    76   am
    43    51    50    1
    44    46    47    1
    45    15    16    2
    46    15    14    1
    47    16    17    1
    48    50    47    1
    49    47    48    1
    50    10     9    1
    51    10    11    2
    52    75    76    1
    53    75    74    1
    54    76    77    2
    55     9    12    1
    56     9     8    1
    57    48    49    2
    58    74    72   am
    59    73    72    2
    60   111   110    2
    61    72    71    1
    62   109   108    1
    63   109   110    1
    64    91    92    1
    65    96    95    1
    66    59    60    1
    67    59    58    1
    68    93    92    1
    69    93    94    2
    70    71    70    1
    71    92    95    1
    72     6     5    1
    73    95    97    1
    74    57    58    1
    75    57    56    1
    76    70    67   am
    77     1     2    1
    78    52    53    1
    79   107   106    1
    80    53    56    1
    81    53    54    1
    82     5     2    1
    83     5     7    1
    84     2     3    1
    85   106   103    1
    86    67    68    2
    87    67    66    1
    88    64    63    2
    89    66    65    1
    90    66    69    1
    91    54    55    2
    92     3     4    2
    93    63    65   am
    94    63    62    1
    95   103   102    1
    96   103   104    1
    97   102   100   am
    98    62    61    1
    99   104   105    2
   100   100    99    1
   101   100   101    2
   102    99    98    1
