@<TRIPOS>MOLECULE
tmp/4qbzA02.pdb
 136 126 0 0 0
SMALL
GASTEIGER

@<TRIPOS>ATOM
      1  N         28.3550   15.5830    7.4080 N.3   382  TYR382     -0.1241
      2  CA        29.4890   14.7710    7.8130 C.3   382  TYR382      0.1605
      3  C         30.6690   14.8820    6.8300 C.2   382  TYR382      0.2264
      4  O         30.6080   14.3780    5.6970 O.2   382  TYR382     -0.2867
      5  CB        29.0510   13.3550    8.0770 C.3   382  TYR382      0.0534
      6  CG        30.1280   12.4860    8.6800 C.ar  382  TYR382     -0.0201
      7  CD1       30.3210   12.4580   10.0380 C.ar  382  TYR382     -0.0009
      8  CD2       30.8920   11.6420    7.8870 C.ar  382  TYR382     -0.0009
      9  CE1       31.2490   11.6130   10.6030 C.ar  382  TYR382      0.0417
     10  CE2       31.8240   10.7730    8.4370 C.ar  382  TYR382      0.0417
     11  CZ        32.0110   10.7920    9.7880 C.ar  382  TYR382      0.1957
     12  OH        32.9540    9.9970   10.3610 O.3   382  TYR382     -0.2866
     13  N         34.1700   14.3660    7.8190 N.3   384  SER384     -0.1217
     14  CA        35.3260   13.7970    8.4790 C.3   384  SER384      0.1889
     15  C         36.2280   13.1150    7.4680 C.2   384  SER384      0.2288
     16  O         35.7480   12.5120    6.4950 O.2   384  SER384     -0.2866
     17  CB        34.8550   12.7740    9.5060 C.3   384  SER384      0.2089
     18  OG        35.8870   12.0770   10.1820 O.3   384  SER384     -0.2183
     19  N         27.7920    2.0730   13.0840 N.3   408  ARG408     -0.1245
     20  CA        27.7130    3.0890   14.1310 C.3   408  ARG408      0.1563
     21  C         27.1690    4.4230   13.6320 C.2   408  ARG408      0.2260
     22  O         27.3020    4.7410   12.4530 O.2   408  ARG408     -0.2867
     23  CB        29.0830    3.3020   14.7850 C.3   408  ARG408      0.0307
     24  CG        30.2820    3.3290   13.8480 C.3   408  ARG408      0.0489
     25  CD        31.5810    3.4540   14.6420 C.3   408  ARG408      0.2205
     26  NE        32.0370    4.8480   14.6870 N.pl3 408  ARG408     -0.0865
     27  CZ        33.0840    5.3750   14.0350 C.cat 408  ARG408      0.5346
     28  NH1       33.9090    4.6310   13.2940 N.pl3 408  ARG408      0.1354
     29  NH2       33.3310    6.6820   14.1430 N.pl3 408  ARG408      0.1354
     30  N         27.0460    8.2260   12.6560 N.3   410  LEU410     -0.1231
     31  CA        28.1160    9.0330   12.1150 C.3   410  LEU410      0.1693
     32  C         28.6360   10.0140   13.1780 C.2   410  LEU410      0.2592
     33  O         29.8390   10.2890   13.2490 O.2   410  LEU410     -0.2718
     34  CB        27.5960    9.8210   10.9320 C.3   410  LEU410      0.0284
     35  CG        27.2390    9.0110    9.6770 C.3   410  LEU410      0.0019
     36  CD1       26.6420    9.9490    8.6420 C.3   410  LEU410      0.0001
     37  CD2       28.4710    8.3440    9.0730 C.3   410  LEU410      0.0001
     38  N         27.6900   10.5800   13.9250 N.am  411  ILE411     -0.1966
     39  CA        27.9480   11.5290   15.0050 C.3   411  ILE411      0.1727
     40  C         27.5960   10.8740   16.3400 C.2   411  ILE411      0.2616
     41  O         26.6390   10.1290   16.4530 O.2   411  ILE411     -0.2715
     42  CB        27.0580   12.7640   14.8380 C.3   411  ILE411      0.0290
     43  CG1       27.0910   13.2340   13.3770 C.3   411  ILE411      0.0022
     44  CG2       27.5130   13.8690   15.7720 C.3   411  ILE411      0.0023
     45  CD1       28.2850   14.0850   12.9940 C.3   411  ILE411      0.0001
     46  N         28.4000   11.1150   17.3590 N.am  412  LYS412     -0.1977
     47  CA        28.1130   10.5830   18.6710 C.3   412  LYS412      0.1596
     48  C         26.6900   11.0570   19.0340 C.2   412  LYS412      0.2287
     49  O         26.3530   12.2110   18.7810 O.2   412  LYS412     -0.2864
     50  CB        29.1890   11.1260   19.6050 C.3   412  LYS412      0.0298
     51  CG        29.4650   10.2500   20.8090 C.3   412  LYS412      0.0038
     52  CD        30.5340   10.8480   21.7110 C.3   412  LYS412      0.0206
     53  CE        30.3640   10.2430   23.1100 C.3   412  LYS412      0.1093
     54  NZ        31.3570   10.6730   24.1180 N.3   412  LYS412     -0.1314
     55  N         26.1080   14.1480   21.1710 N.3   415  CYS415     -0.1235
     56  CA        26.3520   15.4370   20.5170 C.3   415  CYS415      0.1677
     57  C         25.1990   15.7860   19.5690 C.2   415  CYS415      0.2270
     58  O         24.7210   16.9240   19.5190 O.2   415  CYS415     -0.2867
     59  CB        27.6810   15.3530   19.7450 C.3   415  CYS415      0.0956
     60  SG        28.3670   16.8940   19.1320 S.3   415  CYS415     -0.0801
     61  N         30.5250   17.8170   11.3480 N.3   423  ASP423     -0.1239
     62  CA        31.6990   17.0480   11.7260 C.3   423  ASP423      0.1674
     63  C         32.8140   17.3200   10.7390 C.2   423  ASP423      0.2266
     64  O         32.7790   16.8650    9.5790 O.2   423  ASP423     -0.2867
     65  CB        31.3960   15.5660   11.8210 C.3   423  ASP423      0.1410
     66  CG        32.5560   14.7400   12.3130 C.2   423  ASP423      0.3668
     67  OD1       33.7340   15.0990   12.1290 O.co2 423  ASP423     -0.2456
     68  OD2       32.2850   13.6640   12.8750 O.co2 423  ASP423     -0.2456
     69  N         36.0630   16.5780   11.6600 N.3   425  SER425     -0.1202
     70  CA        37.2010   15.9130   12.2500 C.3   425  SER425      0.2020
     71  C         38.1430   15.3900   11.1880 C.2   425  SER425      0.2618
     72  O         37.7350   15.1820   10.0360 O.2   425  SER425     -0.2717
     73  CB        36.6920   14.7900   13.1350 C.3   425  SER425      0.2103
     74  OG        35.9340   13.7940   12.4390 O.3   425  SER425     -0.2182
     75  N         39.3910   15.1380   11.5650 N.am  426  LEU426     -0.1979
     76  CA        40.3610   14.5120   10.6820 C.3   426  LEU426      0.1596
     77  C         40.5150   15.2390    9.3730 C.2   426  LEU426      0.2287
     78  O         40.4240   14.6750    8.2990 O.2   426  LEU426     -0.2864
     79  CB        39.9540   13.0410   10.4960 C.3   426  LEU426      0.0297
     80  CG        39.9810   12.1810   11.7590 C.3   426  LEU426      0.0022
     81  CD1       39.0820   10.9540   11.6400 C.3   426  LEU426      0.0001
     82  CD2       41.3750   11.7580   12.1690 C.3   426  LEU426      0.0001
     83  N         32.3540   19.0790   15.6200 N.3   447  ASN447     -0.1240
     84  CA        33.5180   18.2180   15.8010 C.3   447  ASN447      0.1653
     85  C         34.7090   18.7680   15.0060 C.2   447  ASN447      0.2266
     86  O         34.6700   18.8410   13.7730 O.2   447  ASN447     -0.2867
     87  CB        33.1810   16.7660   15.4390 C.3   447  ASN447      0.1155
     88  CG        34.1920   15.7480   15.9900 C.2   447  ASN447      0.2627
     89  OD1       35.2780   16.1010   16.4600 O.2   447  ASN447     -0.2716
     90  ND2       33.8270   14.4770   15.9120 N.am  447  ASN447     -0.0877
     91  N         37.8940   17.5120   16.1540 N.3   449  SER449     -0.1202
     92  CA        38.9500   16.6090   16.5130 C.3   449  SER449      0.2020
     93  C         39.9510   16.4300   15.3750 C.2   449  SER449      0.2618
     94  O         39.5810   16.4530   14.1900 O.2   449  SER449     -0.2717
     95  CB        38.3310   15.2620   16.8520 C.3   449  SER449      0.2103
     96  OG        39.3170   14.3450   17.2860 O.3   449  SER449     -0.2182
     97  N         41.2040   16.2810   15.7420 N.am  450  ALA450     -0.1979
     98  CA        42.2930   15.8490   14.8840 C.3   450  ALA450      0.1597
     99  C         42.4200   16.7200   13.6530 C.2   450  ALA450      0.2287
    100  O         42.3050   16.2110   12.5620 O.2   450  ALA450     -0.2864
    101  CB        42.1440   14.3880   14.4830 C.3   450  ALA450      0.0319
    102  N         27.7840   21.4460   22.1020 N.3   470  TYR470     -0.1241
    103  CA        28.6830   20.3100   22.2990 C.3   470  TYR470      0.1605
    104  C         29.8340   20.5010   21.3100 C.2   470  TYR470      0.2264
    105  O         29.6120   20.5580   20.0780 O.2   470  TYR470     -0.2867
    106  CB        27.9090   19.0040   22.0580 C.3   470  TYR470      0.0534
    107  CG        28.6160   17.7240   22.4290 C.ar  470  TYR470     -0.0201
    108  CD1       29.9350   17.4660   22.0230 C.ar  470  TYR470     -0.0009
    109  CD2       27.9920   16.7950   23.2270 C.ar  470  TYR470     -0.0009
    110  CE1       30.5950   16.3120   22.3890 C.ar  470  TYR470      0.0417
    111  CE2       28.6100   15.5850   23.5350 C.ar  470  TYR470      0.0417
    112  CZ        29.9190   15.3730   23.1370 C.ar  470  TYR470      0.1957
    113  OH        30.5450   14.2120   23.4890 O.3   470  TYR470     -0.2866
    114  N         33.7330   19.3520   20.2720 N.3   472  ASP472     -0.1239
    115  CA        34.7960   18.3530   20.3600 C.3   472  ASP472      0.1674
    116  C         36.0490   18.9140   19.7060 C.2   472  ASP472      0.2266
    117  O         36.0950   19.1600   18.4960 O.2   472  ASP472     -0.2867
    118  CB        34.3620   17.0420   19.6870 C.3   472  ASP472      0.1410
    119  CG        35.3600   15.9180   19.8690 C.2   472  ASP472      0.3668
    120  OD1       36.5890   16.1750   19.8110 O.co2 472  ASP472     -0.2456
    121  OD2       34.9230   14.7450   19.9530 O.co2 472  ASP472     -0.2456
    122  N         39.1410   17.3940   20.5420 N.3   474  THR474     -0.1203
    123  CA        40.1070   16.3820   20.9190 C.3   474  THR474      0.1994
    124  C         41.2290   16.2170   19.8910 C.2   474  THR474      0.2617
    125  O         41.0690   16.5610   18.7290 O.2   474  THR474     -0.2717
    126  CB        39.4960   15.0080   21.2120 C.3   474  THR474      0.1784
    127  OG1       38.8540   14.5130   20.0490 O.3   474  THR474     -0.2211
    128  CG2       38.4500   15.0760   22.3040 C.3   474  THR474      0.0376
    129  N         42.3970   15.7620   20.3490 N.am  475  ASN475     -0.1974
    130  CA        43.5080   15.3700   19.4630 C.3   475  ASN475      0.1688
    131  C         43.9520   16.4850   18.5420 C.2   475  ASN475      0.2292
    132  O         44.0510   16.2860   17.3430 O.2   475  ASN475     -0.2864
    133  CB        43.1300   14.1580   18.6060 C.3   475  ASN475      0.1181
    134  CG        42.7230   12.9690   19.4720 C.2   475  ASN475      0.2629
    135  OD1       41.5690   12.8580   19.8730 O.2   475  ASN475     -0.2716
    136  ND2       43.6660   12.1210   19.8180 N.am  475  ASN475     -0.0877
@<TRIPOS>BOND
     1     4     3    2
     2    16    15    2
     3     3     2    1
     4     1     2    1
     5    15    14    1
     6     2     5    1
     7    13    14    1
     8     8    10   ar
     9     8     6   ar
    10     5     6    1
    11    78    77    2
    12    10    11   ar
    13    14    17    1
    14    36    35    1
    15     6     7   ar
    16    37    35    1
    17    77    76    1
    18    17    18    1
    19    64    63    2
    20    35    34    1
    21    11    12    1
    22    11     9   ar
    23    72    71    2
    24     7     9   ar
    25    79    76    1
    26    79    80    1
    27    76    75    1
    28    63    62    1
    29    34    31    1
    30    71    75   am
    31    71    70    1
    32    61    62    1
    33    81    80    1
    34    69    70    1
    35    62    65    1
    36    80    82    1
    37    65    66    1
    38    31    30    1
    39    31    32    1
    40    67    66   ar
    41    70    73    1
    42    66    68   ar
    43    74    73    1
    44    22    21    2
    45   100    99    2
    46    45    43    1
    47    19    20    1
    48    32    33    2
    49    32    38   am
    50    28    27    1
    51    43    42    1
    52    21    20    1
    53    99    98    1
    54    86    85    2
    55    24    25    1
    56    24    23    1
    57    38    39    1
    58    27    29    1
    59    27    26    2
    60    20    23    1
    61    94    93    2
    62   101    98    1
    63    25    26    1
    64    42    39    1
    65    42    44    1
    66    98    97    1
    67    39    40    1
    68    85    84    1
    69    93    97   am
    70    93    92    1
    71    87    84    1
    72    87    88    1
    73    83    84    1
    74    90    88   am
    75    88    89    2
    76    91    92    1
    77    40    41    2
    78    40    46   am
    79    92    95    1
    80    95    96    1
    81   132   131    2
    82    46    47    1
    83   117   116    2
    84   131   130    1
    85   133   130    1
    86   133   134    1
    87    47    48    1
    88    47    50    1
    89   125   124    2
    90    49    48    2
    91    60    59    1
    92   130   129    1
    93   134   136   am
    94   134   135    2
    95    58    57    2
    96    57    56    1
    97    50    51    1
    98   118   119    1
    99   118   115    1
   100   116   115    1
   101    59    56    1
   102   120   119   ar
   103   119   121   ar
   104   124   129   am
   105   124   123    1
   106   127   126    1
   107   105   104    2
   108   114   115    1
   109    56    55    1
   110   122   123    1
   111    51    52    1
   112   123   126    1
   113   126   128    1
   114   104   103    1
   115    52    53    1
   116   108   110   ar
   117   108   107   ar
   118   106   103    1
   119   106   107    1
   120   102   103    1
   121   110   112   ar
   122   107   109   ar
   123    53    54    1
   124   112   113    1
   125   112   111   ar
   126   109   111   ar
