@<TRIPOS>MOLECULE
tmp/4qbzA00.pdb
 182 178 0 0 0
SMALL
GASTEIGER

@<TRIPOS>ATOM
      1  N         20.2980  -19.8270    8.7530 N.3   134  TYR134     -0.1241
      2  CA        21.5780  -19.1500    8.4400 C.3   134  TYR134      0.1605
      3  C         22.6420  -20.2010    8.1350 C.2   134  TYR134      0.2264
      4  O         23.0400  -20.9770    9.0090 O.2   134  TYR134     -0.2867
      5  CB        22.1090  -18.3210    9.6170 C.3   134  TYR134      0.0534
      6  CG        21.1270  -17.3360   10.1500 C.ar  134  TYR134     -0.0201
      7  CD1       21.1330  -16.0060    9.7510 C.ar  134  TYR134     -0.0009
      8  CD2       20.1890  -17.7450   11.0820 C.ar  134  TYR134     -0.0009
      9  CE1       20.2030  -15.1080   10.2700 C.ar  134  TYR134      0.0417
     10  CE2       19.2680  -16.8500   11.5990 C.ar  134  TYR134      0.0417
     11  CZ        19.2710  -15.5440   11.1850 C.ar  134  TYR134      0.1957
     12  OH        18.2870  -14.7500   11.7110 O.3   134  TYR134     -0.2866
     13  N         25.0730  -16.4110    2.2930 N.3   167  SER167     -0.1202
     14  CA        26.2000  -15.5690    1.8910 C.3   167  SER167      0.2020
     15  C         27.5580  -16.1330    2.2560 C.2   167  SER167      0.2618
     16  O         27.6680  -16.9420    3.1760 O.2   167  SER167     -0.2717
     17  CB        26.0510  -14.2040    2.5650 C.3   167  SER167      0.2103
     18  OG        24.8580  -13.5600    2.1890 O.3   167  SER167     -0.2182
     19  N         28.5930  -15.7720    1.5090 N.am  168  PHE168     -0.1975
     20  CA        29.9470  -16.2760    1.7330 C.3   168  PHE168      0.1639
     21  C         30.0200  -17.8120    1.7060 C.2   168  PHE168      0.2290
     22  O         30.4960  -18.5130    2.6420 O.2   168  PHE168     -0.2864
     23  CB        30.5620  -15.6580    2.9900 C.3   168  PHE168      0.0560
     24  CG        30.7140  -14.1640    2.8930 C.ar  168  PHE168     -0.0200
     25  CD1       29.7070  -13.3180    3.2750 C.ar  168  PHE168     -0.0042
     26  CD2       31.8910  -13.6160    2.3990 C.ar  168  PHE168     -0.0042
     27  CE1       29.8350  -11.9410    3.1630 C.ar  168  PHE168     -0.0003
     28  CE2       32.0460  -12.2520    2.3060 C.ar  168  PHE168     -0.0003
     29  CZ        31.0010  -11.4100    2.6420 C.ar  168  PHE168     -0.0000
     30  N         13.3300  -12.3360    3.4530 N.3   184  LYS184     -0.1245
     31  CA        14.7130  -11.8740    3.3910 C.3   184  LYS184      0.1561
     32  C         15.6200  -12.9300    2.8040 C.2   184  LYS184      0.2260
     33  O         15.7480  -14.0130    3.3620 O.2   184  LYS184     -0.2867
     34  CB        15.2600  -11.4690    4.7690 C.3   184  LYS184      0.0271
     35  CG        14.3670  -10.4560    5.4510 C.3   184  LYS184      0.0035
     36  CD        14.9830   -9.7780    6.6650 C.3   184  LYS184      0.0206
     37  CE        14.2920   -8.4250    6.7320 C.3   184  LYS184      0.1093
     38  NZ        14.6460   -7.6110    7.9180 N.3   184  LYS184     -0.1314
     39  N         19.5060  -13.5140    1.5430 N.3   186  PHE186     -0.1241
     40  CA        20.8820  -13.0580    1.5140 C.3   186  PHE186      0.1605
     41  C         21.7700  -13.9580    0.6690 C.2   186  PHE186      0.2264
     42  O         22.0510  -15.1060    1.0000 O.2   186  PHE186     -0.2867
     43  CB        21.4820  -12.9890    2.9270 C.3   186  PHE186      0.0534
     44  CG        20.7650  -12.0490    3.8510 C.ar  186  PHE186     -0.0203
     45  CD1       21.2180  -10.7540    4.0630 C.ar  186  PHE186     -0.0042
     46  CD2       19.6640  -12.4850    4.5600 C.ar  186  PHE186     -0.0042
     47  CE1       20.5460   -9.8900    4.9430 C.ar  186  PHE186     -0.0003
     48  CE2       18.9860  -11.6520    5.4300 C.ar  186  PHE186     -0.0003
     49  CZ        19.4240  -10.3390    5.6070 C.ar  186  PHE186     -0.0000
     50  N         24.9530  -12.6870   -0.5540 N.3   188  SER188     -0.1217
     51  CA        26.2070  -11.9500   -0.7180 C.3   188  SER188      0.1889
     52  C         27.3860  -12.8720   -0.9530 C.2   188  SER188      0.2288
     53  O         27.5490  -13.9350   -0.3100 O.2   188  SER188     -0.2866
     54  CB        26.5210  -11.0490    0.4960 C.3   188  SER188      0.2089
     55  OG        27.5450  -10.1230    0.1650 O.3   188  SER188     -0.2183
     56  N         13.6490   -7.9600    1.5510 N.3   208  LEU208     -0.1245
     57  CA        15.0840   -7.7490    1.4280 C.3   208  LEU208      0.1561
     58  C         15.7240   -8.7290    0.4490 C.2   208  LEU208      0.2260
     59  O         15.5340   -9.9280    0.6000 O.2   208  LEU208     -0.2867
     60  CB        15.7730   -7.8910    2.7700 C.3   208  LEU208      0.0270
     61  CG        17.2990   -7.6530    2.7590 C.3   208  LEU208      0.0019
     62  CD1       17.7530   -6.9780    4.0530 C.3   208  LEU208      0.0001
     63  CD2       18.1380   -8.9070    2.5200 C.3   208  LEU208      0.0001
     64  N         19.7890   -9.3980   -0.8950 N.3   210  ASP210     -0.1239
     65  CA        21.1900   -9.0440   -0.8770 C.3   210  ASP210      0.1674
     66  C         21.9770   -9.8260   -1.9170 C.2   210  ASP210      0.2266
     67  O         22.2320  -10.9990   -1.7010 O.2   210  ASP210     -0.2867
     68  CB        21.7590   -9.2880    0.5330 C.3   210  ASP210      0.1410
     69  CG        23.2060   -8.8940    0.6760 C.2   210  ASP210      0.3668
     70  OD1       23.7620   -8.2190   -0.2270 O.co2 210  ASP210     -0.2456
     71  OD2       23.7920   -9.3440    1.6860 O.co2 210  ASP210     -0.2456
     72  N         25.0630   -8.5010   -2.9840 N.3   212  SER212     -0.1217
     73  CA        26.3570   -7.8530   -2.9170 C.3   212  SER212      0.1889
     74  C         27.5150   -8.7830   -3.1720 C.2   212  SER212      0.2288
     75  O         27.4900   -9.9720   -2.8480 O.2   212  SER212     -0.2866
     76  CB        26.5280   -7.1310   -1.5530 C.3   212  SER212      0.2089
     77  OG        26.5620   -8.0390   -0.4510 O.3   212  SER212     -0.2183
     78  N         14.6160   -3.2720    0.8660 N.3   249  TYR249     -0.1227
     79  CA        16.0530   -3.2820    0.9410 C.3   249  TYR249      0.1736
     80  C         16.6510   -4.0340   -0.2570 C.2   249  TYR249      0.2595
     81  O         16.3600   -5.2130   -0.4590 O.2   249  TYR249     -0.2718
     82  CB        16.5260   -3.9360    2.2550 C.3   249  TYR249      0.0548
     83  CG        15.9890   -3.2190    3.4910 C.ar  249  TYR249     -0.0200
     84  CD1       14.7240   -3.5280    4.0080 C.ar  249  TYR249     -0.0009
     85  CD2       16.7590   -2.2900    4.1630 C.ar  249  TYR249     -0.0009
     86  CE1       14.2330   -2.8850    5.1350 C.ar  249  TYR249      0.0417
     87  CE2       16.2640   -1.6160    5.2700 C.ar  249  TYR249      0.0417
     88  CZ        15.0010   -1.9230    5.7330 C.ar  249  TYR249      0.1957
     89  OH        14.5090   -1.2730    6.8250 O.3   249  TYR249     -0.2866
     90  N         17.5280   -3.3520   -0.9990 N.am  250  LEU250     -0.1966
     91  CA        18.2830   -3.9410   -2.0860 C.3   250  LEU250      0.1728
     92  C         19.7840   -3.6350   -1.9600 C.2   250  LEU250      0.2616
     93  O         20.1890   -2.4730   -1.9260 O.2   250  LEU250     -0.2715
     94  CB        17.7190   -3.4090   -3.4190 C.3   250  LEU250      0.0311
     95  CG        18.4660   -3.8680   -4.6930 C.3   250  LEU250      0.0022
     96  CD1       18.3650   -5.3570   -4.8440 C.3   250  LEU250      0.0001
     97  CD2       17.9090   -3.2120   -5.9410 C.3   250  LEU250      0.0001
     98  N         20.6130   -4.6730   -1.8400 N.am  251  ASN251     -0.1972
     99  CA        22.0240   -4.4810   -1.6210 C.3   251  ASN251      0.1688
    100  C         22.7360   -4.9850   -2.8670 C.2   251  ASN251      0.2292
    101  O         22.8460   -6.1870   -3.0590 O.2   251  ASN251     -0.2864
    102  CB        22.5360   -5.2310   -0.3740 C.3   251  ASN251      0.1181
    103  CG        23.9300   -4.7640    0.0930 C.2   251  ASN251      0.2629
    104  OD1       24.6650   -4.1740   -0.6820 O.2   251  ASN251     -0.2716
    105  ND2       24.2940   -5.0030    1.3790 N.am  251  ASN251     -0.0877
    106  N         15.7570    1.4180    0.9960 N.3   273  VAL273     -0.1245
    107  CA        17.2100    1.4140    1.1820 C.3   273  VAL273      0.1561
    108  C         17.8920    0.7290    0.0060 C.2   273  VAL273      0.2260
    109  O         17.6340   -0.4500   -0.2570 O.2   273  VAL273     -0.2867
    110  CB        17.5960    0.6260    2.4590 C.3   273  VAL273      0.0252
    111  CG1       19.1070    0.5890    2.6580 C.3   273  VAL273      0.0019
    112  CG2       16.9310    1.2340    3.6900 C.3   273  VAL273      0.0019
    113  N         21.7370    0.0180   -1.4630 N.3   275  ASP275     -0.1239
    114  CA        23.1820    0.0320   -1.3090 C.3   275  ASP275      0.1674
    115  C         23.8450   -0.2200   -2.6670 C.2   275  ASP275      0.2266
    116  O         23.7280   -1.3260   -3.2050 O.2   275  ASP275     -0.2867
    117  CB        23.6170   -1.1080   -0.3940 C.3   275  ASP275      0.1410
    118  CG        24.0450   -0.6920    0.9740 C.2   275  ASP275      0.3668
    119  OD1       25.1100   -1.1610    1.4750 O.co2 275  ASP275     -0.2456
    120  OD2       23.2040   -0.0200    1.5700 O.co2 275  ASP275     -0.2456
    121  N         32.7600   -9.7830   11.2910 N.3   398  ASP398     -0.1225
    122  CA        31.6770  -10.2570   12.1590 C.3   398  ASP398      0.1790
    123  C         30.5870  -10.7540   11.2100 C.2   398  ASP398      0.2440
    124  O         30.0230   -9.9720   10.4620 O.2   398  ASP398     -0.2733
    125  CB        31.2070   -9.1120   13.0810 C.3   398  ASP398      0.1423
    126  CG        30.0580   -9.5190   13.9840 C.2   398  ASP398      0.3668
    127  OD1       29.4680  -10.5920   13.8190 O.co2 398  ASP398     -0.2456
    128  OD2       29.6720   -8.7130   14.8490 O.co2 398  ASP398     -0.2456
    129  N         30.2720  -12.0630   11.2060 N.am  399  PRO399     -0.2718
    130  CA        29.2390  -12.4990   10.2580 C.3   399  PRO399      0.1535
    131  C         27.8530  -11.9950   10.5860 C.2   399  PRO399      0.2599
    132  O         26.9310  -12.2410    9.8240 O.2   399  PRO399     -0.2715
    133  CB        29.2410  -14.0160   10.3820 C.3   399  PRO399      0.0310
    134  CG        29.8080  -14.2810   11.7240 C.3   399  PRO399      0.0237
    135  CD        30.7520  -13.1640   12.0500 C.3   399  PRO399      0.0939
    136  N         27.6880  -11.3050   11.7060 N.am  400  HIS400     -0.1960
    137  CA        26.3740  -10.7670   12.0200 C.3   400  HIS400      0.1787
    138  C         26.3140   -9.2690   11.7870 C.2   400  HIS400      0.2621
    139  O         25.3300   -8.6680   12.1960 O.2   400  HIS400     -0.2715
    140  CB        26.0130  -11.0860   13.4700 C.3   400  HIS400      0.0785
    141  CG        25.8630  -12.5400   13.7310 C.ar  400  HIS400      0.0821
    142  ND1       24.7540  -13.2510   13.3350 N.ar  400  HIS400     -0.2267
    143  CD2       26.7040  -13.4220   14.3140 C.ar  400  HIS400      0.1154
    144  CE1       24.9070  -14.5100   13.6930 C.ar  400  HIS400      0.1986
    145  NE2       26.0880  -14.6470   14.2670 N.ar  400  HIS400     -0.2212
    146  N         27.3410   -8.6770   11.1680 N.am  401  SER401     -0.1936
    147  CA        27.3720   -7.2460   10.8240 C.3   401  SER401      0.2055
    148  C         27.3620   -7.0310    9.3280 C.2   401  SER401      0.2643
    149  O         27.6000   -7.9510    8.5710 O.2   401  SER401     -0.2714
    150  CB        28.6740   -6.5680   11.2760 C.3   401  SER401      0.2130
    151  OG        28.8850   -6.7430   12.6730 O.3   401  SER401     -0.2179
    152  N         27.1380   -5.7860    8.9340 N.am  402  ASN402     -0.1957
    153  CA        27.2600   -5.3270    7.5450 C.3   402  ASN402      0.1819
    154  C         28.7120   -5.4140    7.1250 C.2   402  ASN402      0.2621
    155  O         29.6040   -5.1180    7.8980 O.2   402  ASN402     -0.2715
    156  CB        26.7280   -3.9210    7.4350 C.3   402  ASN402      0.1195
    157  CG        26.4760   -3.4960    5.9920 C.2   402  ASN402      0.2630
    158  OD1       27.3980   -3.3790    5.1650 O.2   402  ASN402     -0.2716
    159  ND2       25.2080   -3.2060    5.7100 N.am  402  ASN402     -0.0877
    160  N         28.9750   -6.0190    5.9740 N.am  403  PHE403     -0.1960
    161  CA        30.3560   -6.2660    5.6010 C.3   403  PHE403      0.1771
    162  C         30.9670   -5.0500    4.9300 C.2   403  PHE403      0.2619
    163  O         32.1940   -4.9130    4.8800 O.2   403  PHE403     -0.2715
    164  CB        30.3530   -7.4550    4.6440 C.3   403  PHE403      0.0574
    165  CG        31.6850   -7.8530    4.1050 C.ar  403  PHE403     -0.0200
    166  CD1       32.5700   -8.5500    4.8790 C.ar  403  PHE403     -0.0042
    167  CD2       31.9940   -7.6040    2.7850 C.ar  403  PHE403     -0.0042
    168  CE1       33.7590   -8.9940    4.3510 C.ar  403  PHE403     -0.0003
    169  CE2       33.1850   -8.0280    2.2380 C.ar  403  PHE403     -0.0003
    170  CZ        34.0650   -8.7380    3.0260 C.ar  403  PHE403     -0.0000
    171  N         30.1330   -4.2230    4.3230 N.am  404  TYR404     -0.1974
    172  CA        30.6910   -3.1820    3.4430 C.3   404  TYR404      0.1639
    173  C         30.9090   -1.8330    4.1480 C.2   404  TYR404      0.2290
    174  O         31.7100   -1.0190    3.7090 O.2   404  TYR404     -0.2864
    175  CB        29.8320   -3.0790    2.1800 C.3   404  TYR404      0.0560
    176  CG        30.1250   -4.2670    1.2650 C.ar  404  TYR404     -0.0198
    177  CD1       31.3590   -4.3930    0.6330 C.ar  404  TYR404     -0.0009
    178  CD2       29.1940   -5.2670    1.0430 C.ar  404  TYR404     -0.0009
    179  CE1       31.6510   -5.4890   -0.1860 C.ar  404  TYR404      0.0417
    180  CE2       29.4900   -6.3940    0.2720 C.ar  404  TYR404      0.0417
    181  CZ        30.6930   -6.4880   -0.3880 C.ar  404  TYR404      0.1957
    182  OH        31.0030   -7.5530   -1.2130 O.3   404  TYR404     -0.2866
@<TRIPOS>BOND
     1    97    95    1
     2    96    95    1
     3    95    94    1
     4    94    91    1
     5   116   115    2
     6    74    73    1
     7    74    75    2
     8   101   100    2
     9    72    73    1
    10    73    76    1
    11   100    99    1
    12   115   114    1
    13    91    92    1
    14    91    90    1
    15    92    93    2
    16    92    98   am
    17    66    67    2
    18    66    65    1
    19    98    99    1
    20    99   102    1
    21    76    77    1
    22   113   114    1
    23   114   117    1
    24   182   181    1
    25    90    80   am
    26    52    51    1
    27    52    53    2
    28    64    65    1
    29    65    68    1
    30    51    50    1
    31    51    54    1
    32   104   103    2
    33    81    80    2
    34   117   118    1
    35   181   179   ar
    36   181   180   ar
    37   102   103    1
    38    80    79    1
    39   109   108    2
    40    70    69   ar
    41   179   177   ar
    42   108   107    1
    43   103   105   am
    44    55    54    1
    45   180   178   ar
    46    58    59    2
    47    58    57    1
    48    68    69    1
    49   177   176   ar
    50    41    42    2
    51    41    40    1
    52    69    71   ar
    53    78    79    1
    54    79    82    1
    55   118   119   ar
    56   118   120   ar
    57   106   107    1
    58   178   176   ar
    59   107   110    1
    60   176   175    1
    61    57    56    1
    62    57    60    1
    63    19    20    1
    64    19    15   am
    65    40    39    1
    66    40    43    1
    67    21    20    1
    68    21    22    2
    69    20    23    1
    70    14    15    1
    71    14    13    1
    72    14    17    1
    73   175   172    1
    74    18    17    1
    75   169   167   ar
    76   169   170   ar
    77    82    83    1
    78    15    16    2
    79    28    26   ar
    80    28    29   ar
    81    26    24   ar
    82   110   111    1
    83   110   112    1
    84    63    61    1
    85    29    27   ar
    86    61    60    1
    87    61    62    1
    88   167   165   ar
    89    32    33    2
    90    32    31    1
    91    24    23    1
    92    24    25   ar
    93    43    44    1
    94   170   168   ar
    95    27    25   ar
    96    31    30    1
    97    31    34    1
    98   172   173    1
    99   172   171    1
   100    83    84   ar
   101    83    85   ar
   102   174   173    2
   103    44    45   ar
   104    44    46   ar
   105    84    86   ar
   106    45    47   ar
   107   165   164    1
   108   165   166   ar
   109    85    87   ar
   110   171   162   am
   111   168   166   ar
   112    46    48   ar
   113   164   161    1
   114    34    35    1
   115   163   162    2
   116   162   161    1
   117    47    49   ar
   118    86    88   ar
   119   158   157    2
   120    87    88   ar
   121    48    49   ar
   122    35    36    1
   123   161   160    1
   124   159   157   am
   125    88    89    1
   126   160   154   am
   127   157   156    1
   128    36    37    1
   129    37    38    1
   130   154   153    1
   131   154   155    2
   132   156   153    1
   133   153   152    1
   134     3     2    1
   135     3     4    2
   136     2     1    1
   137     2     5    1
   138   149   148    2
   139   152   148   am
   140   148   147    1
   141     5     6    1
   142     7     6   ar
   143     7     9   ar
   144   132   131    2
   145     6     8   ar
   146   130   133    1
   147   130   131    1
   148   130   129    1
   149     9    11   ar
   150   133   134    1
   151   124   123    2
   152   131   136   am
   153   147   146    1
   154   147   150    1
   155     8    10   ar
   156   146   138   am
   157    11    10   ar
   158    11    12    1
   159   129   123   am
   160   129   135    1
   161   123   122    1
   162   150   151    1
   163   121   122    1
   164   136   137    1
   165   134   135    1
   166   138   137    1
   167   138   139    2
   168   137   140    1
   169   122   125    1
   170   125   126    1
   171   142   144   ar
   172   142   141   ar
   173   140   141    1
   174   144   145   ar
   175   141   143   ar
   176   127   126   ar
   177   126   128   ar
   178   145   143   ar
