@<TRIPOS>MOLECULE
tmp/4qbzB02.pdb
 190 185 0 0 0
SMALL
GASTEIGER

@<TRIPOS>ATOM
      1  N         77.4410   16.6080   50.9050 N.3   133  TYR133     -0.1241
      2  CA        76.1670   16.9850   50.2830 C.3   133  TYR133      0.1605
      3  C         75.0980   17.1360   51.3700 C.2   133  TYR133      0.2264
      4  O         74.6930   16.1630   51.9800 O.2   133  TYR133     -0.2867
      5  CB        75.6560   15.9460   49.2770 C.3   133  TYR133      0.0534
      6  CG        76.6400   15.5860   48.2170 C.ar  133  TYR133     -0.0201
      7  CD1       76.6330   16.1890   46.9740 C.ar  133  TYR133     -0.0009
      8  CD2       77.5940   14.6160   48.4790 C.ar  133  TYR133     -0.0009
      9  CE1       77.5800   15.8600   46.0150 C.ar  133  TYR133      0.0417
     10  CE2       78.5150   14.2430   47.5160 C.ar  133  TYR133      0.0417
     11  CZ        78.5060   14.8690   46.2930 C.ar  133  TYR133      0.1957
     12  OH        79.4820   14.4760   45.4110 O.3   133  TYR133     -0.2866
     13  N         84.3110   19.5430   47.5280 N.3   162  LEU162     -0.1245
     14  CA        82.9620   19.7930   47.0640 C.3   162  LEU162      0.1561
     15  C         82.0160   20.0030   48.2570 C.2   162  LEU162      0.2260
     16  O         81.8930   19.1320   49.1110 O.2   162  LEU162     -0.2867
     17  CB        82.4910   18.6200   46.2040 C.3   162  LEU162      0.0270
     18  CG        81.1200   18.7980   45.5410 C.3   162  LEU162      0.0019
     19  CD1       80.9620   17.9260   44.3010 C.3   162  LEU162      0.0001
     20  CD2       80.0050   18.4500   46.5230 C.3   162  LEU162      0.0001
     21  N         72.7100   23.4810   48.4840 N.3   166  SER166     -0.1202
     22  CA        71.5760   23.9760   47.7040 C.3   166  SER166      0.2020
     23  C         70.2240   23.5490   48.2590 C.2   166  SER166      0.2618
     24  O         70.1010   22.4970   48.9010 O.2   166  SER166     -0.2717
     25  CB        71.7080   23.4880   46.2510 C.3   166  SER166      0.2103
     26  OG        72.8860   24.0090   45.6650 O.3   166  SER166     -0.2182
     27  N         69.1820   24.3230   47.9580 N.am  167  PHE167     -0.1975
     28  CA        67.8160   23.9930   48.4020 C.3   167  PHE167      0.1639
     29  C         67.7360   23.7910   49.9260 C.2   167  PHE167      0.2290
     30  O         67.2490   22.7880   50.4690 O.2   167  PHE167     -0.2864
     31  CB        67.1780   22.8430   47.5980 C.3   167  PHE167      0.0560
     32  CG        67.0290   23.1660   46.1270 C.ar  167  PHE167     -0.0200
     33  CD1       68.0620   22.9370   45.2440 C.ar  167  PHE167     -0.0042
     34  CD2       65.8680   23.7080   45.6490 C.ar  167  PHE167     -0.0042
     35  CE1       67.9260   23.1900   43.8890 C.ar  167  PHE167     -0.0003
     36  CE2       65.7470   24.0560   44.3230 C.ar  167  PHE167     -0.0003
     37  CZ        66.7700   23.7950   43.4300 C.ar  167  PHE167     -0.0000
     38  N         84.4320   22.9390   44.2500 N.3   183  LYS183     -0.1245
     39  CA        83.0510   23.1120   43.8080 C.3   183  LYS183      0.1561
     40  C         82.1200   23.5320   44.9350 C.2   183  LYS183      0.2260
     41  O         82.0080   22.8190   45.9210 O.2   183  LYS183     -0.2867
     42  CB        82.5060   21.8200   43.1780 C.3   183  LYS183      0.0271
     43  CG        83.4140   21.3000   42.0860 C.3   183  LYS183      0.0035
     44  CD        82.8190   20.2120   41.2030 C.3   183  LYS183      0.0206
     45  CE        83.5260   20.3600   39.8670 C.3   183  LYS183      0.1093
     46  NZ        83.2090   19.3100   38.8680 N.3   183  LYS183     -0.1314
     47  N         78.1550   24.6740   45.6930 N.3   185  PHE185     -0.1241
     48  CA        76.7810   24.7810   45.2410 C.3   185  PHE185      0.1605
     49  C         75.9120   25.4760   46.2820 C.2   185  PHE185      0.2264
     50  O         75.6750   24.9700   47.3740 O.2   185  PHE185     -0.2867
     51  CB        76.2280   23.3960   44.9660 C.3   185  PHE185      0.0534
     52  CG        76.9960   22.6200   43.9070 C.ar  185  PHE185     -0.0203
     53  CD1       76.5850   22.6190   42.5880 C.ar  185  PHE185     -0.0042
     54  CD2       78.0970   21.8360   44.2510 C.ar  185  PHE185     -0.0042
     55  CE1       77.2580   21.8550   41.6350 C.ar  185  PHE185     -0.0003
     56  CE2       78.7880   21.0740   43.3060 C.ar  185  PHE185     -0.0003
     57  CZ        78.3570   21.0790   41.9920 C.ar  185  PHE185     -0.0000
     58  N         72.7410   26.8470   45.1730 N.3   187  SER187     -0.1217
     59  CA        71.4890   27.0790   44.4780 C.3   187  SER187      0.1889
     60  C         70.2740   27.1310   45.4010 C.2   187  SER187      0.2288
     61  O         70.1140   26.3510   46.3680 O.2   187  SER187     -0.2866
     62  CB        71.1890   26.0170   43.4090 C.3   187  SER187      0.2089
     63  OG        70.1750   26.4830   42.5300 O.3   187  SER187     -0.2183
     64  N         84.0940   25.4400   40.2140 N.3   207  LEU207     -0.1245
     65  CA        82.6520   25.6170   39.9980 C.3   207  LEU207      0.1561
     66  C         81.9920   26.4210   41.1200 C.2   207  LEU207      0.2260
     67  O         82.1660   26.0940   42.3070 O.2   207  LEU207     -0.2867
     68  CB        81.9710   24.2580   39.9380 C.3   207  LEU207      0.0270
     69  CG        80.4600   24.3040   39.7300 C.3   207  LEU207      0.0019
     70  CD1       80.0110   23.1310   38.8690 C.3   207  LEU207      0.0001
     71  CD2       79.6180   24.3620   40.9970 C.3   207  LEU207      0.0001
     72  N         77.9130   27.6340   41.9200 N.3   209  ASP209     -0.1239
     73  CA        76.4990   27.6770   41.5920 C.3   209  ASP209      0.1674
     74  C         75.7140   28.5840   42.5410 C.2   209  ASP209      0.2266
     75  O         75.4600   28.2130   43.6800 O.2   209  ASP209     -0.2867
     76  CB        75.9360   26.2730   41.6630 C.3   209  ASP209      0.1410
     77  CG        74.4580   26.1820   41.3040 C.2   209  ASP209      0.3668
     78  OD1       73.9130   27.1390   40.7170 O.co2 209  ASP209     -0.2456
     79  OD2       73.8840   25.0890   41.5780 O.co2 209  ASP209     -0.2456
     80  N         72.6330   29.7990   41.4640 N.3   211  SER211     -0.1217
     81  CA        71.3490   29.8600   40.7490 C.3   211  SER211      0.1889
     82  C         70.1610   29.9510   41.7130 C.2   211  SER211      0.2288
     83  O         70.2060   29.4700   42.8520 O.2   211  SER211     -0.2866
     84  CB        71.1770   28.6430   39.8400 C.3   211  SER211      0.2089
     85  OG        71.1530   27.4490   40.5800 O.3   211  SER211     -0.2183
     86  N         83.1700   26.8250   35.6510 N.3   248  TYR248     -0.1227
     87  CA        81.6980   26.7560   35.6520 C.3   248  TYR248      0.1736
     88  C         81.0690   27.8210   36.5830 C.2   248  TYR248      0.2595
     89  O         81.3460   27.8460   37.7720 O.2   248  TYR248     -0.2718
     90  CB        81.2290   25.3600   36.1120 C.3   248  TYR248      0.0548
     91  CG        81.7570   24.2240   35.2490 C.ar  248  TYR248     -0.0200
     92  CD1       83.0270   23.6980   35.4660 C.ar  248  TYR248     -0.0009
     93  CD2       80.9840   23.6910   34.2240 C.ar  248  TYR248     -0.0009
     94  CE1       83.5070   22.6590   34.6900 C.ar  248  TYR248      0.0417
     95  CE2       81.4650   22.6630   33.4200 C.ar  248  TYR248      0.0417
     96  CZ        82.7350   22.1710   33.6580 C.ar  248  TYR248      0.1957
     97  OH        83.2440   21.1730   32.8820 O.3   248  TYR248     -0.2866
     98  N         80.2130   28.6630   36.0150 N.am  249  LEU249     -0.1966
     99  CA        79.4290   29.6530   36.7400 C.3   249  LEU249      0.1728
    100  C         77.9400   29.5430   36.3830 C.2   249  LEU249      0.2616
    101  O         77.5450   29.7790   35.2470 O.2   249  LEU249     -0.2715
    102  CB        79.9940   31.0540   36.4500 C.3   249  LEU249      0.0311
    103  CG        79.2650   32.2330   37.1080 C.3   249  LEU249      0.0022
    104  CD1       79.3540   32.1550   38.6060 C.3   249  LEU249      0.0001
    105  CD2       79.7980   33.5730   36.6240 C.3   249  LEU249      0.0001
    106  N         77.1120   29.2200   37.3680 N.am  250  ASN250     -0.1972
    107  CA        75.6980   29.0860   37.1940 C.3   250  ASN250      0.1688
    108  C         75.0070   30.2450   37.8990 C.2   250  ASN250      0.2292
    109  O         74.8790   30.2500   39.1130 O.2   250  ASN250     -0.2864
    110  CB        75.1980   27.7560   37.7750 C.3   250  ASN250      0.1181
    111  CG        73.8170   27.3690   37.2540 C.2   250  ASN250      0.2629
    112  OD1       73.0620   28.2050   36.7730 O.2   250  ASN250     -0.2716
    113  ND2       73.4730   26.0930   37.3540 N.am  250  ASN250     -0.0877
    114  N         81.9970   27.2850   31.0440 N.3   272  VAL272     -0.1245
    115  CA        80.5320   27.1390   31.0100 C.3   272  VAL272      0.1561
    116  C         79.8350   28.2280   31.8330 C.2   272  VAL272      0.2260
    117  O         80.0550   28.3060   33.0520 O.2   272  VAL272     -0.2867
    118  CB        80.1380   25.7650   31.6010 C.3   272  VAL272      0.0252
    119  CG1       78.6210   25.5790   31.6080 C.3   272  VAL272      0.0019
    120  CG2       80.8100   24.6180   30.8410 C.3   272  VAL272      0.0019
    121  N         76.0240   29.5870   32.7410 N.3   274  ASP274     -0.1239
    122  CA        74.5680   29.4200   32.7340 C.3   274  ASP274      0.1674
    123  C         73.7990   30.6910   33.1960 C.2   274  ASP274      0.2266
    124  O         73.9410   31.1010   34.3480 O.2   274  ASP274     -0.2867
    125  CB        74.2740   28.2360   33.6350 C.3   274  ASP274      0.1410
    126  CG        73.1110   27.4060   33.1750 C.2   274  ASP274      0.3668
    127  OD1       73.1130   26.2310   33.6120 O.co2 274  ASP274     -0.2456
    128  OD2       72.1770   27.9220   32.4850 O.co2 274  ASP274     -0.2456
    129  N         65.0200   15.5040   40.5130 N.3   395  ASP395     -0.1225
    130  CA        66.1150   14.6110   40.8750 C.3   395  ASP395      0.1790
    131  C         67.1860   15.4810   41.5270 C.2   395  ASP395      0.2440
    132  O         67.7410   16.3560   40.8650 O.2   395  ASP395     -0.2733
    133  CB        66.6300   13.9170   39.5980 C.3   395  ASP395      0.1423
    134  CG        67.8090   12.9800   39.8510 C.2   395  ASP395      0.3668
    135  OD1       68.4020   12.9400   40.9430 O.co2 395  ASP395     -0.2456
    136  OD2       68.1460   12.2330   38.9220 O.co2 395  ASP395     -0.2456
    137  N         67.5370   15.2200   42.8040 N.am  396  PRO396     -0.2718
    138  CA        68.5290   16.1200   43.3970 C.3   396  PRO396      0.1535
    139  C         69.9280   15.9350   42.8480 C.2   396  PRO396      0.2599
    140  O         70.8190   16.6750   43.2310 O.2   396  PRO396     -0.2715
    141  CB        68.5080   15.7630   44.8750 C.3   396  PRO396      0.0310
    142  CG        67.9410   14.3880   44.9390 C.3   396  PRO396      0.0237
    143  CD        67.0280   14.2270   43.7660 C.3   396  PRO396      0.0939
    144  N         70.1240   14.9660   41.9570 N.am  397  HIS397     -0.1960
    145  CA        71.4490   14.7540   41.3860 C.3   397  HIS397      0.1787
    146  C         71.5370   15.2110   39.9500 C.2   397  HIS397      0.2621
    147  O         72.5210   14.9040   39.2870 O.2   397  HIS397     -0.2715
    148  CB        71.8130   13.2800   41.4770 C.3   397  HIS397      0.0785
    149  CG        71.9270   12.7980   42.8820 C.ar  397  HIS397      0.0821
    150  ND1       73.0410   13.0530   43.6480 N.ar  397  HIS397     -0.2267
    151  CD2       71.0840   12.0710   43.6530 C.ar  397  HIS397      0.1154
    152  CE1       72.8600   12.5460   44.8540 C.ar  397  HIS397      0.1986
    153  NE2       71.6930   11.9220   44.8740 N.ar  397  HIS397     -0.2212
    154  N         70.5050   15.8970   39.4700 N.am  398  SER398     -0.1936
    155  CA        70.5030   16.4020   38.0960 C.3   398  SER398      0.2055
    156  C         70.4980   17.9060   38.1550 C.2   398  SER398      0.2643
    157  O         70.1350   18.4890   39.1630 O.2   398  SER398     -0.2714
    158  CB        69.1910   16.0350   37.3590 C.3   398  SER398      0.2130
    159  OG        68.9770   14.6450   37.3250 O.3   398  SER398     -0.2179
    160  N         70.6960   18.4930   36.9940 N.am  399  ASN399     -0.1957
    161  CA        70.4890   19.9040   36.7620 C.3   399  ASN399      0.1819
    162  C         69.0210   20.1960   36.9520 C.2   399  ASN399      0.2621
    163  O         68.1260   19.5160   36.4220 O.2   399  ASN399     -0.2715
    164  CB        71.0040   20.2460   35.3700 C.3   399  ASN399      0.1195
    165  CG        71.2330   21.7310   35.1690 C.2   399  ASN399      0.2630
    166  OD1       70.2950   22.5300   35.1120 O.2   399  ASN399     -0.2716
    167  ND2       72.4810   22.0840   34.9390 N.am  399  ASN399     -0.0877
    168  N         68.7530   21.2270   37.7290 N.am  400  PHE400     -0.1960
    169  CA        67.3740   21.6170   37.9670 C.3   400  PHE400      0.1771
    170  C         66.7900   22.4930   36.8510 C.2   400  PHE400      0.2619
    171  O         65.5700   22.5780   36.7130 O.2   400  PHE400     -0.2715
    172  CB        67.4040   22.4500   39.2540 C.3   400  PHE400      0.0574
    173  CG        66.0750   22.9060   39.7500 C.ar  400  PHE400     -0.0200
    174  CD1       65.2110   22.0340   40.3550 C.ar  400  PHE400     -0.0042
    175  CD2       65.7240   24.2370   39.6280 C.ar  400  PHE400     -0.0042
    176  CE1       63.9940   22.4790   40.8420 C.ar  400  PHE400     -0.0003
    177  CE2       64.5540   24.7210   40.1880 C.ar  400  PHE400     -0.0003
    178  CZ        63.6840   23.8310   40.7900 C.ar  400  PHE400     -0.0000
    179  N         67.6130   23.2110   36.0970 N.am  401  TYR401     -0.1974
    180  CA        67.0710   24.2150   35.1710 C.3   401  TYR401      0.1639
    181  C         66.8260   23.6950   33.7360 C.2   401  TYR401      0.2290
    182  O         66.0040   24.2370   32.9870 O.2   401  TYR401     -0.2864
    183  CB        67.9470   25.4690   35.2410 C.3   401  TYR401      0.0560
    184  CG        67.6990   26.2140   36.5530 C.ar  401  TYR401     -0.0198
    185  CD1       66.4610   26.8080   36.7890 C.ar  401  TYR401     -0.0009
    186  CD2       68.6380   26.2670   37.5750 C.ar  401  TYR401     -0.0009
    187  CE1       66.1700   27.4520   37.9800 C.ar  401  TYR401      0.0417
    188  CE2       68.3500   26.9130   38.7770 C.ar  401  TYR401      0.0417
    189  CZ        67.1170   27.5170   38.9820 C.ar  401  TYR401      0.1957
    190  OH        66.7560   28.1790   40.1510 O.3   401  TYR401     -0.2866
@<TRIPOS>BOND
     1   120   118    1
     2   115   114    1
     3   115   118    1
     4   115   116    1
     5   118   119    1
     6   116   117    2
     7   128   126   ar
     8   122   121    1
     9   122   123    1
    10   122   125    1
    11    97    96    1
    12   182   181    2
    13   126   127   ar
    14   126   125    1
    15   123   124    2
    16    95    96   ar
    17    95    93   ar
    18    96    94   ar
    19   181   180    1
    20    93    91   ar
    21    94    92   ar
    22   167   165   am
    23   166   165    2
    24   165   164    1
    25   180   183    1
    26   180   179    1
    27   183   184    1
    28   101   100    2
    29    91    92   ar
    30    91    90    1
    31   164   161    1
    32    86    87    1
    33    87    90    1
    34    87    88    1
    35    98    88   am
    36    98    99    1
    37   179   170   am
    38   100    99    1
    39   100   106   am
    40   163   162    2
    41   102    99    1
    42   102   103    1
    43   184   185   ar
    44   184   186   ar
    45    88    89    2
    46   105   103    1
    47   171   170    2
    48   161   162    1
    49   161   160    1
    50   112   111    2
    51   185   187   ar
    52   170   169    1
    53   162   168   am
    54   160   156   am
    55   103   104    1
    56   107   106    1
    57   107   110    1
    58   107   108    1
    59   111   113   am
    60   111   110    1
    61   159   158    1
    62   158   155    1
    63   186   188   ar
    64   168   169    1
    65   108   109    2
    66   169   172    1
    67   187   189   ar
    68   155   156    1
    69   155   154    1
    70   156   157    2
    71   188   189   ar
    72    46    45    1
    73    70    69    1
    74   136   134   ar
    75   189   190    1
    76   172   173    1
    77   147   146    2
    78   154   146   am
    79   133   134    1
    80   133   130    1
    81   175   173   ar
    82   175   177   ar
    83    69    68    1
    84    69    71    1
    85   173   174   ar
    86    84    85    1
    87    84    81    1
    88   134   135   ar
    89    45    44    1
    90    68    65    1
    91   146   145    1
    92    65    64    1
    93    65    66    1
    94   177   178   ar
    95   174   176   ar
    96   129   130    1
    97    78    77   ar
    98    81    80    1
    99    81    82    1
   100   178   176   ar
   101   132   131    2
   102   130   131    1
   103    66    67    2
   104    44    43    1
   105    77    79   ar
   106    77    76    1
   107   145   148    1
   108   145   144    1
   109   148   149    1
   110   131   137   am
   111    73    76    1
   112    73    72    1
   113    73    74    1
   114    55    57   ar
   115    55    53   ar
   116    82    83    2
   117   144   139   am
   118    57    56   ar
   119    43    42    1
   120    63    62    1
   121    74    75    2
   122    53    52   ar
   123   137   138    1
   124   137   143    1
   125   139   140    2
   126   139   138    1
   127   149   150   ar
   128   149   151   ar
   129    42    39    1
   130    56    54   ar
   131   138   141    1
   132    62    59    1
   133    37    35   ar
   134    37    36   ar
   135   150   152   ar
   136   151   153   ar
   137   143   142    1
   138    39    38    1
   139    39    40    1
   140    35    33   ar
   141    52    54   ar
   142    52    51    1
   143    19    18    1
   144    36    34   ar
   145    59    58    1
   146    59    60    1
   147   152   153   ar
   148   141   142    1
   149    40    41    2
   150    51    48    1
   151    48    47    1
   152    48    49    1
   153    33    32   ar
   154    60    61    2
   155    12    11    1
   156    18    17    1
   157    18    20    1
   158    34    32   ar
   159    26    25    1
   160     9    11   ar
   161     9     7   ar
   162    32    31    1
   163    17    14    1
   164    25    22    1
   165    49    50    2
   166    11    10   ar
   167     7     6   ar
   168    14    13    1
   169    14    15    1
   170    10     8   ar
   171    31    28    1
   172    22    23    1
   173    22    21    1
   174    27    23   am
   175    27    28    1
   176     6     8   ar
   177     6     5    1
   178    15    16    2
   179    23    24    2
   180    28    29    1
   181     5     2    1
   182    29    30    2
   183     2     1    1
   184     2     3    1
   185     3     4    2
