@<TRIPOS>MOLECULE
tmp/4qbzA09.pdb
 105 101 0 0 0
SMALL
GASTEIGER

@<TRIPOS>ATOM
      1  N         39.9120   -4.0460   -6.6090 N.3   219  PHE219     -0.1227
      2  CA        41.0460   -3.1580   -6.4470 C.3   219  PHE219      0.1736
      3  C         41.1300   -2.7480   -4.9740 C.2   219  PHE219      0.2595
      4  O         40.1420   -2.3170   -4.4040 O.2   219  PHE219     -0.2718
      5  CB        40.9310   -1.9180   -7.3400 C.3   219  PHE219      0.0547
      6  CG        42.0780   -0.9690   -7.1290 C.ar  219  PHE219     -0.0202
      7  CD1       43.3670   -1.3720   -7.4220 C.ar  219  PHE219     -0.0042
      8  CD2       41.8930    0.2670   -6.5300 C.ar  219  PHE219     -0.0042
      9  CE1       44.4430   -0.5590   -7.1400 C.ar  219  PHE219     -0.0003
     10  CE2       42.9750    1.0940   -6.2910 C.ar  219  PHE219     -0.0003
     11  CZ        44.2530    0.6780   -6.5750 C.ar  219  PHE219     -0.0000
     12  N         42.2880   -2.9240   -4.3540 N.am  220  ASN220     -0.1974
     13  CA        42.5330   -2.4630   -2.9770 C.3   220  ASN220      0.1688
     14  C         41.6200   -3.0920   -1.9310 C.2   220  ASN220      0.2292
     15  O         41.4300   -2.5320   -0.8440 O.2   220  ASN220     -0.2864
     16  CB        42.4920   -0.9310   -2.8820 C.3   220  ASN220      0.1181
     17  CG        43.1460   -0.4130   -1.6130 C.2   220  ASN220      0.2629
     18  OD1       44.2200   -0.8770   -1.2110 O.2   220  ASN220     -0.2716
     19  ND2       42.4880    0.5140   -0.9680 N.am  220  ASN220     -0.0877
     20  N         32.4280    4.8520   -2.1190 N.3   304  PHE304     -0.1241
     21  CA        33.5120    4.1720   -2.7950 C.3   304  PHE304      0.1605
     22  C         33.1960    3.7400   -4.2250 C.2   304  PHE304      0.2264
     23  O         33.4510    2.6160   -4.6270 O.2   304  PHE304     -0.2867
     24  CB        33.9840    2.9970   -1.9430 C.3   304  PHE304      0.0534
     25  CG        34.6300    3.4280   -0.6500 C.ar  304  PHE304     -0.0203
     26  CD1       35.9250    3.9100   -0.6250 C.ar  304  PHE304     -0.0042
     27  CD2       33.9220    3.3840    0.5370 C.ar  304  PHE304     -0.0042
     28  CE1       36.5190    4.3380    0.5480 C.ar  304  PHE304     -0.0003
     29  CE2       34.5160    3.7640    1.7240 C.ar  304  PHE304     -0.0003
     30  CZ        35.8070    4.2570    1.7170 C.ar  304  PHE304     -0.0000
     31  N         34.6570    5.6110   -6.5530 N.3   306  TYR306     -0.1241
     32  CA        35.7540    6.3770   -7.1420 C.3   306  TYR306      0.1605
     33  C         36.3470    5.7170   -8.3640 C.2   306  TYR306      0.2264
     34  O         36.3990    4.4900   -8.4340 O.2   306  TYR306     -0.2867
     35  CB        36.8580    6.5700   -6.1350 C.3   306  TYR306      0.0534
     36  CG        37.6080    5.3370   -5.7350 C.ar  306  TYR306     -0.0201
     37  CD1       37.1320    4.4990   -4.7390 C.ar  306  TYR306     -0.0009
     38  CD2       38.8190    5.0200   -6.3350 C.ar  306  TYR306     -0.0009
     39  CE1       37.8240    3.3770   -4.3610 C.ar  306  TYR306      0.0417
     40  CE2       39.5260    3.8920   -5.9640 C.ar  306  TYR306      0.0417
     41  CZ        39.0180    3.0940   -4.9740 C.ar  306  TYR306      0.1957
     42  OH        39.6990    1.9750   -4.6180 O.3   306  TYR306     -0.2866
     43  N         42.7800    6.1860   -9.4320 N.3   309  GLY309     -0.1210
     44  CA        43.7720    7.1680   -9.8490 C.3   309  GLY309      0.1956
     45  C         43.2000    8.4850  -10.3100 C.2   309  GLY309      0.2613
     46  O         43.9210    9.3170  -10.8350 O.2   309  GLY309     -0.2717
     47  N         41.9080    8.7170  -10.1280 N.am  310  SER310     -0.1938
     48  CA        41.3450    9.9450  -10.6440 C.3   310  SER310      0.2055
     49  C         40.9740   10.9000   -9.5160 C.2   310  SER310      0.2643
     50  O         40.3160   10.4990   -8.5740 O.2   310  SER310     -0.2714
     51  CB        40.1000    9.5940  -11.4280 C.3   310  SER310      0.2130
     52  OG        39.4170   10.7790  -11.8090 O.3   310  SER310     -0.2179
     53  N         41.3550   12.1670   -9.6280 N.am  311  TYR311     -0.1973
     54  CA        41.1240   13.1750   -8.6100 C.3   311  TYR311      0.1639
     55  C         40.5140   14.4000   -9.2490 C.2   311  TYR311      0.2290
     56  O         41.1520   15.4410   -9.2710 O.2   311  TYR311     -0.2864
     57  CB        42.4670   13.5040   -7.9450 C.3   311  TYR311      0.0560
     58  CG        42.4700   14.2530   -6.6150 C.ar  311  TYR311     -0.0198
     59  CD1       41.3420   14.3160   -5.7790 C.ar  311  TYR311     -0.0009
     60  CD2       43.6330   14.8520   -6.1580 C.ar  311  TYR311     -0.0009
     61  CE1       41.3880   14.9760   -4.5530 C.ar  311  TYR311      0.0417
     62  CE2       43.6870   15.5200   -4.9450 C.ar  311  TYR311      0.0417
     63  CZ        42.5700   15.5750   -4.1380 C.ar  311  TYR311      0.1957
     64  OH        42.6650   16.2040   -2.9220 O.3   311  TYR311     -0.2866
     65  N         34.1810    8.4720   -0.4460 N.3   334  GLY334     -0.1225
     66  CA        35.0830    7.8410   -1.3990 C.3   334  GLY334      0.1811
     67  C         34.6850    7.9710   -2.8580 C.2   334  GLY334      0.2280
     68  O         34.8960    7.0510   -3.6260 O.2   334  GLY334     -0.2866
     69  N         35.9540   10.8820   -4.3350 N.3   336  VAL336     -0.1245
     70  CA        37.2750   11.4990   -4.5350 C.3   336  VAL336      0.1561
     71  C         37.1800   12.7150   -5.4490 C.2   336  VAL336      0.2260
     72  O         36.9160   12.5920   -6.6380 O.2   336  VAL336     -0.2867
     73  CB        38.3820   10.5430   -4.9960 C.3   336  VAL336      0.0252
     74  CG1       39.7190   11.2650   -4.9820 C.3   336  VAL336      0.0019
     75  CG2       38.4690    9.3200   -4.0830 C.3   336  VAL336      0.0019
     76  N         35.9470   10.8510    3.6220 N.3   361  ILE361     -0.1245
     77  CA        37.0150   10.2550    2.8150 C.3   361  ILE361      0.1561
     78  C         36.8950   10.5230    1.3160 C.2   361  ILE361      0.2260
     79  O         36.8800    9.6250    0.4720 O.2   361  ILE361     -0.2867
     80  CB        37.1150    8.7440    3.0380 C.3   361  ILE361      0.0252
     81  CG1       36.8730    8.3600    4.5070 C.3   361  ILE361      0.0019
     82  CG2       38.4800    8.2650    2.5880 C.3   361  ILE361      0.0019
     83  CD1       36.7260    6.8630    4.6930 C.3   361  ILE361      0.0001
     84  N         39.1490   13.2400    0.1760 N.3   363  PHE363     -0.1241
     85  CA        40.2930   14.1150   -0.0360 C.3   363  PHE363      0.1605
     86  C         39.8990   15.5050   -0.5100 C.2   363  PHE363      0.2264
     87  O         40.6170   16.1530   -1.2740 O.2   363  PHE363     -0.2867
     88  CB        41.3090   13.4460   -0.9630 C.3   363  PHE363      0.0534
     89  CG        41.8630   12.1790   -0.4020 C.ar  363  PHE363     -0.0203
     90  CD1       42.9880   12.2050    0.4220 C.ar  363  PHE363     -0.0042
     91  CD2       41.2150   10.9810   -0.6040 C.ar  363  PHE363     -0.0042
     92  CE1       43.4570   11.0480    0.9860 C.ar  363  PHE363     -0.0003
     93  CE2       41.7110    9.8250   -0.0450 C.ar  363  PHE363     -0.0003
     94  CZ        42.8140    9.8630    0.7570 C.ar  363  PHE363     -0.0000
     95  N         40.6640   16.9760    3.3800 N.3   387  ARG387     -0.1245
     96  CA        41.8870   17.8040    3.3730 C.3   387  ARG387      0.1563
     97  C         41.4860   19.2540    3.5840 C.2   387  ARG387      0.2260
     98  O         42.0520   20.1610    2.9810 O.2   387  ARG387     -0.2867
     99  CB        42.6290   17.6640    2.0380 C.3   387  ARG387      0.0307
    100  CG        43.3900   16.3450    1.8910 C.3   387  ARG387      0.0489
    101  CD        43.7940   16.1810    0.4160 C.3   387  ARG387      0.2205
    102  NE        44.9960   15.3760    0.2220 N.pl3 387  ARG387     -0.0865
    103  CZ        45.8160   15.4110   -0.8300 C.cat 387  ARG387      0.5346
    104  NH1       46.8980   14.6070   -0.8550 N.pl3 387  ARG387      0.1354
    105  NH2       45.5470   16.2140   -1.8540 N.pl3 387  ARG387      0.1354
@<TRIPOS>BOND
     1    52    51    1
     2    51    48    1
     3    46    45    2
     4    48    47    1
     5    48    49    1
     6    45    47   am
     7    45    44    1
     8    44    43    1
     9    53    49   am
    10    53    54    1
    11    49    50    2
    12    56    55    2
    13    55    54    1
    14    54    57    1
    15    34    33    2
    16    33    32    1
    17    57    58    1
    18     7     9   ar
    19     7     6   ar
    20     5     6    1
    21     5     2    1
    22    32    31    1
    23    32    35    1
    24     9    11   ar
    25     6     8   ar
    26    72    71    2
    27    58    60   ar
    28    58    59   ar
    29     1     2    1
    30    11    10   ar
    31     8    10   ar
    32     2     3    1
    33    38    40   ar
    34    38    36   ar
    35    60    62   ar
    36    35    36    1
    37    40    41   ar
    38    59    61   ar
    39    36    37   ar
    40    71    70    1
    41    73    74    1
    42    73    70    1
    43    73    75    1
    44    41    42    1
    45    41    39   ar
    46     3     4    2
    47     3    12   am
    48    62    63   ar
    49    37    39   ar
    50    23    22    2
    51    61    63   ar
    52    70    69    1
    53    12    13    1
    54    22    21    1
    55    63    64    1
    56    68    67    2
    57    13    16    1
    58    13    14    1
    59    16    17    1
    60    67    66    1
    61    21    20    1
    62    21    24    1
    63    24    25    1
    64    14    15    2
    65   105   103    1
    66    17    18    2
    67    17    19   am
    68    66    65    1
    69    87    86    2
    70    88    89    1
    71    88    85    1
    72   104   103    1
    73   103   102    2
    74    25    26   ar
    75    25    27   ar
    76    26    28   ar
    77    91    89   ar
    78    91    93   ar
    79    86    85    1
    80    89    90   ar
    81    93    94   ar
    82    85    84    1
    83   102   101    1
    84   101   100    1
    85    90    92   ar
    86    79    78    2
    87    27    29   ar
    88    28    30   ar
    89    94    92   ar
    90    78    77    1
    91    30    29   ar
    92   100    99    1
    93    99    96    1
    94    82    80    1
    95    77    80    1
    96    77    76    1
    97    98    97    2
    98    80    81    1
    99    96    95    1
   100    96    97    1
   101    81    83    1
