@<TRIPOS>MOLECULE
tmp/4qbzA05.pdb
 136 126 0 0 0
SMALL
GASTEIGER

@<TRIPOS>ATOM
      1  N         28.4000   11.1150   17.3590 N.3   412  LYS412     -0.1245
      2  CA        28.1130   10.5830   18.6710 C.3   412  LYS412      0.1561
      3  C         26.6900   11.0570   19.0340 C.2   412  LYS412      0.2260
      4  O         26.3530   12.2110   18.7810 O.2   412  LYS412     -0.2867
      5  CB        29.1890   11.1260   19.6050 C.3   412  LYS412      0.0271
      6  CG        29.4650   10.2500   20.8090 C.3   412  LYS412      0.0035
      7  CD        30.5340   10.8480   21.7110 C.3   412  LYS412      0.0206
      8  CE        30.3640   10.2430   23.1100 C.3   412  LYS412      0.1093
      9  NZ        31.3570   10.6730   24.1180 N.3   412  LYS412     -0.1314
     10  N         25.1420   11.6200   21.8310 N.3   414  GLN414     -0.1245
     11  CA        25.1310   12.6670   22.8560 C.3   414  GLN414      0.1566
     12  C         25.3500   14.0590   22.2630 C.2   414  GLN414      0.2260
     13  O         24.8150   15.0410   22.7740 O.2   414  GLN414     -0.2867
     14  CB        26.1640   12.3660   23.9360 C.3   414  GLN414      0.0367
     15  CG        25.8930   11.0550   24.6880 C.3   414  GLN414      0.0905
     16  CD        26.6560    9.8150   24.1720 C.2   414  GLN414      0.2608
     17  OE1       26.9600    9.6940   22.9910 O.2   414  GLN414     -0.2717
     18  NE2       26.9010    8.8710   25.0550 N.am  414  GLN414     -0.0878
     19  N         27.7840   21.4460   22.1020 N.3   470  TYR470     -0.1241
     20  CA        28.6830   20.3100   22.2990 C.3   470  TYR470      0.1605
     21  C         29.8340   20.5010   21.3100 C.2   470  TYR470      0.2264
     22  O         29.6120   20.5580   20.0780 O.2   470  TYR470     -0.2867
     23  CB        27.9090   19.0040   22.0580 C.3   470  TYR470      0.0534
     24  CG        28.6160   17.7240   22.4290 C.ar  470  TYR470     -0.0201
     25  CD1       29.9350   17.4660   22.0230 C.ar  470  TYR470     -0.0009
     26  CD2       27.9920   16.7950   23.2270 C.ar  470  TYR470     -0.0009
     27  CE1       30.5950   16.3120   22.3890 C.ar  470  TYR470      0.0417
     28  CE2       28.6100   15.5850   23.5350 C.ar  470  TYR470      0.0417
     29  CZ        29.9190   15.3730   23.1370 C.ar  470  TYR470      0.1957
     30  OH        30.5450   14.2120   23.4890 O.3   470  TYR470     -0.2866
     31  N         39.1410   17.3940   20.5420 N.3   474  THR474     -0.1203
     32  CA        40.1070   16.3820   20.9190 C.3   474  THR474      0.1994
     33  C         41.2290   16.2170   19.8910 C.2   474  THR474      0.2617
     34  O         41.0690   16.5610   18.7290 O.2   474  THR474     -0.2717
     35  CB        39.4960   15.0080   21.2120 C.3   474  THR474      0.1784
     36  OG1       38.8540   14.5130   20.0490 O.3   474  THR474     -0.2211
     37  CG2       38.4500   15.0760   22.3040 C.3   474  THR474      0.0376
     38  N         42.3970   15.7620   20.3490 N.am  475  ASN475     -0.1974
     39  CA        43.5080   15.3700   19.4630 C.3   475  ASN475      0.1688
     40  C         43.9520   16.4850   18.5420 C.2   475  ASN475      0.2292
     41  O         44.0510   16.2860   17.3430 O.2   475  ASN475     -0.2864
     42  CB        43.1300   14.1580   18.6060 C.3   475  ASN475      0.1181
     43  CG        42.7230   12.9690   19.4720 C.2   475  ASN475      0.2629
     44  OD1       41.5690   12.8580   19.8730 O.2   475  ASN475     -0.2716
     45  ND2       43.6660   12.1210   19.8180 N.am  475  ASN475     -0.0877
     46  N         28.8710   20.9040   26.7660 N.3   494  VAL494     -0.1245
     47  CA        29.8400   19.8260   26.7620 C.3   494  VAL494      0.1561
     48  C         31.0590   20.2530   25.9830 C.2   494  VAL494      0.2260
     49  O         30.9550   20.6860   24.8290 O.2   494  VAL494     -0.2867
     50  CB        29.2540   18.5580   26.1240 C.3   494  VAL494      0.0252
     51  CG1       30.3050   17.4570   26.1360 C.3   494  VAL494      0.0019
     52  CG2       28.0180   18.1100   26.8880 C.3   494  VAL494      0.0019
     53  N         35.0390   18.9550   25.0050 N.3   496  ASP496     -0.1239
     54  CA        36.0170   17.8270   25.0590 C.3   496  ASP496      0.1674
     55  C         37.3820   18.3480   24.6260 C.2   496  ASP496      0.2266
     56  O         37.5550   18.7580   23.4890 O.2   496  ASP496     -0.2867
     57  CB        35.5410   16.6140   24.2360 C.3   496  ASP496      0.1410
     58  CG        36.2590   15.3150   24.6010 C.2   496  ASP496      0.3668
     59  OD1       37.3210   15.3910   25.2890 O.co2 496  ASP496     -0.2456
     60  OD2       35.6720   14.2220   24.3330 O.co2 496  ASP496     -0.2456
     61  N         40.2680   16.5910   25.2940 N.3   498  SER498     -0.1202
     62  CA        41.1400   15.4630   25.4680 C.3   498  SER498      0.2020
     63  C         42.2430   15.4730   24.4160 C.2   498  SER498      0.2618
     64  O         41.9930   15.9060   23.2820 O.2   498  SER498     -0.2717
     65  CB        40.3750   14.1340   25.3910 C.3   498  SER498      0.2103
     66  OG        39.2460   13.9990   26.2160 O.3   498  SER498     -0.2182
     67  N         43.4320   14.9990   24.7840 N.am  499  TYR499     -0.1975
     68  CA        44.5380   14.7690   23.8480 C.3   499  TYR499      0.1639
     69  C         45.0010   16.0440   23.1910 C.2   499  TYR499      0.2290
     70  O         45.1490   16.0900   21.9750 O.2   499  TYR499     -0.2864
     71  CB        44.2640   13.6820   22.8080 C.3   499  TYR499      0.0560
     72  CG        44.0500   12.2900   23.4190 C.ar  499  TYR499     -0.0198
     73  CD1       45.1270   11.4770   23.7670 C.ar  499  TYR499     -0.0009
     74  CD2       42.7790   11.8120   23.6340 C.ar  499  TYR499     -0.0009
     75  CE1       44.9360   10.2260   24.3470 C.ar  499  TYR499      0.0417
     76  CE2       42.5700   10.5830   24.2230 C.ar  499  TYR499      0.0417
     77  CZ        43.6500    9.8050   24.5590 C.ar  499  TYR499      0.1957
     78  OH        43.4080    8.5860   25.1220 O.3   499  TYR499     -0.2866
     79  N         29.6690   19.2760   31.3480 N.3   524  VAL524     -0.1245
     80  CA        30.6340   18.2080   31.1920 C.3   524  VAL524      0.1561
     81  C         31.8860   18.8070   30.5540 C.2   524  VAL524      0.2260
     82  O         31.8120   19.4700   29.5150 O.2   524  VAL524     -0.2867
     83  CB        30.0410   17.0700   30.3310 C.3   524  VAL524      0.0252
     84  CG1       31.0400   15.9370   30.1520 C.3   524  VAL524      0.0019
     85  CG2       28.8060   16.5030   30.9940 C.3   524  VAL524      0.0019
     86  N         35.8980   17.5000   29.6620 N.3   526  ASN526     -0.1240
     87  CA        36.8550   16.4210   29.5830 C.3   526  ASN526      0.1653
     88  C         38.2140   17.0120   29.2850 C.2   526  ASN526      0.2266
     89  O         38.4280   17.5380   28.2090 O.2   526  ASN526     -0.2867
     90  CB        36.4080   15.3930   28.5620 C.3   526  ASN526      0.1155
     91  CG        37.2580   14.1560   28.5830 C.2   526  ASN526      0.2627
     92  OD1       38.3610   14.2150   29.0810 O.2   526  ASN526     -0.2716
     93  ND2       36.7460   13.0090   28.0850 N.am  526  ASN526     -0.0877
     94  N         41.0220   15.0190   29.6390 N.3   528  SER528     -0.1202
     95  CA        41.8380   13.8290   29.7600 C.3   528  SER528      0.2020
     96  C         43.0520   13.8200   28.8490 C.2   528  SER528      0.2618
     97  O         43.0870   14.4370   27.7940 O.2   528  SER528     -0.2717
     98  CB        41.0360   12.5250   29.5380 C.3   528  SER528      0.2103
     99  OG        40.6220   12.4110   28.1810 O.3   528  SER528     -0.2182
    100  N         44.0550   13.0780   29.2870 N.am  529  HIS529     -0.1975
    101  CA        45.2530   12.8570   28.4710 C.3   529  HIS529      0.1656
    102  C         45.9110   14.1280   27.9610 C.2   529  HIS529      0.2291
    103  O         46.3690   14.2420   26.8380 O.2   529  HIS529     -0.2864
    104  CB        44.9210   11.8970   27.3390 C.3   529  HIS529      0.0771
    105  CG        44.4980   10.5650   27.8540 C.ar  529  HIS529      0.0820
    106  ND1       45.3710    9.6940   28.4790 N.ar  529  HIS529     -0.2267
    107  CD2       43.2760    9.9930   27.9230 C.ar  529  HIS529      0.1154
    108  CE1       44.7020    8.6280   28.8850 C.ar  529  HIS529      0.1986
    109  NE2       43.4330    8.7920   28.5630 N.ar  529  HIS529     -0.2212
    110  N         30.4280   17.3710   35.7380 N.3   548  GLU548     -0.1245
    111  CA        31.3190   16.2280   35.4870 C.3   548  GLU548      0.1567
    112  C         32.6430   16.7130   34.9320 C.2   548  GLU548      0.2260
    113  O         32.6810   17.5350   34.0170 O.2   548  GLU548     -0.2867
    114  CB        30.6900   15.2210   34.5100 C.3   548  GLU548      0.0388
    115  CG        31.6310   14.1190   34.0400 C.3   548  GLU548      0.1160
    116  CD        31.0400   13.1320   33.0470 C.2   548  GLU548      0.3649
    117  OE1       29.9380   13.3780   32.5230 O.co2 548  GLU548     -0.2457
    118  OE2       31.6780   12.0770   32.8100 O.co2 548  GLU548     -0.2457
    119  N         36.4550   15.2050   33.8060 N.3   550  VAL550     -0.1245
    120  CA        37.2800   14.0470   33.5090 C.3   550  VAL550      0.1561
    121  C         38.6850   14.5940   33.4720 C.2   550  VAL550      0.2260
    122  O         38.9990   15.4710   32.6640 O.2   550  VAL550     -0.2867
    123  CB        36.9100   13.3390   32.1950 C.3   550  VAL550      0.0252
    124  CG1       37.7420   12.0770   31.9770 C.3   550  VAL550      0.0019
    125  CG2       35.4600   12.9210   32.2170 C.3   550  VAL550      0.0019
    126  N         30.5570   14.2450   39.5480 N.3   579  ARG579     -0.1245
    127  CA        31.3670   13.1620   38.9610 C.3   579  ARG579      0.1563
    128  C         32.7630   13.6670   38.6420 C.2   579  ARG579      0.2260
    129  O         32.9410   14.6550   37.8850 O.2   579  ARG579     -0.2867
    130  CB        30.7110   12.6120   37.6830 C.3   579  ARG579      0.0307
    131  CG        31.3500   11.3100   37.2410 C.3   579  ARG579      0.0489
    132  CD        30.6710   10.5810   36.0640 C.3   579  ARG579      0.2205
    133  NE        31.4420    9.3950   35.6780 N.pl3 579  ARG579     -0.0865
    134  CZ        32.5910    9.3980   34.9930 C.cat 579  ARG579      0.5346
    135  NH1       33.1390   10.5230   34.5160 N.pl3 579  ARG579      0.1354
    136  NH2       33.1940    8.2300   34.7740 N.pl3 579  ARG579      0.1354
@<TRIPOS>BOND
     1    41    40    2
     2     1     2    1
     3    40    39    1
     4    42    39    1
     5    42    43    1
     6     2     3    1
     7     2     5    1
     8    34    33    2
     9     4     3    2
    10    39    38    1
    11    43    45   am
    12    43    44    2
    13     5     6    1
    14    33    38   am
    15    33    32    1
    16    36    35    1
    17    22    21    2
    18    31    32    1
    19     6     7    1
    20    32    35    1
    21    35    37    1
    22    21    20    1
    23     7     8    1
    24    10    11    1
    25    70    69    2
    26    25    27   ar
    27    25    24   ar
    28    23    20    1
    29    23    24    1
    30    19    20    1
    31    12    13    2
    32    12    11    1
    33    27    29   ar
    34    24    26   ar
    35    71    72    1
    36    71    68    1
    37    11    14    1
    38    17    16    2
    39     8     9    1
    40    29    30    1
    41    29    28   ar
    42    69    68    1
    43    26    28   ar
    44    64    63    2
    45    72    74   ar
    46    72    73   ar
    47    56    55    2
    48    74    76   ar
    49    73    75   ar
    50    68    67    1
    51    14    15    1
    52    16    15    1
    53    16    18   am
    54    76    77   ar
    55    57    58    1
    56    57    54    1
    57    60    58   ar
    58    75    77   ar
    59    63    67   am
    60    63    62    1
    61    77    78    1
    62    58    59   ar
    63    55    54    1
    64    49    48    2
    65    53    54    1
    66    61    62    1
    67    65    62    1
    68    65    66    1
    69    48    47    1
    70    50    51    1
    71    50    47    1
    72    50    52    1
    73    47    46    1
    74   103   102    2
    75   104   105    1
    76   104   101    1
    77    97    96    2
    78   105   107   ar
    79   105   106   ar
    80   107   109   ar
    81   102   101    1
    82    93    91   am
    83    99    98    1
    84    89    88    2
    85   101   100    1
    86   106   108   ar
    87    90    91    1
    88    90    87    1
    89   109   108   ar
    90    91    92    2
    91    96   100   am
    92    96    95    1
    93    88    87    1
    94    82    81    2
    95    98    95    1
    96    87    86    1
    97    94    95    1
    98    84    83    1
    99    83    85    1
   100    83    80    1
   101    81    80    1
   102    80    79    1
   103   124   123    1
   104   123   125    1
   105   123   120    1
   106   117   116   ar
   107   122   121    2
   108   118   116   ar
   109   116   115    1
   110   121   120    1
   111   120   119    1
   112   113   112    2
   113   115   114    1
   114   114   111    1
   115   135   134    1
   116   136   134    1
   117   112   111    1
   118   134   133    2
   119   111   110    1
   120   133   132    1
   121   132   131    1
   122   131   130    1
   123   130   127    1
   124   129   128    2
   125   128   127    1
   126   127   126    1
