@<TRIPOS>MOLECULE
tmp/4qc0A06.pdb
 105 101 0 0 0
SMALL
GASTEIGER

@<TRIPOS>ATOM
      1  N         29.6250    4.1700   51.7070 N.3   215  PHE215     -0.1227
      2  CA        30.8230    3.3410   51.5210 C.3   215  PHE215      0.1736
      3  C         30.9340    2.9320   50.0630 C.2   215  PHE215      0.2595
      4  O         29.9590    2.5180   49.4960 O.2   215  PHE215     -0.2718
      5  CB        30.8160    2.0700   52.3520 C.3   215  PHE215      0.0547
      6  CG        31.9850    1.1440   52.0510 C.ar  215  PHE215     -0.0202
      7  CD1       33.2780    1.5320   52.3220 C.ar  215  PHE215     -0.0042
      8  CD2       31.7700   -0.1180   51.5400 C.ar  215  PHE215     -0.0042
      9  CE1       34.3460    0.6770   52.0780 C.ar  215  PHE215     -0.0003
     10  CE2       32.8120   -0.9820   51.3030 C.ar  215  PHE215     -0.0003
     11  CZ        34.1140   -0.5890   51.5640 C.ar  215  PHE215     -0.0000
     12  N         32.1090    3.1010   49.4660 N.am  216  ASN216     -0.1974
     13  CA        32.3230    2.7170   48.0800 C.3   216  ASN216      0.1688
     14  C         31.3250    3.3090   47.0940 C.2   216  ASN216      0.2292
     15  O         31.0640    2.7240   46.0550 O.2   216  ASN216     -0.2864
     16  CB        32.3080    1.1860   47.9360 C.3   216  ASN216      0.1181
     17  CG        33.0070    0.7070   46.6620 C.2   216  ASN216      0.2629
     18  OD1       34.0810    1.2030   46.2790 O.2   216  ASN216     -0.2716
     19  ND2       32.4030   -0.2590   46.0120 N.am  216  ASN216     -0.0877
     20  N         22.2990   -4.7840   47.2250 N.3   300  PHE300     -0.1241
     21  CA        23.3890   -4.0940   47.9330 C.3   300  PHE300      0.1605
     22  C         23.1010   -3.6630   49.3890 C.2   300  PHE300      0.2264
     23  O         23.2340   -2.5200   49.7350 O.2   300  PHE300     -0.2867
     24  CB        23.9020   -2.9340   47.0640 C.3   300  PHE300      0.0534
     25  CG        24.3840   -3.3880   45.7030 C.ar  300  PHE300     -0.0203
     26  CD1       25.6990   -3.8260   45.5040 C.ar  300  PHE300     -0.0042
     27  CD2       23.5110   -3.3970   44.6110 C.ar  300  PHE300     -0.0042
     28  CE1       26.1230   -4.2610   44.2480 C.ar  300  PHE300     -0.0003
     29  CE2       23.9310   -3.8280   43.3700 C.ar  300  PHE300     -0.0003
     30  CZ        25.2290   -4.2700   43.1940 C.ar  300  PHE300     -0.0000
     31  N         24.6120   -5.8010   51.6840 N.3   302  TYR302     -0.1241
     32  CA        25.7170   -6.5280   52.2890 C.3   302  TYR302      0.1605
     33  C         26.3510   -5.7410   53.4290 C.2   302  TYR302      0.2264
     34  O         26.3840   -4.4940   53.4140 O.2   302  TYR302     -0.2867
     35  CB        26.7870   -6.7930   51.2570 C.3   302  TYR302      0.0534
     36  CG        27.5130   -5.5580   50.8200 C.ar  302  TYR302     -0.0201
     37  CD1       26.9580   -4.6980   49.8900 C.ar  302  TYR302     -0.0009
     38  CD2       28.7360   -5.2050   51.3980 C.ar  302  TYR302     -0.0009
     39  CE1       27.6150   -3.5550   49.4970 C.ar  302  TYR302      0.0417
     40  CE2       29.3970   -4.0510   51.0070 C.ar  302  TYR302      0.0417
     41  CZ        28.8230   -3.2520   50.0650 C.ar  302  TYR302      0.1957
     42  OH        29.4630   -2.1350   49.6800 O.3   302  TYR302     -0.2866
     43  N         32.7430   -6.1540   54.6390 N.3   305  GLY305     -0.1210
     44  CA        33.7250   -7.0840   55.1620 C.3   305  GLY305      0.1956
     45  C         33.2170   -8.4860   55.4850 C.2   305  GLY305      0.2613
     46  O         34.0140   -9.3700   55.7510 O.2   305  GLY305     -0.2717
     47  N         31.9120   -8.7180   55.5000 N.am  306  SER306     -0.1938
     48  CA        31.3930  -10.0580   55.7640 C.3   306  SER306      0.2055
     49  C         31.2860  -10.8970   54.5060 C.2   306  SER306      0.2643
     50  O         31.0360  -10.3600   53.4440 O.2   306  SER306     -0.2714
     51  CB        29.9700   -9.9680   56.2770 C.3   306  SER306      0.2130
     52  OG        29.1420   -9.6950   55.1610 O.3   306  SER306     -0.2179
     53  N         31.3980  -12.2140   54.6620 N.am  307  TYR307     -0.1973
     54  CA        31.1870  -13.2050   53.5990 C.3   307  TYR307      0.1639
     55  C         30.5310  -14.3900   54.2820 C.2   307  TYR307      0.2290
     56  O         31.1770  -15.4300   54.5060 O.2   307  TYR307     -0.2864
     57  CB        32.5200  -13.6380   52.9830 C.3   307  TYR307      0.0560
     58  CG        32.4890  -14.4150   51.6370 C.ar  307  TYR307     -0.0198
     59  CD1       31.3460  -14.4670   50.8060 C.ar  307  TYR307     -0.0009
     60  CD2       33.6440  -15.0400   51.1780 C.ar  307  TYR307     -0.0009
     61  CE1       31.3750  -15.1460   49.5860 C.ar  307  TYR307      0.0417
     62  CE2       33.6800  -15.7030   49.9720 C.ar  307  TYR307      0.0417
     63  CZ        32.5570  -15.7590   49.1740 C.ar  307  TYR307      0.1957
     64  OH        32.6490  -16.4210   47.9770 O.3   307  TYR307     -0.2866
     65  N         24.1390   -8.4410   45.5170 N.3   330  GLY330     -0.1225
     66  CA        25.0580   -7.7800   46.4490 C.3   330  GLY330      0.1811
     67  C         24.7080   -7.9470   47.9010 C.2   330  GLY330      0.2280
     68  O         24.9460   -7.0520   48.7060 O.2   330  GLY330     -0.2866
     69  N         25.9740  -10.8800   49.3640 N.3   332  VAL332     -0.1245
     70  CA        27.3290  -11.4750   49.5840 C.3   332  VAL332      0.1561
     71  C         27.3100  -12.7120   50.5250 C.2   332  VAL332      0.2260
     72  O         27.2520  -12.5770   51.7410 O.2   332  VAL332     -0.2867
     73  CB        28.4140  -10.4590   50.0170 C.3   332  VAL332      0.0252
     74  CG1       29.8060  -11.0930   50.0360 C.3   332  VAL332      0.0019
     75  CG2       28.4450   -9.2540   49.0730 C.3   332  VAL332      0.0019
     76  N         25.9350  -10.9890   41.4940 N.3   357  ILE357     -0.1245
     77  CA        26.9630  -10.2420   42.2300 C.3   357  ILE357      0.1561
     78  C         26.8920  -10.5230   43.7130 C.2   357  ILE357      0.2260
     79  O         26.7730   -9.6110   44.5110 O.2   357  ILE357     -0.2867
     80  CB        26.8610   -8.6950   42.0200 C.3   357  ILE357      0.0252
     81  CG1       26.6960   -8.3460   40.5420 C.3   357  ILE357      0.0019
     82  CG2       28.0890   -8.0500   42.5910 C.3   357  ILE357      0.0019
     83  CD1       26.7340   -6.8780   40.2190 C.3   357  ILE357      0.0001
     84  N         29.0300  -13.3090   44.8420 N.3   359  PHE359     -0.1241
     85  CA        30.1920  -14.1890   45.0040 C.3   359  PHE359      0.1605
     86  C         29.8130  -15.5750   45.5180 C.2   359  PHE359      0.2264
     87  O         30.5050  -16.1620   46.3440 O.2   359  PHE359     -0.2867
     88  CB        31.2210  -13.5280   45.9030 C.3   359  PHE359      0.0534
     89  CG        31.7560  -12.2700   45.3290 C.ar  359  PHE359     -0.0203
     90  CD1       32.7740  -12.3020   44.3890 C.ar  359  PHE359     -0.0042
     91  CD2       31.2280  -11.0540   45.6990 C.ar  359  PHE359     -0.0042
     92  CE1       33.2510  -11.1320   43.8270 C.ar  359  PHE359     -0.0003
     93  CE2       31.7290   -9.8880   45.1790 C.ar  359  PHE359     -0.0003
     94  CZ        32.7370   -9.9150   44.2320 C.ar  359  PHE359     -0.0000
     95  N         30.7000  -16.7850   41.7800 N.3   383  ARG383     -0.1245
     96  CA        31.8830  -17.6540   41.8010 C.3   383  ARG383      0.1563
     97  C         31.5290  -19.1090   41.4690 C.2   383  ARG383      0.2260
     98  O         32.2040  -20.0320   41.8940 O.2   383  ARG383     -0.2867
     99  CB        32.5210  -17.5900   43.2020 C.3   383  ARG383      0.0307
    100  CG        33.6440  -16.5730   43.3330 C.3   383  ARG383      0.0489
    101  CD        33.9260  -16.3130   44.8040 C.3   383  ARG383      0.2205
    102  NE        35.1240  -15.4930   45.0140 N.pl3 383  ARG383     -0.0865
    103  CZ        35.8490  -15.4610   46.1390 C.cat 383  ARG383      0.5346
    104  NH1       36.9370  -14.6840   46.1940 N.pl3 383  ARG383      0.1354
    105  NH2       35.5100  -16.2080   47.1940 N.pl3 383  ARG383      0.1354
@<TRIPOS>BOND
     1    83    81    1
     2    81    80    1
     3    97    96    1
     4    97    98    2
     5    76    77    1
     6    95    96    1
     7    96    99    1
     8    80    77    1
     9    80    82    1
    10    77    78    1
    11    30    29   ar
    12    30    28   ar
    13    99   100    1
    14   100   101    1
    15    29    27   ar
    16    78    79    2
    17    92    94   ar
    18    92    90   ar
    19    94    93   ar
    20    28    26   ar
    21    90    89   ar
    22    27    25   ar
    23   101   102    1
    24    84    85    1
    25    85    86    1
    26    85    88    1
    27   102   103    2
    28    93    91   ar
    29    89    91   ar
    30    89    88    1
    31    26    25   ar
    32    65    66    1
    33    86    87    2
    34    25    24    1
    35    19    17   am
    36    15    14    2
    37   103   104    1
    38   103   105    1
    39    18    17    2
    40    66    67    1
    41    17    16    1
    42    24    21    1
    43    14    13    1
    44    20    21    1
    45    67    68    2
    46    21    22    1
    47    16    13    1
    48    64    63    1
    49    13    12    1
    50    75    73    1
    51    63    61   ar
    52    63    62   ar
    53    69    70    1
    54    22    23    2
    55    12     3   am
    56     4     3    2
    57    39    37   ar
    58    39    41   ar
    59    70    73    1
    60    70    71    1
    61    61    59   ar
    62    42    41    1
    63    37    36   ar
    64    62    60   ar
    65    73    74    1
    66     3     2    1
    67    41    40   ar
    68    71    72    2
    69    59    58   ar
    70    36    35    1
    71    36    38   ar
    72    40    38   ar
    73    60    58   ar
    74    35    32    1
    75    10     8   ar
    76    10    11   ar
    77     2     1    1
    78     2     5    1
    79     8     6   ar
    80    11     9   ar
    81    58    57    1
    82    31    32    1
    83     6     7   ar
    84     6     5    1
    85     9     7   ar
    86    32    33    1
    87    57    54    1
    88    34    33    2
    89    50    49    2
    90    54    55    1
    91    54    53    1
    92    55    56    2
    93    49    53   am
    94    49    48    1
    95    43    44    1
    96    52    51    1
    97    44    45    1
    98    45    47   am
    99    45    46    2
   100    47    48    1
   101    48    51    1
