@<TRIPOS>MOLECULE
tmp/4qc1A00.pdb
 162 161 0 0 0
SMALL
GASTEIGER

@<TRIPOS>ATOM
      1  N         14.6150   10.3210   -0.0920 N.3    24  TRP24      -0.1228
      2  CA        14.3100   11.6750   -0.6120 C.3    24  TRP24       0.1722
      3  C         13.1440   11.7930   -1.6220 C.2    24  TRP24       0.2437
      4  O         12.3950   12.7730   -1.6010 O.2    24  TRP24      -0.2733
      5  CB        15.5680   12.3400   -1.1950 C.3    24  TRP24       0.0563
      6  CG        16.2350   11.5490   -2.2750 C.ar   24  TRP24       0.0003
      7  CD1       17.1900   10.5740   -2.1200 C.ar   24  TRP24       0.0946
      8  CD2       15.9870   11.6420   -3.6950 C.ar   24  TRP24       0.0152
      9  NE1       17.5380   10.0580   -3.3510 N.ar   24  TRP24      -0.2442
     10  CE2       16.8420   10.7000   -4.3320 C.ar   24  TRP24       0.0810
     11  CE3       15.1270   12.4230   -4.4850 C.ar   24  TRP24       0.0012
     12  CZ2       16.8440   10.5030   -5.6980 C.ar   24  TRP24       0.0191
     13  CZ3       15.1390   12.2350   -5.8620 C.ar   24  TRP24       0.0001
     14  CH2       16.0080   11.2940   -6.4550 C.ar   24  TRP24       0.0015
     15  N         12.9280   10.8000   -2.4890 N.am   25  PRO25      -0.2718
     16  CA        11.7570   11.0340   -3.3910 C.3    25  PRO25       0.1535
     17  C         10.3890   10.8500   -2.7290 C.2    25  PRO25       0.2598
     18  O          9.3720   11.1670   -3.3680 O.2    25  PRO25      -0.2715
     19  CB        11.9250    9.9670   -4.4670 C.3    25  PRO25       0.0310
     20  CG        13.3010    9.3490   -4.2330 C.3    25  PRO25       0.0237
     21  CD        13.5590    9.5020   -2.7550 C.3    25  PRO25       0.0939
     22  N         10.3360   10.2600   -1.5240 N.am   26  PHE26      -0.1974
     23  CA         9.0880    9.7080   -0.9810 C.3    26  PHE26       0.1639
     24  C          8.5770   10.4010    0.2660 C.2    26  PHE26       0.2290
     25  O          7.5470   10.0220    0.8330 O.2    26  PHE26      -0.2864
     26  CB         9.2790    8.2140   -0.6550 C.3    26  PHE26       0.0560
     27  CG         9.8670    7.4540   -1.7800 C.ar   26  PHE26      -0.0200
     28  CD1        9.2060    7.4000   -2.9970 C.ar   26  PHE26      -0.0042
     29  CD2       11.1220    6.8920   -1.6850 C.ar   26  PHE26      -0.0042
     30  CE1        9.7490    6.7330   -4.0750 C.ar   26  PHE26      -0.0003
     31  CE2       11.7040    6.2660   -2.7760 C.ar   26  PHE26      -0.0003
     32  CZ        11.0000    6.1850   -3.9840 C.ar   26  PHE26      -0.0000
     33  N          3.8340   13.6460   -4.2830 N.3    30  VAL30      -0.1245
     34  CA         4.2550   14.1880   -5.5660 C.3    30  VAL30       0.1561
     35  C          3.3480   15.3990   -5.8530 C.2    30  VAL30       0.2260
     36  O          2.1310   15.3550   -5.6220 O.2    30  VAL30      -0.2867
     37  CB         4.1830   13.1570   -6.7230 C.3    30  VAL30       0.0252
     38  CG1        4.5130   13.8080   -8.0740 C.3    30  VAL30       0.0019
     39  CG2        5.1540   12.0240   -6.4640 C.3    30  VAL30       0.0019
     40  N          3.2370   20.2010  -10.8140 N.3    34  LEU34      -0.1231
     41  CA         4.5070   20.3530  -11.5190 C.3    34  LEU34       0.1693
     42  C          5.0490   19.0380  -12.1180 C.2    34  LEU34       0.2591
     43  O          6.1130   19.0080  -12.7580 O.2    34  LEU34      -0.2718
     44  CB         5.5250   21.0820  -10.6430 C.3    34  LEU34       0.0284
     45  CG         5.9380   20.4230   -9.3410 C.3    34  LEU34       0.0019
     46  CD1        7.3900   19.9510   -9.4270 C.3    34  LEU34       0.0001
     47  CD2        5.7400   21.3860   -8.1750 C.3    34  LEU34       0.0001
     48  N          4.3110   17.9490  -11.9330 N.am   35  VAL35      -0.1980
     49  CA         4.6240   16.7100  -12.6290 C.3    35  VAL35       0.1595
     50  C          3.3830   16.4050  -13.4500 C.2    35  VAL35       0.2287
     51  O          2.6260   15.4530  -13.1600 O.2    35  VAL35      -0.2864
     52  CB         4.9690   15.5640  -11.6640 C.3    35  VAL35       0.0276
     53  CG1        5.4570   14.3390  -12.4330 C.3    35  VAL35       0.0022
     54  CG2        6.0050   16.0180  -10.6580 C.3    35  VAL35       0.0022
     55  N          1.5800   12.9170  -14.1200 N.3    38  TYR38      -0.1241
     56  CA         1.7360   11.9420  -13.0360 C.3    38  TYR38       0.1605
     57  C          0.4180   11.2140  -12.8280 C.2    38  TYR38       0.2264
     58  O          0.3470    9.9710  -12.8530 O.2    38  TYR38      -0.2867
     59  CB         2.2200   12.5750  -11.7270 C.3    38  TYR38       0.0534
     60  CG         2.5880   11.5440  -10.6710 C.ar   38  TYR38      -0.0201
     61  CD1        3.8120   10.8870  -10.7050 C.ar   38  TYR38      -0.0009
     62  CD2        1.7070   11.2140   -9.6660 C.ar   38  TYR38      -0.0009
     63  CE1        4.1520    9.9470   -9.7400 C.ar   38  TYR38       0.0417
     64  CE2        2.0410   10.2750   -8.6820 C.ar   38  TYR38       0.0417
     65  CZ         3.2570    9.6430   -8.7380 C.ar   38  TYR38       0.1957
     66  OH         3.5570    8.7150   -7.7800 O.3    38  TYR38      -0.2866
     67  N         -2.2540   10.7950  -14.5690 N.3    40  LYS40      -0.1231
     68  CA        -2.8130    9.9380  -15.6050 C.3    40  LYS40       0.1693
     69  C         -2.1570    8.5710  -15.6570 C.2    40  LYS40       0.2591
     70  O         -2.7380    7.6470  -16.2160 O.2    40  LYS40      -0.2718
     71  CB        -2.8390   10.5970  -17.0090 C.3    40  LYS40       0.0285
     72  CG        -1.5330   11.0250  -17.6660 C.3    40  LYS40       0.0035
     73  CD        -1.8300   12.0810  -18.7520 C.3    40  LYS40       0.0206
     74  CE        -0.7080   12.2970  -19.7770 C.3    40  LYS40       0.1093
     75  NZ        -0.5090   11.1470  -20.7170 N.3    40  LYS40      -0.1314
     76  N         -0.9600    8.4400  -15.0900 N.am   41  VAL41      -0.1980
     77  CA        -0.2810    7.1590  -15.0220 C.3    41  VAL41       0.1595
     78  C         -0.6020    6.4890  -13.6560 C.2    41  VAL41       0.2287
     79  O         -0.7490    5.2670  -13.5720 O.2    41  VAL41      -0.2864
     80  CB         1.2590    7.3610  -15.1760 C.3    41  VAL41       0.0276
     81  CG1        2.0140    6.1150  -14.7710 C.3    41  VAL41       0.0022
     82  CG2        1.6550    7.7750  -16.6030 C.3    41  VAL41       0.0022
     83  N          6.4410    4.4720   -7.9140 N.3    77  CYS77      -0.1221
     84  CA         7.7540    4.9800   -8.3730 C.3    77  CYS77       0.1808
     85  C          8.2780    4.1380   -9.5340 C.2    77  CYS77       0.2601
     86  O          8.8630    4.6350  -10.4670 O.2    77  CYS77      -0.2717
     87  CB         8.7580    5.0170   -7.1720 C.3    77  CYS77       0.0970
     88  SG        10.4350    5.5010   -7.6290 S.3    77  CYS77      -0.0800
     89  N          8.1060    2.8200   -9.4490 N.am   78  GLU78      -0.1965
     90  CA         8.5500    1.9090  -10.5010 C.3    78  GLU78       0.1733
     91  C          7.6920    1.9880  -11.7750 C.2    78  GLU78       0.2617
     92  O          8.1950    1.8320  -12.8720 O.2    78  GLU78      -0.2715
     93  CB         8.5680    0.4730   -9.9480 C.3    78  GLU78       0.0429
     94  CG         9.3970   -0.4930  -10.8180 C.3    78  GLU78       0.1163
     95  CD         9.8620   -1.7370  -10.0950 C.2    78  GLU78       0.3649
     96  OE1        9.6490   -1.8370   -8.8430 O.co2  78  GLU78      -0.2457
     97  OE2       10.4570   -2.6020  -10.7900 O.co2  78  GLU78      -0.2457
     98  N          6.3930    2.2300  -11.6370 N.am   79  THR79      -0.1937
     99  CA         5.5360    2.4220  -12.7730 C.3    79  THR79       0.2028
    100  C          5.9300    3.7280  -13.4810 C.2    79  THR79       0.2642
    101  O          6.1020    3.7800  -14.6880 O.2    79  THR79      -0.2714
    102  CB         4.0790    2.5420  -12.3120 C.3    79  THR79       0.1808
    103  OG1        3.7620    1.3570  -11.6120 O.3    79  THR79      -0.2208
    104  CG2        3.1330    2.6980  -13.4800 C.3    79  THR79       0.0379
    105  N          6.1480    4.7650  -12.7060 N.am   80  PHE80      -0.1959
    106  CA         6.3470    6.0920  -13.3140 C.3    80  PHE80       0.1771
    107  C          7.7260    6.3530  -13.8910 C.2    80  PHE80       0.2620
    108  O          7.8520    6.9600  -14.9620 O.2    80  PHE80      -0.2715
    109  CB         6.0630    7.2150  -12.3310 C.3    80  PHE80       0.0574
    110  CG         5.8870    8.5690  -13.0400 C.ar   80  PHE80      -0.0200
    111  CD1        4.7900    8.7960  -13.8560 C.ar   80  PHE80      -0.0042
    112  CD2        6.8500    9.5520  -12.9600 C.ar   80  PHE80      -0.0042
    113  CE1        4.6310   10.0010  -14.5320 C.ar   80  PHE80      -0.0003
    114  CE2        6.6860   10.7810  -13.6270 C.ar   80  PHE80      -0.0003
    115  CZ         5.5700   10.9950  -14.4070 C.ar   80  PHE80      -0.0000
    116  N          8.7610    5.8910  -13.1850 N.am   81  ASN81      -0.1958
    117  CA        10.1550    6.2170  -13.4970 C.3    81  ASN81       0.1819
    118  C         10.9780    5.0830  -14.0620 C.2    81  ASN81       0.2621
    119  O         10.7950    3.9200  -13.7030 O.2    81  ASN81      -0.2715
    120  CB        10.8310    6.7090  -12.2030 C.3    81  ASN81       0.1195
    121  CG        10.1390    7.9630  -11.6220 C.2    81  ASN81       0.2630
    122  OD1       10.2990    9.0830  -12.1560 O.2    81  ASN81      -0.2716
    123  ND2        9.3880    7.7840  -10.5220 N.am   81  ASN81      -0.0877
    124  N         11.9480    5.4490  -14.9070 N.am   82  GLU82      -0.1963
    125  CA        12.9690    4.5180  -15.4030 C.3    82  GLU82       0.1733
    126  C         13.7630    3.9320  -14.2730 C.2    82  GLU82       0.2616
    127  O         14.1130    4.6360  -13.3330 O.2    82  GLU82      -0.2715
    128  CB        13.9240    5.2380  -16.3700 C.3    82  GLU82       0.0429
    129  CG        13.2570    5.6770  -17.6900 C.3    82  GLU82       0.1163
    130  CD        12.7860    4.5210  -18.6010 C.2    82  GLU82       0.3649
    131  OE1       13.1690    3.3520  -18.3780 O.co2  82  GLU82      -0.2457
    132  OE2       12.0260    4.7540  -19.5600 O.co2  82  GLU82      -0.2457
    133  N         14.0610    2.6380  -14.3500 N.am   83  ASP83      -0.1971
    134  CA        14.8320    2.0300  -13.2890 C.3    83  ASP83       0.1709
    135  C         16.2370    2.6520  -13.2770 C.2    83  ASP83       0.2293
    136  O         16.8320    2.8650  -12.2100 O.2    83  ASP83      -0.2864
    137  CB        14.9920    0.5240  -13.4910 C.3    83  ASP83       0.1436
    138  CG        13.6620   -0.2540  -13.4300 C.2    83  ASP83       0.3671
    139  OD1       12.6720    0.2910  -12.8610 O.co2  83  ASP83      -0.2456
    140  OD2       13.6680   -1.4440  -13.9250 O.co2  83  ASP83      -0.2456
    141  N         17.9120    5.4080  -13.1030 N.3    85  SER85      -0.1202
    142  CA        17.8780    6.8130  -12.7330 C.3    85  SER85       0.2020
    143  C         18.1540    6.7620  -11.2420 C.2    85  SER85       0.2619
    144  O         18.0620    5.6890  -10.6130 O.2    85  SER85      -0.2717
    145  CB        16.5100    7.4290  -12.9790 C.3    85  SER85       0.2103
    146  OG        15.5070    6.6610  -12.3080 O.3    85  SER85      -0.2182
    147  N         18.4710    7.9080  -10.6680 N.am   86  ASP86      -0.1959
    148  CA        18.6910    7.9970   -9.2390 C.3    86  ASP86       0.1840
    149  C         17.3670    7.7000   -8.5310 C.2    86  ASP86       0.2621
    150  O         17.3190    6.9600   -7.5580 O.2    86  ASP86      -0.2715
    151  CB        19.1400    9.4030   -8.8880 C.3    86  ASP86       0.1450
    152  CG        20.5960    9.7220   -9.3560 C.2    86  ASP86       0.3671
    153  OD1       21.3640    8.8150   -9.6990 O.co2  86  ASP86      -0.2456
    154  OD2       20.9550   10.9060   -9.3500 O.co2  86  ASP86      -0.2456
    155  N         16.2750    8.2930   -9.0080 N.am   87  ILE87      -0.1977
    156  CA        14.9850    8.0340   -8.3960 C.3    87  ILE87       0.1596
    157  C         14.5680    6.5490   -8.5400 C.2    87  ILE87       0.2287
    158  O         14.0760    5.9660   -7.5840 O.2    87  ILE87      -0.2864
    159  CB        13.8900    9.0080   -8.8960 C.3    87  ILE87       0.0276
    160  CG1       12.6640    8.8810   -7.9950 C.3    87  ILE87       0.0022
    161  CG2       13.4990    8.7800  -10.3610 C.3    87  ILE87       0.0022
    162  CD1       11.5520    9.8800   -8.2260 C.3    87  ILE87       0.0001
@<TRIPOS>BOND
     1    75    74    1
     2    74    73    1
     3   132   130   ar
     4    73    72    1
     5   130   131   ar
     6   130   129    1
     7   129   128    1
     8    72    71    1
     9    71    68    1
    10    82    80    1
    11   128   125    1
    12    70    69    2
    13    69    68    1
    14    69    76   am
    15    68    67    1
    16   125   124    1
    17   125   126    1
    18    80    77    1
    19    80    81    1
    20    76    77    1
    21    77    78    1
    22   108   107    2
    23   124   118   am
    24   101   100    2
    25   113   115   ar
    26   113   111   ar
    27   115   114   ar
    28   133   126   am
    29   133   134    1
    30   126   127    2
    31    55    56    1
    32   118   119    2
    33   118   117    1
    34   140   138   ar
    35   107   106    1
    36   107   116   am
    37   111   110   ar
    38    78    79    2
    39   114   112   ar
    40   117   116    1
    41   117   120    1
    42   137   138    1
    43   137   134    1
    44   100    99    1
    45   100   105   am
    46   104   102    1
    47    50    51    2
    48    50    49    1
    49   138   139   ar
    50   106   105    1
    51   106   109    1
    52   134   135    1
    53   135   136    2
    54   141   142    1
    55   110   112   ar
    56   110   109    1
    57    56    57    1
    58    56    59    1
    59   145   142    1
    60   145   146    1
    61    92    91    2
    62    58    57    2
    63    99   102    1
    64    99    98    1
    65    43    42    2
    66   142   143    1
    67    49    48    1
    68    49    52    1
    69    53    52    1
    70   102   103    1
    71   120   121    1
    72   122   121    2
    73    42    48   am
    74    42    41    1
    75    91    98   am
    76    91    90    1
    77    59    60    1
    78    52    54    1
    79   121   123   am
    80    41    40    1
    81    41    44    1
    82   143   147   am
    83   143   144    2
    84    94    95    1
    85    94    93    1
    86    97    95   ar
    87    61    60   ar
    88    61    63   ar
    89    60    62   ar
    90   147   148    1
    91    44    45    1
    92    90    93    1
    93    90    89    1
    94    86    85    2
    95   161   159    1
    96    95    96   ar
    97    63    65   ar
    98   153   152   ar
    99    62    64   ar
   100    85    89   am
   101    85    84    1
   102    46    45    1
   103   152   154   ar
   104   152   151    1
   105    45    47    1
   106   148   151    1
   107   148   149    1
   108   155   149   am
   109   155   156    1
   110   159   156    1
   111   159   160    1
   112    65    64   ar
   113    65    66    1
   114   157   156    1
   115   157   158    2
   116   149   150    2
   117    84    83    1
   118    84    87    1
   119   162   160    1
   120    38    37    1
   121    88    87    1
   122    37    39    1
   123    37    34    1
   124    14    13   ar
   125    14    12   ar
   126    13    11   ar
   127    35    36    2
   128    35    34    1
   129    12    10   ar
   130    34    33    1
   131    11     8   ar
   132    19    20    1
   133    19    16    1
   134    10     8   ar
   135    10     9   ar
   136    20    21    1
   137    30    32   ar
   138    30    28   ar
   139    32    31   ar
   140     8     6   ar
   141    16    17    1
   142    16    15    1
   143    18    17    2
   144     9     7   ar
   145    28    27   ar
   146    31    29   ar
   147    21    15    1
   148    17    22   am
   149    15     3   am
   150     6     7   ar
   151     6     5    1
   152    27    29   ar
   153    27    26    1
   154     3     4    2
   155     3     2    1
   156    22    23    1
   157     5     2    1
   158    23    26    1
   159    23    24    1
   160     2     1    1
   161    24    25    2
