@<TRIPOS>MOLECULE
tmp/4qc2B00.pdb
 123 118 0 0 0
SMALL
GASTEIGER

@<TRIPOS>ATOM
      1  N         60.1390   22.2520   82.4000 N.3    12  TYR12      -0.1227
      2  CA        59.3170   23.4900   82.5200 C.3    12  TYR12       0.1736
      3  C         59.1710   23.7420   84.0010 C.2    12  TYR12       0.2595
      4  O         58.7350   22.8490   84.7410 O.2    12  TYR12      -0.2718
      5  CB        57.9400   23.3280   81.8530 C.3    12  TYR12       0.0548
      6  CG        57.9810   23.2240   80.3260 C.ar   12  TYR12      -0.0200
      7  CD1       58.2720   24.3410   79.5390 C.ar   12  TYR12      -0.0009
      8  CD2       57.6920   22.0040   79.6820 C.ar   12  TYR12      -0.0009
      9  CE1       58.2890   24.2610   78.1430 C.ar   12  TYR12       0.0417
     10  CE2       57.7200   21.8870   78.2910 C.ar   12  TYR12       0.0417
     11  CZ        58.0320   23.0040   77.5100 C.ar   12  TYR12       0.1957
     12  OH        58.0540   22.8470   76.1040 O.3    12  TYR12      -0.2866
     13  N         59.5820   24.9250   84.4380 N.am   13  LYS13      -0.1980
     14  CA        59.8030   25.1760   85.8790 C.3    13  LYS13       0.1596
     15  C         60.8770   24.2650   86.4420 C.2    13  LYS13       0.2287
     16  O         62.0560   24.6490   86.5380 O.2    13  LYS13      -0.2864
     17  CB        58.5080   25.0580   86.7050 C.3    13  LYS13       0.0298
     18  CG        57.7600   26.3710   86.6620 C.3    13  LYS13       0.0038
     19  CD        58.3560   27.2150   85.5350 C.3    13  LYS13       0.0206
     20  CE        58.3160   28.7010   85.8200 C.3    13  LYS13       0.1093
     21  NZ        56.9160   29.1850   85.6920 N.3    13  LYS13      -0.1314
     22  N         59.6950   20.5760   86.3270 N.3    15  ARG15      -0.1245
     23  CA        59.1580   19.3160   85.8400 C.3    15  ARG15       0.1563
     24  C         59.9940   18.7900   84.6570 C.2    15  ARG15       0.2260
     25  O         59.9800   19.3620   83.5620 O.2    15  ARG15      -0.2867
     26  CB        57.6930   19.5040   85.4690 C.3    15  ARG15       0.0307
     27  CG        56.8370   18.3140   85.8050 C.3    15  ARG15       0.0489
     28  CD        55.4650   18.4460   85.1860 C.3    15  ARG15       0.2205
     29  NE        55.1810   17.1490   84.6050 N.pl3  15  ARG15      -0.0865
     30  CZ        54.3350   16.9130   83.6110 C.cat  15  ARG15       0.5346
     31  NH1       53.6200   17.9050   83.0670 N.pl3  15  ARG15       0.1354
     32  NH2       54.2070   15.6580   83.1680 N.pl3  15  ARG15       0.1354
     33  N         60.2980   17.0330   81.8110 N.3    17  VAL17      -0.1245
     34  CA        59.3280   16.3820   80.9050 C.3    17  VAL17       0.1561
     35  C         60.0390   15.4820   79.8590 C.2    17  VAL17       0.2260
     36  O         59.4590   14.5050   79.3640 O.2    17  VAL17      -0.2867
     37  CB        58.3220   17.3830   80.2860 C.3    17  VAL17       0.0252
     38  CG1       57.5860   18.1700   81.3880 C.3    17  VAL17       0.0019
     39  CG2       59.0340   18.3600   79.3680 C.3    17  VAL17       0.0019
     40  N         50.1080    9.8100   77.4120 N.3    37  ASN37      -0.1225
     41  CA        49.8670   11.2430   77.3280 C.3    37  ASN37       0.1785
     42  C         50.8000   11.9510   78.2870 C.2    37  ASN37       0.2598
     43  O         50.8650   11.5510   79.4570 O.2    37  ASN37      -0.2718
     44  CB        48.4280   11.5610   77.7060 C.3    37  ASN37       0.1169
     45  CG        47.4510   11.0010   76.7360 C.2    37  ASN37       0.2627
     46  OD1       47.7720   10.8290   75.5550 O.2    37  ASN37      -0.2716
     47  ND2       46.2260   10.7450   77.2040 N.am   37  ASN37      -0.0877
     48  N         51.5020   12.9840   77.8070 N.am   38  GLY38      -0.1942
     49  CA        52.3890   13.7620   78.6690 C.3    38  GLY38       0.2014
     50  C         53.7840   13.2000   78.8900 C.2    38  GLY38       0.2639
     51  O         54.5850   13.8020   79.6290 O.2    38  GLY38      -0.2714
     52  N         54.0800   12.0630   78.2640 N.am   39  ALA39      -0.1963
     53  CA        55.3770   11.3690   78.4430 C.3    39  ALA39       0.1728
     54  C         56.5420   12.2130   77.8880 C.2    39  ALA39       0.2617
     55  O         57.6790   12.0820   78.3420 O.2    39  ALA39      -0.2715
     56  CB        55.3470    9.9910   77.7870 C.3    39  ALA39       0.0334
     57  N         56.2430   13.1010   76.9360 N.am   40  GLY40      -0.1940
     58  CA        57.2680   14.0000   76.3760 C.3    40  GLY40       0.2014
     59  C         57.5750   13.8610   74.8990 C.2    40  GLY40       0.2639
     60  O         58.6180   14.2880   74.4580 O.2    40  GLY40      -0.2714
     61  N         56.6700   13.2530   74.1350 N.am   41  LYS41      -0.1963
     62  CA        56.9040   13.0050   72.7100 C.3    41  LYS41       0.1728
     63  C         56.9080   14.2790   71.8460 C.2    41  LYS41       0.2617
     64  O         57.8980   14.5470   71.1160 O.2    41  LYS41      -0.2715
     65  CB        55.8940   11.9680   72.1630 C.3    41  LYS41       0.0311
     66  CG        55.6660   10.8040   73.1230 C.3    41  LYS41       0.0038
     67  CD        54.6040    9.8550   72.6180 C.3    41  LYS41       0.0206
     68  CE        53.2120   10.4180   72.8290 C.3    41  LYS41       0.1093
     69  NZ        52.9650   10.8040   74.2490 N.3    41  LYS41      -0.1314
     70  N         55.8390   15.0850   71.9630 N.am   42  THR42      -0.1937
     71  CA        55.7140   16.3430   71.2310 C.3    42  THR42       0.2028
     72  C         56.9110   17.1930   71.6090 C.2    42  THR42       0.2642
     73  O         57.5930   17.6220   70.6750 O.2    42  THR42      -0.2714
     74  CB        54.3480   17.0510   71.4390 C.3    42  THR42       0.1808
     75  OG1       53.2660   16.3030   70.7910 O.3    42  THR42      -0.2208
     76  CG2       54.3990   18.5350   70.9590 C.3    42  THR42       0.0379
     77  N         57.2180   17.3360   72.9230 N.am   43  THR43      -0.1950
     78  CA        58.4300   18.0580   73.3940 C.3    43  THR43       0.1897
     79  C         59.7550   17.6210   72.7170 C.2    43  THR43       0.2313
     80  O         60.6380   18.4430   72.4280 O.2    43  THR43      -0.2863
     81  CB        58.6850   17.8830   74.9170 C.3    43  THR43       0.1794
     82  OG1       57.4330   18.0230   75.6210 O.3    43  THR43      -0.2208
     83  CG2       59.6980   18.9640   75.4140 C.3    43  THR43       0.0378
     84  N         59.6470   18.9190   69.2280 N.3    46  TYR46      -0.1241
     85  CA        60.0030   20.3360   69.2560 C.3    46  TYR46       0.1605
     86  C         61.4920   20.5550   69.2200 C.2    46  TYR46       0.2264
     87  O         61.9750   21.4550   68.4840 O.2    46  TYR46      -0.2867
     88  CB        59.4130   21.0820   70.4710 C.3    46  TYR46       0.0534
     89  CG        57.9030   21.3790   70.4540 C.ar   46  TYR46      -0.0201
     90  CD1       57.1450   21.3790   69.2620 C.ar   46  TYR46      -0.0009
     91  CD2       57.2270   21.6440   71.6670 C.ar   46  TYR46      -0.0009
     92  CE1       55.7840   21.6450   69.2840 C.ar   46  TYR46       0.0417
     93  CE2       55.8800   21.9340   71.6920 C.ar   46  TYR46       0.0417
     94  CZ        55.1740   21.9620   70.4960 C.ar   46  TYR46       0.1957
     95  OH        53.8580   22.2240   70.5300 O.3    46  TYR46      -0.2866
     96  N         50.9570   18.3080   65.7770 N.3    84  GLN84      -0.1245
     97  CA        49.8010   17.5880   66.3380 C.3    84  GLN84       0.1566
     98  C         48.5010   18.3650   66.2300 C.2    84  GLN84       0.2260
     99  O         47.4580   17.7930   65.8910 O.2    84  GLN84      -0.2867
    100  CB        50.0750   17.3260   67.8140 C.3    84  GLN84       0.0367
    101  CG        49.0510   16.4400   68.5330 C.3    84  GLN84       0.0905
    102  CD        49.5410   16.0050   69.9180 C.2    84  GLN84       0.2608
    103  OE1       50.6210   16.3670   70.3120 O.2    84  GLN84      -0.2717
    104  NE2       48.7390   15.2080   70.6360 N.am   84  GLN84      -0.0878
    105  N         51.0220   12.4860   65.5530 N.3   162  GLU162     -0.1245
    106  CA        49.6340   12.0030   65.5970 C.3   162  GLU162      0.1567
    107  C         48.8780   12.2570   64.2840 C.2   162  GLU162      0.2260
    108  O         47.7660   12.8360   64.2560 O.2   162  GLU162     -0.2867
    109  CB        48.8850   12.3950   66.9170 C.3   162  GLU162      0.0388
    110  CG        49.8190   12.1480   68.1440 C.3   162  GLU162      0.1160
    111  CD        49.1860   12.0620   69.5390 C.2   162  GLU162      0.3649
    112  OE1       47.9590   11.9460   69.6230 O.co2 162  GLU162     -0.2457
    113  OE2       49.9470   12.1020   70.5820 O.co2 162  GLU162     -0.2457
    114  N         48.4570    7.1850   68.8520 N.3   194  HIS194     -0.1241
    115  CA        47.8980    6.2530   69.8270 C.3   194  HIS194      0.1621
    116  C         47.0110    5.2260   69.1810 C.2   194  HIS194      0.2264
    117  O         46.3380    4.4740   69.8850 O.2   194  HIS194     -0.2867
    118  CB        47.1180    6.9990   70.9150 C.3   194  HIS194      0.0745
    119  CG        47.9830    7.8580   71.8030 C.ar  194  HIS194      0.0817
    120  ND1       48.9740    7.3430   72.5720 N.ar  194  HIS194     -0.2268
    121  CD2       47.9940    9.2390   72.0180 C.ar  194  HIS194      0.1154
    122  CE1       49.5800    8.3160   73.2570 C.ar  194  HIS194      0.1986
    123  NE2       48.9770    9.4980   72.9250 N.ar  194  HIS194     -0.2212
@<TRIPOS>BOND
     1   108   107    2
     2   107   106    1
     3   105   106    1
     4   106   109    1
     5    96    97    1
     6    99    98    2
     7    98    97    1
     8    97   100    1
     9   109   110    1
    10   100   101    1
    11   110   111    1
    12    87    86    2
    13   101   102    1
    14   114   115    1
    15   116   115    1
    16   116   117    2
    17    86    85    1
    18    84    85    1
    19    85    88    1
    20    90    92   ar
    21    90    89   ar
    22    92    94   ar
    23   111   112   ar
    24   111   113   ar
    25   115   118    1
    26   102   103    2
    27   102   104   am
    28    89    88    1
    29    89    91   ar
    30    94    95    1
    31    94    93   ar
    32    73    72    2
    33    75    74    1
    34   118   119    1
    35    76    74    1
    36    64    63    2
    37    71    74    1
    38    71    72    1
    39    71    70    1
    40    72    77   am
    41    91    93   ar
    42   119   121   ar
    43   119   120   ar
    44    63    70   am
    45    63    62    1
    46   121   123   ar
    47    65    62    1
    48    65    66    1
    49    80    79    2
    50   120   122   ar
    51    67    68    1
    52    67    66    1
    53    62    61    1
    54    79    78    1
    55    68    69    1
    56    77    78    1
    57   123   122   ar
    58    78    81    1
    59    61    59   am
    60    60    59    2
    61    59    58    1
    62    81    83    1
    63    81    82    1
    64    46    45    2
    65    12    11    1
    66    58    57    1
    67    45    47   am
    68    45    44    1
    69    57    54   am
    70    41    40    1
    71    41    44    1
    72    41    42    1
    73    11     9   ar
    74    11    10   ar
    75    56    53    1
    76    48    42   am
    77    48    49    1
    78    54    55    2
    79    54    53    1
    80     9     7   ar
    81    52    53    1
    82    52    50   am
    83    42    43    2
    84    10     8   ar
    85    49    50    1
    86    50    51    2
    87    36    35    2
    88    39    37    1
    89     7     6   ar
    90     8     6   ar
    91    35    34    1
    92    37    34    1
    93    37    38    1
    94     6     5    1
    95    34    33    1
    96     5     2    1
    97     1     2    1
    98     2     3    1
    99    31    30    1
   100    32    30    1
   101    25    24    2
   102    30    29    2
   103     3    13   am
   104     3     4    2
   105    13    14    1
   106    29    28    1
   107    24    23    1
   108    28    27    1
   109    26    27    1
   110    26    23    1
   111    19    20    1
   112    19    18    1
   113    21    20    1
   114    23    22    1
   115    14    15    1
   116    14    17    1
   117    15    16    2
   118    18    17    1
