@<TRIPOS>MOLECULE
tmp/4qc6A00.pdb
 248 248 0 0 0
SMALL
GASTEIGER

@<TRIPOS>ATOM
      1  N        -11.8300  -15.3860   35.0890 N.3    33  PHE33      -0.1227
      2  CA       -11.3180  -16.6730   34.6330 C.3    33  PHE33       0.1736
      3  C         -9.9950  -16.5960   33.8780 C.2    33  PHE33       0.2595
      4  O         -9.4440  -17.6260   33.4920 O.2    33  PHE33      -0.2718
      5  CB       -12.3560  -17.3460   33.7360 C.3    33  PHE33       0.0547
      6  CG       -13.6550  -17.5940   34.4140 C.ar   33  PHE33      -0.0202
      7  CD1      -13.7890  -18.6520   35.2840 C.ar   33  PHE33      -0.0042
      8  CD2      -14.7400  -16.7590   34.2000 C.ar   33  PHE33      -0.0042
      9  CE1      -14.9970  -18.8930   35.9300 C.ar   33  PHE33      -0.0003
     10  CE2      -15.9400  -16.9870   34.8390 C.ar   33  PHE33      -0.0003
     11  CZ       -16.0690  -18.0530   35.7080 C.ar   33  PHE33      -0.0000
     12  N         -9.5090  -15.3880   33.6200 N.am   34  TYR34      -0.1962
     13  CA        -8.2410  -15.2140   32.9120 C.3    34  TYR34       0.1771
     14  C         -7.5860  -13.9570   33.4550 C.2    34  TYR34       0.2620
     15  O         -8.1370  -12.8650   33.3060 O.2    34  TYR34      -0.2715
     16  CB        -8.4460  -15.1160   31.3960 C.3    34  TYR34       0.0574
     17  CG        -7.1920  -15.3920   30.5940 C.ar   34  TYR34      -0.0198
     18  CD1       -6.2790  -14.3850   30.2940 C.ar   34  TYR34      -0.0009
     19  CD2       -6.9180  -16.6800   30.1280 C.ar   34  TYR34      -0.0009
     20  CE1       -5.1240  -14.6660   29.5460 C.ar   34  TYR34       0.0417
     21  CE2       -5.7880  -16.9650   29.4030 C.ar   34  TYR34       0.0417
     22  CZ        -4.8940  -15.9710   29.1100 C.ar   34  TYR34       0.1957
     23  OH        -3.7790  -16.3070   28.3680 O.3    34  TYR34      -0.2866
     24  N         -6.4250  -14.1080   34.0900 N.am   35  GLY35      -0.1954
     25  CA        -5.6850  -12.9750   34.6270 C.3    35  GLY35       0.1869
     26  C         -6.0490  -12.6400   36.0670 C.2    35  GLY35       0.2309
     27  O         -5.1730  -12.5840   36.9360 O.2    35  GLY35      -0.2863
     28  N         -6.2290   -7.4260   38.2250 N.3    39  LYS39      -0.1245
     29  CA        -5.3470   -6.8540   37.2010 C.3    39  LYS39       0.1561
     30  C         -5.8780   -5.4960   36.7640 C.2    39  LYS39       0.2260
     31  O         -7.0800   -5.3450   36.5540 O.2    39  LYS39      -0.2867
     32  CB        -5.2480   -7.7780   35.9880 C.3    39  LYS39       0.0271
     33  CG        -4.6540   -9.1450   36.2730 C.3    39  LYS39       0.0035
     34  CD        -3.1340   -9.1180   36.2720 C.3    39  LYS39       0.0206
     35  CE        -2.5720  -10.4580   36.7130 C.3    39  LYS39       0.1093
     36  NZ        -1.1080  -10.5780   36.4830 N.3    39  LYS39      -0.1314
     37  N          2.9870   -6.1720   28.2370 N.3    49  HIS49      -0.1226
     38  CA         2.8380   -7.5520   28.6870 C.3    49  HIS49       0.1752
     39  C          2.7560   -8.5270   27.5080 C.2    49  HIS49       0.2596
     40  O          3.3880   -9.5880   27.5180 O.2    49  HIS49      -0.2718
     41  CB         1.5950   -7.6780   29.5740 C.3    49  HIS49       0.0759
     42  CG         1.5090   -8.9810   30.3060 C.ar   49  HIS49       0.0818
     43  ND1        2.4890   -9.4140   31.1740 N.ar   49  HIS49      -0.2268
     44  CD2        0.5590   -9.9490   30.3000 C.ar   49  HIS49       0.1154
     45  CE1        2.1460  -10.5880   31.6730 C.ar   49  HIS49       0.1986
     46  NE2        0.9800  -10.9350   31.1580 N.ar   49  HIS49      -0.2212
     47  N          1.9760   -8.1730   26.4970 N.am   50  TYR50      -0.1976
     48  CA         1.7100   -9.0930   25.3990 C.3    50  TYR50       0.1639
     49  C          2.6990   -8.9420   24.2490 C.2    50  TYR50       0.2290
     50  O          2.5060   -9.5250   23.1800 O.2    50  TYR50      -0.2864
     51  CB         0.2520   -8.9340   24.9390 C.3    50  TYR50       0.0560
     52  CG        -0.6630   -9.6780   25.8780 C.ar   50  TYR50      -0.0198
     53  CD1       -0.8620  -11.0430   25.7240 C.ar   50  TYR50      -0.0009
     54  CD2       -1.2820   -9.0420   26.9480 C.ar   50  TYR50      -0.0009
     55  CE1       -1.6530  -11.7540   26.5880 C.ar   50  TYR50       0.0417
     56  CE2       -2.0880   -9.7600   27.8290 C.ar   50  TYR50       0.0417
     57  CZ        -2.2690  -11.1140   27.6360 C.ar   50  TYR50       0.1957
     58  OH        -3.0570  -11.8510   28.4950 O.3    50  TYR50      -0.2866
     59  N          6.0920   -9.1720   25.5120 N.3    52  GLU52      -0.1231
     60  CA         7.2650   -9.7820   26.1330 C.3    52  GLU52       0.1684
     61  C          7.7450  -10.9680   25.2910 C.2    52  GLU52       0.2434
     62  O          6.9350  -11.7650   24.8110 O.2    52  GLU52      -0.2733
     63  CB         6.9580  -10.2250   27.5660 C.3    52  GLU52       0.0402
     64  CG         6.7490   -9.0360   28.4940 C.3    52  GLU52       0.1161
     65  CD         6.5120   -9.4050   29.9460 C.2    52  GLU52       0.3649
     66  OE1        6.0950   -8.5120   30.7080 O.co2  52  GLU52      -0.2457
     67  OE2        6.7570  -10.5590   30.3440 O.co2  52  GLU52      -0.2457
     68  N          9.0660  -11.0800   25.0930 N.am   53  PRO53      -0.2718
     69  CA         9.6010  -12.1600   24.2510 C.3    53  PRO53       0.1535
     70  C          9.6160  -13.5070   24.9550 C.2    53  PRO53       0.2598
     71  O          9.5680  -13.5740   26.1860 O.2    53  PRO53      -0.2715
     72  CB        11.0270  -11.6970   23.9510 C.3    53  PRO53       0.0310
     73  CG        11.3840  -10.8480   25.1350 C.3    53  PRO53       0.0237
     74  CD        10.1150  -10.1470   25.5340 C.3    53  PRO53       0.0939
     75  N          9.6910  -14.5610   24.1530 N.am   54  TRP54      -0.1974
     76  CA         9.6910  -15.9350   24.6290 C.3    54  TRP54       0.1640
     77  C         11.0170  -16.5910   24.2510 C.2    54  TRP54       0.2290
     78  O         11.5810  -16.2940   23.1980 O.2    54  TRP54      -0.2864
     79  CB         8.5180  -16.7240   24.0270 C.3    54  TRP54       0.0576
     80  CG         7.1520  -16.2610   24.4740 C.ar   54  TRP54       0.0006
     81  CD1        6.5900  -15.0300   24.2750 C.ar   54  TRP54       0.0946
     82  CD2        6.1670  -17.0390   25.1680 C.ar   54  TRP54       0.0152
     83  NE1        5.3310  -14.9920   24.8160 N.ar   54  TRP54      -0.2442
     84  CE2        5.0450  -16.2110   25.3700 C.ar   54  TRP54       0.0810
     85  CE3        6.1300  -18.3550   25.6420 C.ar   54  TRP54       0.0012
     86  CZ2        3.8990  -16.6520   26.0200 C.ar   54  TRP54       0.0191
     87  CZ3        4.9910  -18.7890   26.2980 C.ar   54  TRP54       0.0001
     88  CH2        3.8870  -17.9410   26.4740 C.ar   54  TRP54       0.0015
     89  N          1.0850  -15.9070   18.9960 N.3    60  ARG60      -0.1245
     90  CA         0.0240  -15.1320   19.6260 C.3    60  ARG60       0.1563
     91  C         -1.0500  -14.8940   18.5720 C.2    60  ARG60       0.2260
     92  O         -0.7240  -14.4330   17.4720 O.2    60  ARG60      -0.2867
     93  CB         0.5580  -13.8040   20.1560 C.3    60  ARG60       0.0307
     94  CG         1.7410  -13.9300   21.1040 C.3    60  ARG60       0.0489
     95  CD         2.2140  -12.5270   21.4650 C.3    60  ARG60       0.2205
     96  NE         3.5330  -12.4350   22.0870 N.pl3  60  ARG60      -0.0865
     97  CZ         4.6900  -12.4670   21.4270 C.cat  60  ARG60       0.5346
     98  NH1        4.7080  -12.6870   20.1140 N.pl3  60  ARG60       0.1354
     99  NH2        5.8400  -12.2920   22.0840 N.pl3  60  ARG60       0.1354
    100  N         -8.5250  -14.5190   22.2830 N.3    72  TYR72      -0.1241
    101  CA        -7.0750  -14.5090   22.1870 C.3    72  TYR72       0.1605
    102  C         -6.5210  -15.8690   22.5520 C.2    72  TYR72       0.2264
    103  O         -7.0260  -16.5090   23.4770 O.2    72  TYR72      -0.2867
    104  CB        -6.4800  -13.4530   23.1360 C.3    72  TYR72       0.0534
    105  CG        -4.9740  -13.5200   23.2640 C.ar   72  TYR72      -0.0201
    106  CD1       -4.1540  -12.9110   22.3200 C.ar   72  TYR72      -0.0009
    107  CD2       -4.3710  -14.2080   24.3120 C.ar   72  TYR72      -0.0009
    108  CE1       -2.7820  -12.9730   22.4210 C.ar   72  TYR72       0.0417
    109  CE2       -2.9890  -14.2860   24.4190 C.ar   72  TYR72       0.0417
    110  CZ        -2.2010  -13.6630   23.4640 C.ar   72  TYR72       0.1957
    111  OH        -0.8290  -13.7040   23.5450 O.3    72  TYR72      -0.2866
    112  N         -2.4620  -18.0020   22.9880 N.3    74  GLN74      -0.1245
    113  CA        -1.0320  -18.1350   22.7320 C.3    74  GLN74       0.1566
    114  C         -0.6980  -19.6240   22.7820 C.2    74  GLN74       0.2260
    115  O         -1.2340  -20.3890   23.5870 O.2    74  GLN74      -0.2867
    116  CB        -0.1670  -17.2970   23.6910 C.3    74  GLN74       0.0367
    117  CG        -0.5070  -17.4230   25.1400 C.3    74  GLN74       0.0905
    118  CD         0.1150  -16.3230   26.0040 C.2    74  GLN74       0.2608
    119  OE1        0.3350  -15.1880   25.5620 O.2    74  GLN74      -0.2717
    120  NE2        0.3770  -16.6570   27.2450 N.am   74  GLN74      -0.0878
    121  N          2.6380  -22.2410   22.4940 N.3    76  TYR76      -0.1241
    122  CA         4.0790  -22.1120   22.7160 C.3    76  TYR76       0.1605
    123  C          4.7750  -23.4690   22.8190 C.2    76  TYR76       0.2264
    124  O          4.2520  -24.4180   23.4150 O.2    76  TYR76      -0.2867
    125  CB         4.3540  -21.2790   23.9800 C.3    76  TYR76       0.0534
    126  CG         3.4600  -21.6440   25.1380 C.ar   76  TYR76      -0.0201
    127  CD1        2.2180  -21.0410   25.2880 C.ar   76  TYR76      -0.0009
    128  CD2        3.8440  -22.5990   26.0710 C.ar   76  TYR76      -0.0009
    129  CE1        1.3770  -21.3730   26.3310 C.ar   76  TYR76       0.0417
    130  CE2        3.0080  -22.9410   27.1290 C.ar   76  TYR76       0.0417
    131  CZ         1.7760  -22.3230   27.2510 C.ar   76  TYR76       0.1957
    132  OH         0.9440  -22.6680   28.2880 O.3    76  TYR76      -0.2866
    133  N          9.1750  -25.4580   27.2040 N.3    79  TYR79      -0.1241
    134  CA        10.5160  -25.0310   27.5860 C.3    79  TYR79       0.1605
    135  C         10.8000  -25.4100   29.0340 C.2    79  TYR79       0.2264
    136  O          9.8770  -25.7070   29.7980 O.2    79  TYR79      -0.2867
    137  CB        10.6970  -23.5200   27.3600 C.3    79  TYR79       0.0534
    138  CG         9.6360  -22.6060   27.9640 C.ar   79  TYR79      -0.0201
    139  CD1        8.4050  -22.4170   27.3350 C.ar   79  TYR79      -0.0009
    140  CD2        9.8850  -21.8960   29.1340 C.ar   79  TYR79      -0.0009
    141  CE1        7.4450  -21.5700   27.8690 C.ar   79  TYR79       0.0417
    142  CE2        8.9280  -21.0410   29.6800 C.ar   79  TYR79       0.0417
    143  CZ         7.7100  -20.8840   29.0420 C.ar   79  TYR79       0.1957
    144  OH         6.7570  -20.0360   29.5770 O.3    79  TYR79      -0.2866
    145  N         11.5910  -24.1970   32.0090 N.3    81  GLU81      -0.1231
    146  CA        10.8760  -23.6530   33.1620 C.3    81  GLU81       0.1699
    147  C          9.5760  -24.4070   33.4010 C.2    81  GLU81       0.2592
    148  O          9.2600  -24.7790   34.5340 O.2    81  GLU81      -0.2718
    149  CB        10.5710  -22.1620   32.9800 C.3    81  GLU81       0.0402
    150  CG         9.7550  -21.5790   34.1370 C.3    81  GLU81       0.1161
    151  CD         9.1740  -20.2040   33.8440 C.2    81  GLU81       0.3649
    152  OE1        9.6180  -19.5530   32.8760 O.co2  81  GLU81      -0.2457
    153  OE2        8.2660  -19.7760   34.5900 O.co2  81  GLU81      -0.2457
    154  N          8.8360  -24.6510   32.3230 N.am   82  LEU82      -0.1980
    155  CA         7.5350  -25.2960   32.4300 C.3    82  LEU82       0.1596
    156  C          7.6330  -26.8060   32.5950 C.2    82  LEU82       0.2287
    157  O          6.8460  -27.3870   33.3420 O.2    82  LEU82      -0.2864
    158  CB         6.6690  -24.9520   31.2230 C.3    82  LEU82       0.0297
    159  CG         6.2700  -23.4830   31.0700 C.3    82  LEU82       0.0022
    160  CD1        5.1660  -23.3540   30.0440 C.3    82  LEU82       0.0001
    161  CD2        5.8330  -22.8910   32.3920 C.3    82  LEU82       0.0001
    162  N         -0.7770  -24.3370   25.5290 N.3    98  MET98      -0.1182
    163  CA        -1.6250  -23.2860   24.9950 C.3    98  MET98       0.1917
    164  C         -2.4710  -22.6460   26.1000 C.2    98  MET98       0.2635
    165  O         -2.9470  -23.3240   27.0130 O.2    98  MET98      -0.2714
    166  CB        -2.4850  -23.8120   23.8190 C.2    98  MET98       0.0083
    167  CG        -3.3360  -25.0400   24.0580 C.2    98  MET98       0.0282
    168  SD        -3.9490  -25.8690   22.5400 S.3    98  MET98      -0.1125
    169  CE        -5.0330  -24.5510   21.9570 C.3    98  MET98       0.0742
    170  N         -2.5920  -21.3190   26.0220 N.am   99  ASP99      -0.1957
    171  CA        -3.4230  -20.5130   26.9160 C.3    99  ASP99       0.1840
    172  C         -4.4200  -19.7700   26.0350 C.2    99  ASP99       0.2621
    173  O         -4.0420  -19.3060   24.9650 O.2    99  ASP99      -0.2715
    174  CB        -2.6080  -19.4670   27.7170 C.3    99  ASP99       0.1450
    175  CG        -1.3510  -20.0140   28.3690 C.2    99  ASP99       0.3671
    176  OD1       -1.3740  -21.1270   28.9140 O.co2  99  ASP99      -0.2456
    177  OD2       -0.3340  -19.2840   28.3650 O.co2  99  ASP99      -0.2456
    178  N         -5.6630  -19.6060   26.4740 N.am  100  GLN100     -0.1977
    179  CA        -6.6420  -18.8990   25.6450 C.3   100  GLN100      0.1601
    180  C         -7.8250  -18.3790   26.4400 C.2   100  GLN100      0.2287
    181  O         -8.1510  -18.8980   27.5130 O.2   100  GLN100     -0.2864
    182  CB        -7.1540  -19.8040   24.5160 C.3   100  GLN100      0.0394
    183  CG        -7.7290  -21.1450   25.0030 C.3   100  GLN100      0.0908
    184  CD        -6.6510  -22.1980   25.2440 C.2   100  GLN100      0.2608
    185  OE1       -5.6880  -22.2930   24.4810 O.2   100  GLN100     -0.2717
    186  NE2       -6.8100  -22.9980   26.3030 N.am  100  GLN100     -0.0878
    187  N         -1.8580  -28.1470   29.0430 N.3   135  LEU135     -0.1231
    188  CA        -2.2620  -26.8790   29.6630 C.3   135  LEU135      0.1693
    189  C         -2.6130  -27.1080   31.1320 C.2   135  LEU135      0.2592
    190  O         -2.6210  -28.2540   31.6010 O.2   135  LEU135     -0.2718
    191  CB        -3.4070  -26.2020   28.8830 C.3   135  LEU135      0.0284
    192  CG        -4.4390  -27.0930   28.1710 C.3   135  LEU135      0.0019
    193  CD1       -5.2500  -27.9610   29.1330 C.3   135  LEU135      0.0001
    194  CD2       -5.3820  -26.2230   27.3280 C.3   135  LEU135      0.0001
    195  N         -2.8360  -26.0140   31.8620 N.am  136  ASP136     -0.1960
    196  CA        -2.8460  -26.0550   33.3270 C.3   136  ASP136      0.1825
    197  C         -3.9670  -25.2250   33.9680 C.2   136  ASP136      0.2464
    198  O         -3.7120  -24.2630   34.6910 O.2   136  ASP136     -0.2730
    199  CB        -1.4670  -25.6140   33.8820 C.3   136  ASP136      0.1450
    200  CG        -1.0340  -24.2100   33.4290 C.2   136  ASP136      0.3671
    201  OD1       -1.5540  -23.6840   32.4230 O.co2 136  ASP136     -0.2456
    202  OD2       -0.1510  -23.6260   34.1000 O.co2 136  ASP136     -0.2456
    203  N         -5.2280  -25.6030   33.7200 N.am  137  PRO137     -0.2715
    204  CA        -6.3520  -24.8130   34.2370 C.3   137  PRO137      0.1536
    205  C         -6.5140  -24.8920   35.7560 C.2   137  PRO137      0.2598
    206  O         -6.1320  -25.8770   36.3990 O.2   137  PRO137     -0.2715
    207  CB        -7.5600  -25.4530   33.5560 C.3   137  PRO137      0.0310
    208  CG        -7.1370  -26.8770   33.3260 C.3   137  PRO137      0.0237
    209  CD        -5.6920  -26.7490   32.9160 C.3   137  PRO137      0.0939
    210  N         -7.1210  -23.8620   36.3270 N.am  138  HIS138     -0.1974
    211  CA        -7.5300  -23.8980   37.7270 C.3   138  HIS138      0.1656
    212  C         -8.5200  -25.0260   37.9750 C.2   138  HIS138      0.2291
    213  O         -9.4350  -25.2380   37.1760 O.2   138  HIS138     -0.2864
    214  CB        -8.1840  -22.5890   38.1400 C.3   138  HIS138      0.0771
    215  CG        -7.3020  -21.3930   37.9990 C.ar  138  HIS138      0.0820
    216  ND1       -7.7260  -20.1240   38.3250 N.ar  138  HIS138     -0.2267
    217  CD2       -6.0260  -21.2620   37.5690 C.ar  138  HIS138      0.1154
    218  CE1       -6.7490  -19.2640   38.1030 C.ar  138  HIS138      0.1986
    219  NE2       -5.7060  -19.9290   37.6400 N.ar  138  HIS138     -0.2212
    220  N         -0.5290  -23.5520   42.3460 N.3   162  HIS162     -0.1226
    221  CA         0.2410  -23.4150   41.1230 C.3   162  HIS162      0.1752
    222  C          0.2750  -21.9900   40.5860 C.2   162  HIS162      0.2595
    223  O          1.2720  -21.5820   39.9860 O.2   162  HIS162     -0.2718
    224  CB        -0.3520  -24.3590   40.0790 C.3   162  HIS162      0.0759
    225  CG         0.2840  -24.2870   38.7240 C.ar  162  HIS162      0.0818
    226  ND1        1.6130  -24.5880   38.5010 N.ar  162  HIS162     -0.2268
    227  CD2       -0.2490  -24.0160   37.5080 C.ar  162  HIS162      0.1154
    228  CE1        1.8740  -24.4780   37.2090 C.ar  162  HIS162      0.1986
    229  NE2        0.7610  -24.1340   36.5840 N.ar  162  HIS162     -0.2212
    230  N         -0.7960  -21.2240   40.7980 N.am  163  GLU163     -0.1979
    231  CA        -0.9230  -19.9290   40.1330 C.3   163  GLU163      0.1602
    232  C         -1.6250  -18.8840   40.9900 C.2   163  GLU163      0.2287
    233  O         -2.7780  -19.0680   41.3840 O.2   163  GLU163     -0.2864
    234  CB        -1.6780  -20.0810   38.8160 C.3   163  GLU163      0.0415
    235  CG        -1.7980  -18.7670   38.0550 C.3   163  GLU163      0.1163
    236  CD        -2.3250  -18.9550   36.6450 C.2   163  GLU163      0.3649
    237  OE1       -1.7380  -18.3620   35.7220 O.co2 163  GLU163     -0.2457
    238  OE2       -3.3180  -19.6970   36.4460 O.co2 163  GLU163     -0.2457
    239  N         -3.8320  -15.9500   41.7410 N.3   165  HIS165     -0.1241
    240  CA        -5.0110  -15.4260   41.0710 C.3   165  HIS165      0.1621
    241  C         -5.8310  -14.7000   42.1260 C.2   165  HIS165      0.2264
    242  O         -6.2470  -15.3110   43.1110 O.2   165  HIS165     -0.2867
    243  CB        -5.8000  -16.5760   40.4240 C.3   165  HIS165      0.0745
    244  CG        -7.0200  -16.1430   39.6680 C.ar  165  HIS165      0.0817
    245  ND1       -6.9840  -15.7770   38.3400 N.ar  165  HIS165     -0.2268
    246  CD2       -8.3150  -16.0390   40.0500 C.ar  165  HIS165      0.1154
    247  CE1       -8.2030  -15.4650   37.9370 C.ar  165  HIS165      0.1986
    248  NE2       -9.0280  -15.6010   38.9600 N.ar  165  HIS165     -0.2212
@<TRIPOS>BOND
     1    92    91    2
     2    91    90    1
     3    89    90    1
     4    90    93    1
     5    98    97    1
     6    93    94    1
     7    94    95    1
     8    97    99    1
     9    97    96    2
    10    95    96    1
    11   169   168    1
    12   101   100    1
    13   101   102    1
    14   101   104    1
    15   106   108   ar
    16   106   105   ar
    17   108   110   ar
    18   121   122    1
    19   168   167    1
    20   102   103    2
    21   122   123    1
    22   122   125    1
    23   113   114    1
    24   113   112    1
    25   113   116    1
    26   114   115    2
    27   123   124    2
    28   104   105    1
    29    50    49    2
    30    78    77    2
    31   105   107   ar
    32   110   111    1
    33   110   109   ar
    34   116   117    1
    35   166   167    2
    36   166   163    1
    37    72    69    1
    38    72    73    1
    39   125   126    1
    40    79    80    1
    41    79    76    1
    42    75    76    1
    43    75    70   am
    44    49    48    1
    45    69    70    1
    46    69    68    1
    47    77    76    1
    48    81    80   ar
    49    81    83   ar
    50   107   109   ar
    51    80    82   ar
    52   185   184    2
    53   182   183    1
    54   182   179    1
    55    62    61    2
    56    83    84   ar
    57    51    48    1
    58    51    52    1
    59    70    71    2
    60   173   172    2
    61   163   162    1
    62   163   164    1
    63   183   184    1
    64    68    61   am
    65    68    74    1
    66    73    74    1
    67   126   127   ar
    68   126   128   ar
    69   117   118    1
    70    82    84   ar
    71    82    85   ar
    72   184   186   am
    73   127   129   ar
    74    61    60    1
    75    84    86   ar
    76    48    47    1
    77    59    60    1
    78   119   118    2
    79    85    87   ar
    80   179   180    1
    81   179   178    1
    82    53    52   ar
    83    53    55   ar
    84    52    54   ar
    85   118   120   am
    86    86    88   ar
    87   170   164   am
    88   170   171    1
    89   172   178   am
    90   172   171    1
    91   128   130   ar
    92   164   165    2
    93    60    63    1
    94    87    88   ar
    95   129   131   ar
    96   180   181    2
    97    47    39   am
    98    55    57   ar
    99   171   174    1
   100    54    56   ar
   101   130   131   ar
   102   133   134    1
   103   131   132    1
   104   194   192    1
   105   139   141   ar
   106   139   138   ar
   107   137   134    1
   108   137   138    1
   109    39    40    2
   110    39    38    1
   111    63    64    1
   112   134   135    1
   113    57    56   ar
   114    57    58    1
   115   174   175    1
   116   141   143   ar
   117   138   140   ar
   118   192   191    1
   119   192   193    1
   120    37    38    1
   121   177   175   ar
   122    23    22    1
   123   175   176   ar
   124    64    65    1
   125    38    41    1
   126   191   188    1
   127   135   136    2
   128   143   144    1
   129   143   142   ar
   130   187   188    1
   131    22    21   ar
   132    22    20   ar
   133   140   142   ar
   134    21    19   ar
   135    20    18   ar
   136    41    42    1
   137   188   189    1
   138    65    67   ar
   139    65    66   ar
   140   160   159    1
   141    19    17   ar
   142    18    17   ar
   143    44    42   ar
   144    44    46   ar
   145    42    43   ar
   146    17    16    1
   147   159   158    1
   148   159   161    1
   149   189   190    2
   150   189   195   am
   151    46    45   ar
   152    43    45   ar
   153   158   155    1
   154    16    13    1
   155   195   196    1
   156   145   146    1
   157   154   155    1
   158   154   147   am
   159   201   200   ar
   160   155   156    1
   161   156   157    2
   162   152   151   ar
   163    13    14    1
   164    13    12    1
   165   209   208    1
   166   209   203    1
   167   149   146    1
   168   149   150    1
   169   146   147    1
   170    15    14    2
   171   208   207    1
   172   196   199    1
   173   196   197    1
   174   147   148    2
   175   200   199    1
   176   200   202   ar
   177    14    24   am
   178     4     3    2
   179   207   204    1
   180    12     3   am
   181   203   197   am
   182   203   204    1
   183     5     6    1
   184     5     2    1
   185   151   150    1
   186   151   153   ar
   187     3     2    1
   188   197   198    2
   189    24    25    1
   190     8     6   ar
   191     8    10   ar
   192   204   205    1
   193     6     7   ar
   194    25    26    1
   195     2     1    1
   196    10    11   ar
   197     7     9   ar
   198    11     9   ar
   199   237   236   ar
   200   205   210   am
   201   205   206    2
   202    32    33    1
   203    32    29    1
   204    26    27    2
   205    34    33    1
   206    34    35    1
   207   210   211    1
   208   238   236   ar
   209    36    35    1
   210    31    30    2
   211   229   228   ar
   212   229   227   ar
   213   236   235    1
   214    30    29    1
   215   213   212    2
   216    29    28    1
   217   228   226   ar
   218   227   225   ar
   219   217   219   ar
   220   217   215   ar
   221   219   218   ar
   222   211   212    1
   223   211   214    1
   224   247   245   ar
   225   247   248   ar
   226   215   214    1
   227   215   216   ar
   228   235   234    1
   229   218   216   ar
   230   245   244   ar
   231   226   225   ar
   232   225   224    1
   233   234   231    1
   234   248   246   ar
   235   244   246   ar
   236   244   243    1
   237   223   222    2
   238   224   221    1
   239   231   230    1
   240   231   232    1
   241   243   240    1
   242   222   230   am
   243   222   221    1
   244   232   233    2
   245   240   239    1
   246   240   241    1
   247   221   220    1
   248   241   242    2
