@<TRIPOS>MOLECULE
tmp/4qckA00.pdb
 203 190 0 0 0
SMALL
GASTEIGER

@<TRIPOS>ATOM
      1  N        -35.0280   29.8140   11.6350 N.3   159  ILE159     -0.1245
      2  CA       -33.9970   29.5770   12.6550 C.3   159  ILE159      0.1561
      3  C        -32.7030   28.9730   12.1310 C.2   159  ILE159      0.2260
      4  O        -31.7310   28.8670   12.8690 O.2   159  ILE159     -0.2867
      5  CB       -34.4940   28.6840   13.8230 C.3   159  ILE159      0.0252
      6  CG1      -34.7570   27.2520   13.3630 C.3   159  ILE159      0.0019
      7  CG2      -35.7320   29.2870   14.4820 C.3   159  ILE159      0.0019
      8  CD1      -34.9970   26.2980   14.5070 C.3   159  ILE159      0.0001
      9  N        -29.0430   30.9720   11.9210 N.3   162  ASN162     -0.1225
     10  CA       -28.0890   31.0620   13.0330 C.3   162  ASN162      0.1785
     11  C        -26.7630   30.3660   12.7750 C.2   162  ASN162      0.2597
     12  O        -25.7360   30.7200   13.3670 O.2   162  ASN162     -0.2718
     13  CB       -28.6860   30.4950   14.3120 C.3   162  ASN162      0.1169
     14  CG       -29.5030   31.5110   15.0560 C.2   162  ASN162      0.2627
     15  OD1      -29.2930   31.7580   16.2460 O.2   162  ASN162     -0.2716
     16  ND2      -30.4290   32.1310   14.3510 N.am  162  ASN162     -0.0877
     17  N        -26.7970   29.3750   11.8910 N.am  163  VAL163     -0.1980
     18  CA       -25.6240   28.6090   11.5470 C.3   163  VAL163      0.1595
     19  C        -24.5090   29.5230   11.0160 C.2   163  VAL163      0.2287
     20  O        -23.3270   29.3030   11.3180 O.2   163  VAL163     -0.2864
     21  CB       -25.9850   27.4800   10.5530 C.3   163  VAL163      0.0276
     22  CG1      -24.7380   26.7970   10.0060 C.3   163  VAL163      0.0022
     23  CG2      -26.8840   26.4530   11.2370 C.3   163  VAL163      0.0022
     24  N        -23.6090   37.5150   16.4040 N.3   168  HIS168     -0.1226
     25  CA       -24.6200   37.4700   17.4460 C.3   168  HIS168      0.1752
     26  C        -24.0710   36.8190   18.7250 C.2   168  HIS168      0.2596
     27  O        -24.6610   36.9720   19.7890 O.2   168  HIS168     -0.2718
     28  CB       -25.8980   36.7690   16.9660 C.3   168  HIS168      0.0759
     29  CG       -25.8940   35.3020   17.2150 C.ar  168  HIS168      0.0818
     30  ND1      -25.1550   34.4230   16.4560 N.ar  168  HIS168     -0.2268
     31  CD2      -26.4980   34.5640   18.1700 C.ar  168  HIS168      0.1154
     32  CE1      -25.3240   33.2000   16.9190 C.ar  168  HIS168      0.1986
     33  NE2      -26.1320   33.2600   17.9620 N.ar  168  HIS168     -0.2212
     34  N        -22.9570   36.0960   18.6270 N.am  169  PHE169     -0.1976
     35  CA       -22.3590   35.4910   19.8250 C.3   169  PHE169      0.1639
     36  C        -21.9940   36.5120   20.8960 C.2   169  PHE169      0.2290
     37  O        -22.1180   36.2370   22.0910 O.2   169  PHE169     -0.2864
     38  CB       -21.1630   34.6100   19.4620 C.3   169  PHE169      0.0560
     39  CG       -21.5690   33.2760   18.9310 C.ar  169  PHE169     -0.0200
     40  CD1      -22.0650   32.3060   19.7900 C.ar  169  PHE169     -0.0042
     41  CD2      -21.5270   33.0040   17.5600 C.ar  169  PHE169     -0.0042
     42  CE1      -22.4880   31.0740   19.3020 C.ar  169  PHE169     -0.0003
     43  CE2      -21.9460   31.7760   17.0680 C.ar  169  PHE169     -0.0003
     44  CZ       -22.4260   30.8110   17.9400 C.ar  169  PHE169     -0.0000
     45  N        -25.2080   35.9540   23.1090 N.3   173  HIS173     -0.1241
     46  CA       -24.6140   34.9780   24.0170 C.3   173  HIS173      0.1621
     47  C        -23.4660   35.5390   24.8800 C.2   173  HIS173      0.2264
     48  O        -22.8600   34.8180   25.6620 O.2   173  HIS173     -0.2867
     49  CB       -24.1760   33.7540   23.2130 C.3   173  HIS173      0.0745
     50  CG       -25.3070   33.0900   22.4980 C.ar  173  HIS173      0.0817
     51  ND1      -26.4030   32.5710   23.1590 N.ar  173  HIS173     -0.2268
     52  CD2      -25.5290   32.8850   21.1790 C.ar  173  HIS173      0.1154
     53  CE1      -27.2430   32.0660   22.2750 C.ar  173  HIS173      0.1986
     54  NE2      -26.7360   32.2430   21.0670 N.ar  173  HIS173     -0.2212
     55  N        -21.2020   24.3010   11.9300 N.3   191  GLN191     -0.1245
     56  CA       -20.5920   25.5110   12.4520 C.3   191  GLN191      0.1566
     57  C        -19.5470   25.0960   13.4920 C.2   191  GLN191      0.2260
     58  O        -19.8560   24.3610   14.4360 O.2   191  GLN191     -0.2867
     59  CB       -21.6640   26.3980   13.1040 C.3   191  GLN191      0.0367
     60  CG       -21.1300   27.5560   13.9220 C.3   191  GLN191      0.0905
     61  CD       -22.1620   28.1560   14.8420 C.2   191  GLN191      0.2608
     62  OE1      -22.1260   27.9370   16.0560 O.2   191  GLN191     -0.2717
     63  NE2      -23.0810   28.9300   14.2800 N.am  191  GLN191     -0.0878
     64  N        -16.7910   26.7120   16.1850 N.3   193  LEU193     -0.1245
     65  CA       -16.6650   27.9680   16.9090 C.3   193  LEU193      0.1561
     66  C        -15.7150   27.8620   18.0990 C.2   193  LEU193      0.2260
     67  O        -15.7660   26.8970   18.8420 O.2   193  LEU193     -0.2867
     68  CB       -18.0550   28.3740   17.4110 C.3   193  LEU193      0.0270
     69  CG       -18.1620   29.4620   18.4850 C.3   193  LEU193      0.0019
     70  CD1      -17.9000   30.8290   17.8830 C.3   193  LEU193      0.0001
     71  CD2      -19.5230   29.4270   19.1580 C.3   193  LEU193      0.0001
     72  N        -15.1370   30.2510   21.4260 N.3   195  ASN195     -0.1240
     73  CA       -15.8160   31.3570   22.0710 C.3   195  ASN195      0.1653
     74  C        -15.2490   31.5890   23.4700 C.2   195  ASN195      0.2266
     75  O        -15.0490   30.6470   24.2340 O.2   195  ASN195     -0.2867
     76  CB       -17.3140   31.0340   22.1540 C.3   195  ASN195      0.1155
     77  CG       -18.1810   32.2610   22.2970 C.2   195  ASN195      0.2627
     78  OD1      -19.0940   32.2970   23.1150 O.2   195  ASN195     -0.2716
     79  ND2      -17.9280   33.2550   21.4810 N.am  195  ASN195     -0.0877
     80  N        -14.9440   28.1500   25.2990 N.3   206  LEU206     -0.1245
     81  CA       -15.8320   27.1530   24.6860 C.3   206  LEU206      0.1561
     82  C        -15.3430   26.7830   23.3020 C.2   206  LEU206      0.2260
     83  O        -15.0660   27.6610   22.4940 O.2   206  LEU206     -0.2867
     84  CB       -17.2480   27.7380   24.5620 C.3   206  LEU206      0.0270
     85  CG       -18.3780   26.9070   23.9410 C.3   206  LEU206      0.0019
     86  CD1      -18.5960   25.6360   24.7390 C.3   206  LEU206      0.0001
     87  CD2      -19.6790   27.6970   23.8620 C.3   206  LEU206      0.0001
     88  N        -16.9730   24.6170   20.1820 N.3   208  SER208     -0.1217
     89  CA       -18.2920   24.1400   19.7950 C.3   208  SER208      0.1889
     90  C        -18.2850   23.6340   18.3690 C.2   208  SER208      0.2288
     91  O        -17.8260   24.3400   17.4760 O.2   208  SER208     -0.2866
     92  CB       -19.3020   25.2850   19.9280 C.3   208  SER208      0.2089
     93  OG       -20.5500   24.9430   19.3640 O.3   208  SER208     -0.2183
     94  N        -21.3260   22.2360   15.8420 N.3   210  ALA210     -0.1245
     95  CA       -22.7690   22.0710   15.7030 C.3   210  ALA210      0.1562
     96  C        -23.0780   21.7510   14.2560 C.2   210  ALA210      0.2260
     97  O        -22.6560   22.4810   13.3430 O.2   210  ALA210     -0.2867
     98  CB       -23.4950   23.3250   16.1360 C.3   210  ALA210      0.0290
     99  N        -26.2880   20.4200   11.6140 N.3   212  TYR212     -0.1241
    100  CA       -27.6040   19.9500   11.1830 C.3   212  TYR212      0.1605
    101  C        -27.3950   18.7050   10.3340 C.2   212  TYR212      0.2264
    102  O        -26.6870   18.7640    9.3200 O.2   212  TYR212     -0.2867
    103  CB       -28.3290   21.0110   10.3460 C.3   212  TYR212      0.0534
    104  CG       -29.2270   21.9330   11.1420 C.ar  212  TYR212     -0.0201
    105  CD1      -30.4370   21.4900   11.6690 C.ar  212  TYR212     -0.0009
    106  CD2      -28.8810   23.2500   11.3420 C.ar  212  TYR212     -0.0009
    107  CE1      -31.2590   22.3400   12.3910 C.ar  212  TYR212      0.0417
    108  CE2      -29.6880   24.1070   12.0610 C.ar  212  TYR212      0.0417
    109  CZ       -30.8720   23.6580   12.5830 C.ar  212  TYR212      0.1957
    110  OH       -31.6430   24.5520   13.2850 O.3   212  TYR212     -0.2866
    111  N        -30.1800   19.2020   14.7110 N.3   218  MET218     -0.1245
    112  CA       -28.7890   19.6130   14.9510 C.3   218  MET218      0.1570
    113  C        -28.2790   19.0120   16.2390 C.2   218  MET218      0.2261
    114  O        -28.9450   19.1020   17.2750 O.2   218  MET218     -0.2867
    115  CB       -28.6600   21.1430   15.0280 C.3   218  MET218      0.0387
    116  CG       -27.4520   21.6590   15.8240 C.3   218  MET218      0.0595
    117  SD       -27.2740   23.4670   15.8190 S.3   218  MET218     -0.1393
    118  CE       -26.6350   23.6770   14.1570 C.3   218  MET218      0.0692
    119  N        -25.1440   19.4850   18.8170 N.3   220  ASN220     -0.1240
    120  CA       -24.1280   20.4510   19.2080 C.3   220  ASN220      0.1653
    121  C        -23.2580   19.8950   20.3450 C.2   220  ASN220      0.2266
    122  O        -23.7140   19.7510   21.4780 O.2   220  ASN220     -0.2867
    123  CB       -24.8030   21.7730   19.6170 C.3   220  ASN220      0.1155
    124  CG       -23.8240   22.8230   20.1260 C.2   220  ASN220      0.2627
    125  OD1      -24.2220   23.7540   20.8170 O.2   220  ASN220     -0.2716
    126  ND2      -22.5490   22.6790   19.7910 N.am  220  ASN220     -0.0877
    127  N        -20.5360   20.5230   22.9980 N.3   222  LEU222     -0.1245
    128  CA       -20.0010   21.6780   23.7300 C.3   222  LEU222      0.1561
    129  C        -18.8400   21.2820   24.6460 C.2   222  LEU222      0.2260
    130  O        -19.0380   20.6060   25.6520 O.2   222  LEU222     -0.2867
    131  CB       -21.1080   22.3520   24.5390 C.3   222  LEU222      0.0270
    132  CG       -22.2640   22.9590   23.7200 C.3   222  LEU222      0.0019
    133  CD1      -23.4270   23.3400   24.6160 C.3   222  LEU222      0.0001
    134  CD2      -21.8220   24.1710   22.9210 C.3   222  LEU222      0.0001
    135  N        -25.8880   19.2000   23.1880 N.3   235  LEU235     -0.1245
    136  CA       -27.1510   19.9150   23.0730 C.3   235  LEU235      0.1561
    137  C        -27.7830   19.5730   21.7330 C.2   235  LEU235      0.2260
    138  O        -27.1170   19.6250   20.6880 O.2   235  LEU235     -0.2867
    139  CB       -26.9260   21.4240   23.1650 C.3   235  LEU235      0.0270
    140  CG       -28.0880   22.3360   22.7400 C.3   235  LEU235      0.0019
    141  CD1      -29.2850   22.1920   23.6670 C.3   235  LEU235      0.0001
    142  CD2      -27.6330   23.7860   22.6990 C.3   235  LEU235      0.0001
    143  N        -30.5320   20.7390   19.0640 N.3   237  ASN237     -0.1240
    144  CA       -31.3810   21.8110   18.5730 C.3   237  ASN237      0.1653
    145  C        -32.1880   21.1890   17.4640 C.2   237  ASN237      0.2266
    146  O        -31.6230   20.7570   16.4520 O.2   237  ASN237     -0.2867
    147  CB       -30.5350   22.9630   18.0400 C.3   237  ASN237      0.1155
    148  CG       -31.3590   24.0250   17.3200 C.2   237  ASN237      0.2627
    149  OD1      -32.5410   24.2230   17.5950 O.2   237  ASN237     -0.2716
    150  ND2      -30.7280   24.7110   16.3850 N.am  237  ASN237     -0.0877
    151  N        -26.5180   25.4080   29.9140 N.3   277  VAL277     -0.1245
    152  CA       -26.6420   25.2040   28.4690 C.3   277  VAL277      0.1561
    153  C        -28.0270   25.6350   27.9840 C.2   277  VAL277      0.2260
    154  O        -28.1500   26.3270   26.9780 O.2   277  VAL277     -0.2867
    155  CB       -26.3990   23.7350   28.0820 C.3   277  VAL277      0.0252
    156  CG1      -26.7300   23.4930   26.6140 C.3   277  VAL277      0.0019
    157  CG2      -24.9570   23.3540   28.3600 C.3   277  VAL277      0.0019
    158  N        -28.3390   29.2720   27.6490 N.3   280  GLY280     -0.1210
    159  CA       -27.6870   29.6100   26.3830 C.3   280  GLY280      0.1956
    160  C        -28.6410   29.4840   25.2040 C.2   280  GLY280      0.2611
    161  O        -28.8190   30.4170   24.4270 O.2   280  GLY280     -0.2717
    162  N        -29.2810   28.3330   25.0780 N.am  281  PHE281     -0.1976
    163  CA       -30.2620   28.1360   24.0120 C.3   281  PHE281      0.1639
    164  C        -31.4360   29.1200   24.1100 C.2   281  PHE281      0.2290
    165  O        -31.9230   29.6220   23.0990 O.2   281  PHE281     -0.2864
    166  CB       -30.7920   26.7030   24.0290 C.3   281  PHE281      0.0560
    167  CG       -31.5340   26.3230   22.7800 C.ar  281  PHE281     -0.0200
    168  CD1      -30.8510   26.1150   21.5910 C.ar  281  PHE281     -0.0042
    169  CD2      -32.9180   26.1730   22.7890 C.ar  281  PHE281     -0.0042
    170  CE1      -31.5380   25.7630   20.4330 C.ar  281  PHE281     -0.0003
    171  CE2      -33.6060   25.8210   21.6350 C.ar  281  PHE281     -0.0003
    172  CZ       -32.9160   25.6110   20.4590 C.ar  281  PHE281     -0.0000
    173  N        -31.4860   32.0790   25.0790 N.3   283  GLN283     -0.1231
    174  CA       -31.0800   33.3670   24.5330 C.3   283  GLN283      0.1698
    175  C        -31.4030   33.4590   23.0330 C.2   283  GLN283      0.2592
    176  O        -31.8700   34.4920   22.5640 O.2   283  GLN283     -0.2718
    177  CB       -29.5940   33.6150   24.7810 C.3   283  GLN283      0.0381
    178  CG       -29.2460   33.8740   26.2340 C.3   283  GLN283      0.0905
    179  CD       -27.7500   33.8050   26.5230 C.2   283  GLN283      0.2608
    180  OE1      -27.0180   33.0120   25.9350 O.2   283  GLN283     -0.2717
    181  NE2      -27.2920   34.6470   27.4380 N.am  283  GLN283     -0.0878
    182  N        -31.1670   32.3830   22.2850 N.am  284  ASP284     -0.1974
    183  CA       -31.5730   32.3500   20.8780 C.3   284  ASP284      0.1709
    184  C        -33.0930   32.3500   20.7140 C.2   284  ASP284      0.2293
    185  O        -33.6350   33.0360   19.8400 O.2   284  ASP284     -0.2864
    186  CB       -31.0010   31.1240   20.1690 C.3   284  ASP284      0.1436
    187  CG       -29.5020   31.2140   19.9510 C.2   284  ASP284      0.3671
    188  OD1      -28.9900   32.2920   19.5650 O.co2 284  ASP284     -0.2456
    189  OD2      -28.8250   30.1870   20.1530 O.co2 284  ASP284     -0.2456
    190  N        -35.6330   34.4940   18.2940 N.3   288  TRP288     -0.1241
    191  CA       -36.4910   33.7970   17.3330 C.3   288  TRP288      0.1605
    192  C        -37.9780   34.0910   17.5150 C.2   288  TRP288      0.2264
    193  O        -38.7260   34.1710   16.5360 O.2   288  TRP288     -0.2867
    194  CB       -36.2590   32.2910   17.4180 C.3   288  TRP288      0.0550
    195  CG       -34.9270   31.8600   16.9130 C.ar  288  TRP288      0.0003
    196  CD1      -34.1840   32.4720   15.9510 C.ar  288  TRP288      0.0946
    197  CD2      -34.1910   30.6930   17.3090 C.ar  288  TRP288      0.0152
    198  NE1      -33.0260   31.7740   15.7350 N.ar  288  TRP288     -0.2442
    199  CE2      -33.0020   30.6750   16.5510 C.ar  288  TRP288      0.0810
    200  CE3      -34.4160   29.6690   18.2360 C.ar  288  TRP288      0.0012
    201  CZ2      -32.0380   29.6690   16.6880 C.ar  288  TRP288      0.0191
    202  CZ3      -33.4580   28.6680   18.3760 C.ar  288  TRP288      0.0001
    203  CH2      -32.2850   28.6730   17.5990 C.ar  288  TRP288      0.0015
@<TRIPOS>BOND
     1   102   101    2
     2    22    21    1
     3   101   100    1
     4   103   104    1
     5   103   100    1
     6    21    23    1
     7    21    18    1
     8    19    20    2
     9    19    18    1
    10   104   106   ar
    11   104   105   ar
    12   100    99    1
    13   106   108   ar
    14    18    17    1
    15     1     2    1
    16   105   107   ar
    17    17    11   am
    18     9    10    1
    19    55    56    1
    20   108   109   ar
    21     3     2    1
    22     3     4    2
    23   107   109   ar
    24    56    59    1
    25    56    57    1
    26   109   110    1
    27     2     5    1
    28    11    10    1
    29    11    12    2
    30    10    13    1
    31    59    60    1
    32    97    96    2
    33     6     5    1
    34     6     8    1
    35    57    58    2
    36     5     7    1
    37    60    61    1
    38   118   117    1
    39    96    95    1
    40    63    61   am
    41    13    14    1
    42    16    14   am
    43   111   112    1
    44    61    62    2
    45   112   115    1
    46   112   113    1
    47   115   116    1
    48    14    15    2
    49    95    94    1
    50    95    98    1
    51   198   196   ar
    52   198   199   ar
    53   117   116    1
    54   196   195   ar
    55    64    65    1
    56   113   114    2
    57   150   148   am
    58    24    25    1
    59   146   145    2
    60    30    32   ar
    61    30    29   ar
    62   193   192    2
    63   199   201   ar
    64   199   197   ar
    65   201   203   ar
    66    65    68    1
    67    65    66    1
    68   195   197   ar
    69   195   194    1
    70    32    33   ar
    71    28    29    1
    72    28    25    1
    73    43    41   ar
    74    43    44   ar
    75    29    31   ar
    76   197   200   ar
    77   148   149    2
    78   148   147    1
    79   191   194    1
    80   191   192    1
    81   191   190    1
    82    68    69    1
    83    25    26    1
    84   145   144    1
    85    91    90    2
    86    41    39   ar
    87   203   202   ar
    88    70    69    1
    89    44    42   ar
    90    33    31   ar
    91   147   144    1
    92    66    67    2
    93   200   202   ar
    94    90    89    1
    95    69    71    1
    96   144   143    1
    97    34    26   am
    98    34    35    1
    99    26    27    2
   100   119   120    1
   101    39    38    1
   102    39    40   ar
   103   120   123    1
   104   120   121    1
   105    42    40   ar
   106    93    92    1
   107    38    35    1
   108   188   187   ar
   109   123   124    1
   110   126   124   am
   111    89    92    1
   112    89    88    1
   113    35    36    1
   114   185   184    2
   115   187   189   ar
   116   187   186    1
   117   124   125    2
   118   186   183    1
   119   121   122    2
   120   170   172   ar
   121   170   168   ar
   122   172   171   ar
   123   138   137    2
   124   184   183    1
   125   183   182    1
   126    36    37    2
   127    54    52   ar
   128    54    53   ar
   129    52    50   ar
   130    72    73    1
   131    79    77   am
   132   168   167   ar
   133   171   169   ar
   134   137   136    1
   135    73    76    1
   136    73    74    1
   137    76    77    1
   138    53    51   ar
   139   182   175   am
   140    77    78    2
   141    83    82    2
   142    50    51   ar
   143    50    49    1
   144   176   175    2
   145   142   140    1
   146   140   139    1
   147   140   141    1
   148   167   169   ar
   149   167   166    1
   150   134   132    1
   151   127   128    1
   152   175   174    1
   153   136   139    1
   154   136   135    1
   155   165   164    2
   156    45    46    1
   157    49    46    1
   158    82    81    1
   159    74    75    2
   160   132   131    1
   161   132   133    1
   162   128   131    1
   163   128   129    1
   164    87    85    1
   165    85    84    1
   166    85    86    1
   167   163   166    1
   168   163   164    1
   169   163   162    1
   170    46    47    1
   171   161   160    2
   172   174   177    1
   173   174   173    1
   174    84    81    1
   175   129   130    2
   176    81    80    1
   177   177   178    1
   178    47    48    2
   179   162   160   am
   180   160   159    1
   181   180   179    2
   182   178   179    1
   183   159   158    1
   184   179   181   am
   185   156   155    1
   186   154   153    2
   187   153   152    1
   188   155   157    1
   189   155   152    1
   190   152   151    1
