@<TRIPOS>MOLECULE
tmp/4qclA01.pdb
 105 104 0 0 0
SMALL
GASTEIGER

@<TRIPOS>ATOM
      1  N         93.9670   91.9770   64.8950 N.3     2  GLN2       -0.1231
      2  CA        95.0010   91.0940   65.4300 C.3     2  GLN2        0.1698
      3  C         94.3320   89.7470   65.7520 C.2     2  GLN2        0.2592
      4  O         93.2520   89.7120   66.3570 O.2     2  GLN2       -0.2718
      5  CB        95.6140   91.6970   66.6960 C.3     2  GLN2        0.0381
      6  CG        96.7970   90.9190   67.2230 C.3     2  GLN2        0.0905
      7  CD        97.5420   91.6490   68.3210 C.2     2  GLN2        0.2608
      8  OE1       97.0330   91.8280   69.4270 O.2     2  GLN2       -0.2717
      9  NE2       98.7610   92.0780   68.0170 N.am    2  GLN2       -0.0878
     10  N         94.9590   88.6400   65.3580 N.am    3  VAL3       -0.1966
     11  CA        94.3540   87.3390   65.6000 C.3     3  VAL3        0.1727
     12  C         95.3420   86.1920   65.7980 C.2     3  VAL3        0.2616
     13  O         96.4180   86.1980   65.2200 O.2     3  VAL3       -0.2715
     14  CB        93.4300   86.9800   64.4260 C.3     3  VAL3        0.0290
     15  CG1       94.2260   86.9540   63.1450 C.3     3  VAL3        0.0023
     16  CG2       92.7780   85.6350   64.6590 C.3     3  VAL3        0.0023
     17  N         94.9880   85.2090   66.6270 N.am    4  PHE4       -0.1974
     18  CA        95.8710   84.0570   66.7930 C.3     4  PHE4        0.1639
     19  C         95.0930   82.7470   66.6820 C.2     4  PHE4        0.2290
     20  O         93.8880   82.7170   66.9080 O.2     4  PHE4       -0.2864
     21  CB        96.7170   84.1690   68.0840 C.3     4  PHE4        0.0560
     22  CG        96.1460   83.4940   69.3000 C.ar    4  PHE4       -0.0200
     23  CD1       95.1100   84.0690   70.0180 C.ar    4  PHE4       -0.0042
     24  CD2       96.7350   82.3320   69.7920 C.ar    4  PHE4       -0.0042
     25  CE1       94.6740   83.5040   71.2180 C.ar    4  PHE4       -0.0003
     26  CE2       96.3060   81.7570   70.9910 C.ar    4  PHE4       -0.0003
     27  CZ        95.2770   82.3440   71.7070 C.ar    4  PHE4       -0.0000
     28  N         99.1660   75.6280   70.5570 N.3    28  VAL28      -0.1231
     29  CA        99.5250   76.7550   69.7000 C.3    28  VAL28       0.1692
     30  C        100.8590   76.4710   69.0540 C.2    28  VAL28       0.2592
     31  O        101.7710   75.9440   69.6920 O.2    28  VAL28      -0.2718
     32  CB        99.6630   78.0860   70.4510 C.3    28  VAL28       0.0266
     33  CG1       98.3020   78.6000   70.8370 C.3    28  VAL28       0.0020
     34  CG2      100.5590   77.9140   71.6470 C.3    28  VAL28       0.0020
     35  N        100.9680   76.8050   67.7750 N.am   29  TRP29      -0.1962
     36  CA       102.2160   76.6060   67.0600 C.3    29  TRP29       0.1771
     37  C        103.1730   77.7570   67.3790 C.2    29  TRP29       0.2619
     38  O        102.8000   78.9230   67.2760 O.2    29  TRP29      -0.2715
     39  CB       101.9630   76.5570   65.5580 C.3    29  TRP29       0.0590
     40  CG       103.2220   76.4440   64.7460 C.ar   29  TRP29       0.0006
     41  CD1      103.7870   77.4130   63.9540 C.ar   29  TRP29       0.0946
     42  CD2      104.0580   75.2900   64.6280 C.ar   29  TRP29       0.0152
     43  NE1      104.9180   76.9240   63.3490 N.ar   29  TRP29      -0.2442
     44  CE2      105.1100   75.6250   63.7420 C.ar   29  TRP29       0.0810
     45  CE3      104.0180   74.0000   65.1790 C.ar   29  TRP29       0.0012
     46  CZ2      106.1180   74.7110   63.3910 C.ar   29  TRP29       0.0191
     47  CZ3      105.0160   73.0900   64.8310 C.ar   29  TRP29       0.0001
     48  CH2      106.0520   73.4520   63.9430 C.ar   29  TRP29       0.0015
     49  N        104.3920   77.4220   67.7920 N.am   30  ILE30      -0.1977
     50  CA       105.4070   78.4280   68.0950 C.3    30  ILE30       0.1596
     51  C        106.4850   78.2500   67.0370 C.2    30  ILE30       0.2287
     52  O        107.3220   77.3420   67.1230 O.2    30  ILE30      -0.2864
     53  CB       106.0530   78.2110   69.4670 C.3    30  ILE30       0.0276
     54  CG1      104.9870   78.1580   70.5670 C.3    30  ILE30       0.0022
     55  CG2      107.0500   79.3260   69.7240 C.3    30  ILE30       0.0022
     56  CD1      104.2090   79.4680   70.7820 C.3    30  ILE30       0.0001
     57  N         98.4050   75.9910   75.5360 N.3    39  CYS39      -0.1235
     58  CA        97.9080   77.3530   75.6550 C.3    39  CYS39       0.1677
     59  C         96.5690   77.3630   76.3750 C.2    39  CYS39       0.2270
     60  O         95.7530   76.4640   76.1990 O.2    39  CYS39      -0.2867
     61  CB        97.7340   77.9860   74.2720 C.3    39  CYS39       0.0956
     62  SG        97.0600   79.6950   74.3180 S.3    39  CYS39      -0.0801
     63  N         93.1690   89.3010   70.9560 N.3   167  PRO167     -0.2102
     64  CA        93.5370   88.6950   72.2450 C.3   167  PRO167      0.1504
     65  C         94.1260   89.7060   73.2230 C.2   167  PRO167      0.2576
     66  O         94.7710   90.6670   72.8210 O.2   167  PRO167     -0.2718
     67  CB        94.5490   87.6150   71.8540 C.3   167  PRO167      0.0282
     68  CG        95.1670   88.1640   70.6010 C.3   167  PRO167      0.0208
     69  CD        93.9690   88.7320   69.8560 C.3   167  PRO167      0.0893
     70  N         93.9160   89.4630   74.5110 N.am  168  GLN168     -0.1966
     71  CA        94.3970   90.3420   75.5610 C.3   168  GLN168      0.1733
     72  C         95.3850   89.5940   76.4300 C.2   168  GLN168      0.2616
     73  O         95.3740   88.3690   76.4580 O.2   168  GLN168     -0.2715
     74  CB        93.2250   90.7960   76.4240 C.3   168  GLN168      0.0408
     75  CG        92.0780   91.3760   75.6260 C.3   168  GLN168      0.0908
     76  CD        92.4860   92.6260   74.8930 C.2   168  GLN168      0.2608
     77  OE1       92.8670   93.6150   75.5120 O.2   168  GLN168     -0.2717
     78  NE2       92.4210   92.5910   73.5650 N.am  168  GLN168     -0.0878
     79  N         96.2270   90.3370   77.1420 N.am  169  LEU169     -0.1977
     80  CA        97.2200   89.7480   78.0290 C.3   169  LEU169      0.1596
     81  C         96.5940   89.6630   79.3970 C.2   169  LEU169      0.2287
     82  O         95.6090   90.3420   79.6740 O.2   169  LEU169     -0.2864
     83  CB        98.4630   90.6330   78.1290 C.3   169  LEU169      0.0297
     84  CG        99.2740   90.9190   76.8680 C.3   169  LEU169      0.0022
     85  CD1      100.3730   91.9140   77.2120 C.3   169  LEU169      0.0001
     86  CD2       99.8600   89.6240   76.3060 C.3   169  LEU169      0.0001
     87  N        101.6590   79.2130   76.9690 N.3   179  ALA179     -0.1231
     88  CA       101.0650   80.4500   76.4970 C.3   179  ALA179      0.1694
     89  C         99.6730   80.6790   77.0990 C.2   179  ALA179      0.2592
     90  O         99.0160   79.7480   77.5670 O.2   179  ALA179     -0.2718
     91  CB       100.9650   80.4140   74.9800 C.3   179  ALA179      0.0304
     92  N         99.2320   81.9310   77.0750 N.am  180  GLU180     -0.1966
     93  CA        97.9230   82.3030   77.5870 C.3   180  GLU180      0.1733
     94  C         97.4150   83.4880   76.8020 C.2   180  GLU180      0.2616
     95  O         98.1820   84.1940   76.1650 O.2   180  GLU180     -0.2715
     96  CB        97.9990   82.6710   79.0660 C.3   180  GLU180      0.0429
     97  CG        98.1510   81.4720   79.9730 C.3   180  GLU180      0.1163
     98  CD        98.2860   81.8570   81.4280 C.2   180  GLU180      0.3649
     99  OE1       97.6670   82.8600   81.8330 O.co2 180  GLU180     -0.2457
    100  OE2       98.9990   81.1480   82.1700 O.co2 180  GLU180     -0.2457
    101  N         96.1110   83.6940   76.8410 N.am  181  ALA181     -0.1977
    102  CA        95.4940   84.8070   76.1500 C.3   181  ALA181      0.1597
    103  C         94.0990   84.9170   76.7190 C.2   181  ALA181      0.2287
    104  O         93.5890   83.9660   77.3300 O.2   181  ALA181     -0.2864
    105  CB        95.4240   84.5460   74.6760 C.3   181  ALA181      0.0319
@<TRIPOS>BOND
     1    15    14    1
     2    43    44   ar
     3    43    41   ar
     4    46    44   ar
     5    46    48   ar
     6    44    42   ar
     7    48    47   ar
     8    41    40   ar
     9    14    16    1
    10    14    11    1
    11    42    40   ar
    12    42    45   ar
    13    40    39    1
    14    47    45   ar
    15     1     2    1
    16    13    12    2
    17    10    11    1
    18    10     3   am
    19     2     3    1
    20     2     5    1
    21    39    36    1
    22    11    12    1
    23     3     4    2
    24    12    17   am
    25    17    18    1
    26    19    18    1
    27    19    20    2
    28     5     6    1
    29    18    21    1
    30    51    52    2
    31    51    50    1
    32    36    37    1
    33    36    35    1
    34     6     7    1
    35    38    37    2
    36    37    49   am
    37    35    30   am
    38    49    50    1
    39     9     7   am
    40    21    22    1
    41    50    53    1
    42     7     8    2
    43    30    31    2
    44    30    29    1
    45    22    24   ar
    46    22    23   ar
    47    53    55    1
    48    53    54    1
    49    29    32    1
    50    29    28    1
    51    24    26   ar
    52    69    68    1
    53    69    63    1
    54    23    25   ar
    55    32    33    1
    56    32    34    1
    57    54    56    1
    58    68    67    1
    59    63    64    1
    60    26    27   ar
    61    25    27   ar
    62    67    64    1
    63    64    65    1
    64    66    65    2
    65    65    70   am
    66    78    76   am
    67    61    62    1
    68    61    58    1
    69    70    71    1
    70   105   102    1
    71    76    77    2
    72    76    75    1
    73    91    88    1
    74    57    58    1
    75    71    74    1
    76    71    72    1
    77    75    74    1
    78    58    59    1
    79   102   103    1
    80   102   101    1
    81    95    94    2
    82    60    59    2
    83    86    84    1
    84    72    73    2
    85    72    79   am
    86    88    87    1
    87    88    89    1
    88   103   104    2
    89    94   101   am
    90    94    93    1
    91    84    85    1
    92    84    83    1
    93    92    89   am
    94    92    93    1
    95    89    90    2
    96    79    80    1
    97    93    96    1
    98    80    83    1
    99    80    81    1
   100    96    97    1
   101    81    82    2
   102    97    98    1
   103    98    99   ar
   104    98   100   ar
