@<TRIPOS>MOLECULE
tmp/4qd3A00.pdb
 104 98 0 0 0
SMALL
GASTEIGER

@<TRIPOS>ATOM
      1  N          3.4740   10.7330    8.9500 N.3    12  ASN12      -0.1240
      2  CA         3.3490    9.6690    9.9460 C.3    12  ASN12       0.1653
      3  C          4.5970    8.8080    9.9330 C.2    12  ASN12       0.2266
      4  O          5.1770    8.5830    8.8710 O.2    12  ASN12      -0.2867
      5  CB         2.1280    8.7990    9.6570 C.3    12  ASN12       0.1155
      6  CG         0.8360    9.4430   10.1110 C.2    12  ASN12       0.2627
      7  OD1        0.6630    9.7360   11.2990 O.2    12  ASN12      -0.2716
      8  ND2       -0.0880    9.6390    9.1840 N.am   12  ASN12      -0.0877
      9  N          0.0050   11.5520    2.8430 N.3    22  HIS22      -0.1241
     10  CA         0.0100   12.3680    4.0390 C.3    22  HIS22       0.1621
     11  C          1.4330   12.7220    4.4950 C.2    22  HIS22       0.2264
     12  O          1.5870   13.4690    5.4120 O.2    22  HIS22      -0.2867
     13  CB        -0.7270   11.6510    5.1740 C.3    22  HIS22       0.0745
     14  CG        -1.5640   12.5340    6.0450 C.ar   22  HIS22       0.0817
     15  ND1       -2.0160   13.7650    5.6580 N.ar   22  HIS22      -0.2268
     16  CD2       -2.0470   12.3340    7.2880 C.ar   22  HIS22       0.1154
     17  CE1       -2.7460   14.2800    6.6240 C.ar   22  HIS22       0.1986
     18  NE2       -2.7900   13.4220    7.6200 N.ar   22  HIS22      -0.2212
     19  N          0.7210   11.8820   13.1360 N.3    69  MET69      -0.1230
     20  CA         0.3400   13.1610   12.5450 C.3    69  MET69       0.1702
     21  C         -0.4610   14.0250   13.5170 C.2    69  MET69       0.2592
     22  O         -0.1520   15.2000   13.7000 O.2    69  MET69      -0.2718
     23  CB        -0.4780   12.9460   11.2690 C.3    69  MET69       0.0401
     24  CG        -0.8460   14.2310   10.5550 C.3    69  MET69       0.0596
     25  SD         0.6220   15.0950    9.9570 S.3    69  MET69      -0.1393
     26  CE         0.7960   14.3380    8.3430 C.3    69  MET69       0.0692
     27  N         -1.4750   13.4350   14.1510 N.am   70  ASN70      -0.1974
     28  CA        -2.3450   14.1800   15.0640 C.3    70  ASN70       0.1688
     29  C         -1.6770   14.7030   16.3450 C.2    70  ASN70       0.2292
     30  O         -2.3130   15.4450   17.0990 O.2    70  ASN70      -0.2864
     31  CB        -3.5930   13.3650   15.4200 C.3    70  ASN70       0.1181
     32  CG        -3.2650   12.1290   16.2310 C.2    70  ASN70       0.2629
     33  OD1       -2.3850   11.3510   15.8540 O.2    70  ASN70      -0.2716
     34  ND2       -3.9570   11.9410   17.3440 N.am   70  ASN70      -0.0877
     35  N          0.8380   18.1330    2.9540 N.3    95  ASP95      -0.1239
     36  CA        -0.0100   17.7150    1.8530 C.3    95  ASP95       0.1674
     37  C         -1.2960   18.5360    1.8330 C.2    95  ASP95       0.2266
     38  O         -1.8410   18.8940    2.8880 O.2    95  ASP95      -0.2867
     39  CB        -0.3490   16.2350    1.9760 C.3    95  ASP95       0.1410
     40  CG        -0.9080   15.8800    3.3390 C.2    95  ASP95       0.3668
     41  OD1       -0.2460   16.1960    4.3550 O.co2  95  ASP95      -0.2456
     42  OD2       -1.9930   15.2760    3.3910 O.co2  95  ASP95      -0.2456
     43  N         -5.0710   18.6040    0.0160 N.3    97  LEU97      -0.1245
     44  CA        -6.1440   18.0010   -0.7790 C.3    97  LEU97       0.1561
     45  C         -6.6980   18.9250   -1.8620 C.2    97  LEU97       0.2260
     46  O         -7.1010   18.4570   -2.9260 O.2    97  LEU97      -0.2867
     47  CB        -7.3050   17.5710    0.1280 C.3    97  LEU97       0.0270
     48  CG        -6.9850   16.3940    1.0680 C.3    97  LEU97       0.0019
     49  CD1       -7.8550   16.4130    2.3180 C.3    97  LEU97       0.0001
     50  CD2       -7.1130   15.0760    0.3300 C.3    97  LEU97       0.0001
     51  N         -8.1420   23.0870    7.8590 N.3   113  GLY113     -0.1210
     52  CA        -8.8600   22.4360    6.7470 C.3   113  GLY113      0.1956
     53  C         -9.1400   20.9460    6.9100 C.2   113  GLY113      0.2612
     54  O         -9.3600   20.2330    5.9310 O.2   113  GLY113     -0.2717
     55  N         -9.1730   20.4770    8.1490 N.am  114  GLY114     -0.1942
     56  CA        -9.2640   19.0430    8.4440 C.3   114  GLY114      0.2014
     57  C         -7.9460   18.2770    8.5140 C.2   114  GLY114      0.2639
     58  O         -7.9490   17.0680    8.7250 O.2   114  GLY114     -0.2714
     59  N         -6.8180   18.9630    8.3240 N.am  115  HIS115     -0.1959
     60  CA        -5.5060   18.3270    8.4220 C.3   115  HIS115      0.1787
     61  C         -5.1250   18.2660    9.8930 C.2   115  HIS115      0.2620
     62  O         -4.8570   19.2930   10.5140 O.2   115  HIS115     -0.2715
     63  CB        -4.4470   19.1240    7.6380 C.3   115  HIS115      0.0785
     64  CG        -3.1890   18.3550    7.3650 C.ar  115  HIS115      0.0821
     65  ND1       -2.3100   17.9890    8.3600 N.ar  115  HIS115     -0.2267
     66  CD2       -2.6540   17.8960    6.2080 C.ar  115  HIS115      0.1154
     67  CE1       -1.2980   17.3250    7.8340 C.ar  115  HIS115      0.1986
     68  NE2       -1.4850   17.2520    6.5300 N.ar  115  HIS115     -0.2212
     69  N         -5.0770   17.0590   10.4470 N.am  116  ASN116     -0.1972
     70  CA        -4.8740   16.9040   11.8900 C.3   116  ASN116      0.1688
     71  C         -3.4850   17.2730   12.3750 C.2   116  ASN116      0.2292
     72  O         -3.3080   17.6080   13.5380 O.2   116  ASN116     -0.2864
     73  CB        -5.2490   15.4890   12.3350 C.3   116  ASN116      0.1181
     74  CG        -6.7320   15.2190   12.2050 C.2   116  ASN116      0.2629
     75  OD1       -7.5370   16.1430   12.0980 O.2   116  ASN116     -0.2716
     76  ND2       -7.0980   13.9500   12.2010 N.am  116  ASN116     -0.0877
     77  N        -11.5570   10.4710    1.9970 N.3   147  VAL147     -0.1231
     78  CA       -10.3490   11.2520    2.3060 C.3   147  VAL147      0.1692
     79  C         -9.3470   10.4900    3.1860 C.2   147  VAL147      0.2592
     80  O         -8.1510   10.4560    2.8820 O.2   147  VAL147     -0.2718
     81  CB       -10.7020   12.6160    2.9470 C.3   147  VAL147      0.0266
     82  CG1       -9.4560   13.3140    3.4860 C.3   147  VAL147      0.0020
     83  CG2      -11.4130   13.5030    1.9350 C.3   147  VAL147      0.0020
     84  N         -9.8240    9.8490    4.2300 N.am  148  SER148     -0.1952
     85  CA        -8.9210    9.1990    5.1350 C.3   148  SER148      0.1924
     86  C         -8.1190    8.0830    4.4660 C.2   148  SER148      0.2314
     87  O         -6.9390    8.0660    4.5470 O.2   148  SER148     -0.2863
     88  CB        -9.7210    8.7120    6.3460 C.3   148  SER148      0.2116
     89  OG        -8.9720    7.9020    7.1760 O.3   148  SER148     -0.2180
     90  N         -5.4500    9.8600    1.8250 N.3   151  VAL151     -0.1231
     91  CA        -4.2090   10.4560    2.3220 C.3   151  VAL151      0.1692
     92  C         -3.2650    9.4020    2.9140 C.2   151  VAL151      0.2591
     93  O         -2.0450    9.5300    2.8180 O.2   151  VAL151     -0.2718
     94  CB        -4.4400   11.6140    3.3270 C.3   151  VAL151      0.0266
     95  CG1       -5.3720   12.6720    2.7350 C.3   151  VAL151      0.0020
     96  CG2       -4.9620   11.1120    4.6700 C.3   151  VAL151      0.0020
     97  N         -3.8310    8.3420    3.4840 N.am  152  LEU152     -0.1980
     98  CA        -3.0360    7.2140    3.9750 C.3   152  LEU152      0.1596
     99  C         -2.6890    6.1770    2.8910 C.2   152  LEU152      0.2287
    100  O         -2.0950    5.1540    3.1950 O.2   152  LEU152     -0.2864
    101  CB        -3.7700    6.5280    5.1330 C.3   152  LEU152      0.0297
    102  CG        -4.0930    7.4050    6.3470 C.3   152  LEU152      0.0022
    103  CD1       -4.8560    6.5920    7.3960 C.3   152  LEU152      0.0001
    104  CD2       -2.8260    7.9900    6.9400 C.3   152  LEU152      0.0001
@<TRIPOS>BOND
     1    46    45    2
     2    45    44    1
     3    44    43    1
     4    44    47    1
     5    47    48    1
     6    50    48    1
     7    48    49    1
     8    90    91    1
     9    37    36    1
    10    37    38    2
    11    36    39    1
    12    36    35    1
    13    83    81    1
    14    39    40    1
    15    77    78    1
    16    78    81    1
    17    78    79    1
    18    91    92    1
    19    91    94    1
    20    95    94    1
    21    93    92    2
    22     9    10    1
    23    80    79    2
    24    99   100    2
    25    99    98    1
    26    92    97   am
    27    81    82    1
    28    79    84   am
    29    94    96    1
    30    40    42   ar
    31    40    41   ar
    32    97    98    1
    33    98   101    1
    34    10    11    1
    35    10    13    1
    36    84    85    1
    37    86    87    2
    38    86    85    1
    39    11    12    2
    40   101   102    1
    41    85    88    1
    42    13    14    1
    43    15    14   ar
    44    15    17   ar
    45    54    53    2
    46    14    16   ar
    47    66    68   ar
    48    66    64   ar
    49    88    89    1
    50   102   104    1
    51   102   103    1
    52    68    67   ar
    53    17    18   ar
    54    52    53    1
    55    52    51    1
    56    53    55   am
    57    16    18   ar
    58    64    63    1
    59    64    65   ar
    60    63    60    1
    61    67    65   ar
    62    55    56    1
    63    59    60    1
    64    59    57   am
    65    26    25    1
    66    60    61    1
    67    56    57    1
    68    57    58    2
    69     4     3    2
    70     1     2    1
    71     8     6   am
    72     5     2    1
    73     5     6    1
    74    61    69   am
    75    61    62    2
    76     3     2    1
    77    25    24    1
    78     6     7    2
    79    69    70    1
    80    24    23    1
    81    23    20    1
    82    70    73    1
    83    70    71    1
    84    75    74    2
    85    76    74   am
    86    74    73    1
    87    71    72    2
    88    20    19    1
    89    20    21    1
    90    21    22    2
    91    21    27   am
    92    27    28    1
    93    28    31    1
    94    28    29    1
    95    31    32    1
    96    33    32    2
    97    32    34   am
    98    29    30    2
