@<TRIPOS>MOLECULE
tmp/4qd4B01.pdb
 94 87 0 0 0
SMALL
GASTEIGER

@<TRIPOS>ATOM
      1  N        -44.0770    5.0770   78.1790 N.3    62  SER62      -0.1217
      2  CA       -43.6940    4.4390   79.4780 C.3    62  SER62       0.1889
      3  C        -44.2930    3.0650   79.7260 C.2    62  SER62       0.2288
      4  O        -43.8320    2.3420   80.6100 O.2    62  SER62      -0.2866
      5  CB       -43.9100    5.3650   80.6710 C.3    62  SER62       0.2089
      6  OG       -42.9900    6.4500   80.5400 O.3    62  SER62      -0.2183
      7  N        -36.8260   12.7150   86.4200 N.3   117  LEU117     -0.1245
      8  CA       -37.6650   12.1550   85.3370 C.3   117  LEU117      0.1561
      9  C        -36.8960   11.8270   84.0580 C.2   117  LEU117      0.2260
     10  O        -37.0070   10.7170   83.5120 O.2   117  LEU117     -0.2867
     11  CB       -38.8410   13.0730   85.0720 C.3   117  LEU117      0.0270
     12  CG       -39.7380   12.4650   83.9920 C.3   117  LEU117      0.0019
     13  CD1      -40.3700   11.2480   84.6280 C.3   117  LEU117      0.0001
     14  CD2      -40.8100   13.4130   83.5020 C.3   117  LEU117      0.0001
     15  N        -40.1390    8.8510   90.0470 N.3   148  TYR148     -0.1241
     16  CA       -40.3150    8.2920   88.6970 C.3   148  TYR148      0.1605
     17  C        -39.2170    8.8180   87.7670 C.2   148  TYR148      0.2264
     18  O        -38.9980   10.0140   87.6890 O.2   148  TYR148     -0.2867
     19  CB       -41.7010    8.6900   88.2630 C.3   148  TYR148      0.0534
     20  CG       -42.1610    8.0880   86.9800 C.ar  148  TYR148     -0.0201
     21  CD1      -42.1300    6.6910   86.7870 C.ar  148  TYR148     -0.0009
     22  CD2      -42.6920    8.8850   85.9570 C.ar  148  TYR148     -0.0009
     23  CE1      -42.5750    6.1350   85.6100 C.ar  148  TYR148      0.0417
     24  CE2      -43.1890    8.3070   84.7850 C.ar  148  TYR148      0.0417
     25  CZ       -43.1100    6.9190   84.6260 C.ar  148  TYR148      0.1957
     26  OH       -43.5500    6.1880   83.5190 O.3   148  TYR148     -0.2866
     27  N        -51.6080    9.0700   89.3030 N.3   285  ASN285     -0.1240
     28  CA       -51.0340   10.0060   88.3240 C.3   285  ASN285      0.1653
     29  C        -51.0630   11.4780   88.7670 C.2   285  ASN285      0.2266
     30  O        -50.9220   12.3780   87.9350 O.2   285  ASN285     -0.2867
     31  CB       -51.6990    9.7750   86.9430 C.3   285  ASN285      0.1155
     32  CG       -50.9690   10.4410   85.8000 C.2   285  ASN285      0.2627
     33  OD1      -51.5300   11.3350   85.2010 O.2   285  ASN285     -0.2716
     34  ND2      -49.7260   10.0050   85.4750 N.am  285  ASN285     -0.0877
     35  N        -45.9220   11.7050   90.4470 N.3   290  VAL290     -0.1231
     36  CA       -45.1870   11.5470   89.2260 C.3   290  VAL290      0.1692
     37  C        -43.9080   12.3230   89.1350 C.2   290  VAL290      0.2591
     38  O        -42.9900   11.8490   88.5550 O.2   290  VAL290     -0.2718
     39  CB       -46.0880   11.8850   87.9960 C.3   290  VAL290      0.0266
     40  CG1      -45.2870   11.8560   86.6680 C.3   290  VAL290      0.0020
     41  CG2      -47.2650   10.9120   87.9560 C.3   290  VAL290      0.0020
     42  N        -43.9240   13.5670   89.6330 N.am  291  MET291     -0.1979
     43  CA       -42.9430   14.5800   89.2960 C.3   291  MET291      0.1605
     44  C        -42.0580   14.9410   90.5150 C.2   291  MET291      0.2287
     45  O        -41.0920   15.6590   90.3530 O.2   291  MET291     -0.2864
     46  CB       -43.6610   15.8740   88.8670 C.3   291  MET291      0.0413
     47  CG       -44.3710   15.8520   87.5300 C.3   291  MET291      0.0598
     48  SD       -43.3890   15.1610   86.2100 S.3   291  MET291     -0.1393
     49  CE       -44.2900   15.4650   84.6750 C.3   291  MET291      0.0692
     50  N        -50.8280    0.9240   84.2370 N.3   310  LYS310     -0.1231
     51  CA       -49.6760    1.6910   83.7350 C.3   310  LYS310      0.1693
     52  C        -50.0880    2.6630   82.6390 C.2   310  LYS310      0.2593
     53  O        -50.7530    2.2760   81.6890 O.2   310  LYS310     -0.2718
     54  CB       -48.4810    0.8380   83.2590 C.3   310  LYS310      0.0285
     55  CG       -47.2450    1.6920   82.9360 C.3   310  LYS310      0.0035
     56  CD       -46.4880    2.1170   84.1970 C.3   310  LYS310      0.0206
     57  CE       -45.3630    3.1140   83.9990 C.3   310  LYS310      0.1093
     58  NZ       -45.9800    4.4550   83.7170 N.3   310  LYS310     -0.1314
     59  N        -49.8220    3.9730   82.8390 N.am  311  THR311     -0.1939
     60  CA       -49.9700    4.9300   81.7760 C.3   311  THR311      0.2028
     61  C        -48.6500    5.0410   81.0130 C.2   311  THR311      0.2643
     62  O        -47.5580    4.7360   81.5440 O.2   311  THR311     -0.2714
     63  CB       -50.3210    6.3400   82.3420 C.3   311  THR311      0.1808
     64  OG1      -49.3140    6.7130   83.2420 O.3   311  THR311     -0.2208
     65  CG2      -51.5800    6.2870   83.0900 C.3   311  THR311      0.0379
     66  N        -48.7370    5.5100   79.7910 N.am  312  GLY312     -0.1939
     67  CA       -47.5930    5.8420   78.9680 C.3   312  GLY312      0.2014
     68  C        -47.9210    6.9100   77.9140 C.2   312  GLY312      0.2639
     69  O        -48.9560    6.8530   77.2980 O.2   312  GLY312     -0.2714
     70  N        -46.9520    7.7760   77.6160 N.am  313  SER313     -0.1949
     71  CA       -47.0760    8.5310   76.4280 C.3   313  SER313      0.1924
     72  C        -45.7650    8.7910   75.7860 C.2   313  SER313      0.2314
     73  O        -44.7440    8.9530   76.4940 O.2   313  SER313     -0.2863
     74  CB       -47.6990    9.9230   76.7960 C.3   313  SER313      0.2116
     75  OG       -48.9760    9.7840   77.4220 O.3   313  SER313     -0.2180
     76  N        -51.8530   12.0020   72.1070 N.3   338  ARG338     -0.1245
     77  CA       -52.0640   12.1210   73.5290 C.3   338  ARG338      0.1563
     78  C        -53.4480   12.6280   73.9280 C.2   338  ARG338      0.2260
     79  O        -54.0350   13.4990   73.2910 O.2   338  ARG338     -0.2867
     80  CB       -51.0330   13.0180   74.1570 C.3   338  ARG338      0.0307
     81  CG       -49.6610   12.4600   74.0810 C.3   338  ARG338      0.0489
     82  CD       -48.6770   13.4460   74.6970 C.3   338  ARG338      0.2205
     83  NE       -48.8050   13.3830   76.1350 N.pl3 338  ARG338     -0.0865
     84  CZ       -47.8650   13.7120   77.0100 C.cat 338  ARG338      0.5346
     85  NH1      -46.7380   14.2100   76.6090 N.pl3 338  ARG338      0.1354
     86  NH2      -48.0810   13.5990   78.3020 N.pl3 338  ARG338      0.1354
     87  N        -54.3900   11.6410   80.9270 N.3   341  ASN341     -0.1240
     88  CA       -54.3560   10.3700   81.6440 C.3   341  ASN341      0.1653
     89  C        -55.6470   10.1400   82.4400 C.2   341  ASN341      0.2266
     90  O        -56.1600    8.9930   82.5180 O.2   341  ASN341     -0.2867
     91  CB       -53.1670   10.2480   82.5610 C.3   341  ASN341      0.1155
     92  CG       -51.8790    9.9380   81.8410 C.2   341  ASN341      0.2627
     93  OD1      -51.8270    9.2420   80.7860 O.2   341  ASN341     -0.2716
     94  ND2      -50.8050   10.3470   82.4500 N.am  341  ASN341     -0.0877
@<TRIPOS>BOND
     1    76    77    1
     2    79    78    2
     3    77    78    1
     4    77    80    1
     5    81    80    1
     6    81    82    1
     7    82    83    1
     8    72    71    1
     9    72    73    2
    10    83    84    2
    11    71    74    1
    12    71    70    1
    13    85    84    1
    14    74    75    1
    15    84    86    1
    16    69    68    2
    17    70    68   am
    18    68    67    1
    19     1     2    1
    20    67    66    1
    21     2     3    1
    22     2     5    1
    23     3     4    2
    24    66    61   am
    25     6     5    1
    26    93    92    2
    27    87    88    1
    28    61    62    2
    29    61    60    1
    30    88    89    1
    31    88    91    1
    32    53    52    2
    33    60    63    1
    34    60    59    1
    35    92    94   am
    36    92    91    1
    37    63    65    1
    38    63    64    1
    39    89    90    2
    40    52    59   am
    41    52    51    1
    42    55    54    1
    43    55    56    1
    44    54    51    1
    45    14    12    1
    46    10     9    2
    47    26    25    1
    48    58    57    1
    49    51    50    1
    50    12    13    1
    51    12    11    1
    52    57    56    1
    53     9     8    1
    54    25    24   ar
    55    25    23   ar
    56    49    48    1
    57    24    22   ar
    58    11     8    1
    59    33    32    2
    60     8     7    1
    61    34    32   am
    62    23    21   ar
    63    32    31    1
    64    22    20   ar
    65    48    47    1
    66    40    39    1
    67    21    20   ar
    68    31    28    1
    69    20    19    1
    70    47    46    1
    71    18    17    2
    72    17    16    1
    73    30    29    2
    74    41    39    1
    75    39    36    1
    76    19    16    1
    77    28    29    1
    78    28    27    1
    79    38    37    2
    80    16    15    1
    81    46    43    1
    82    37    36    1
    83    37    42   am
    84    36    35    1
    85    43    42    1
    86    43    44    1
    87    45    44    2
