@<TRIPOS>MOLECULE
tmp/4qd4B00.pdb
 92 89 0 0 0
SMALL
GASTEIGER

@<TRIPOS>ATOM
      1  N        -51.6080    9.0700   89.3030 N.3   285  ASN285     -0.1225
      2  CA       -51.0340   10.0060   88.3240 C.3   285  ASN285      0.1785
      3  C        -51.0630   11.4780   88.7670 C.2   285  ASN285      0.2598
      4  O        -50.9220   12.3780   87.9350 O.2   285  ASN285     -0.2718
      5  CB       -51.6990    9.7750   86.9430 C.3   285  ASN285      0.1169
      6  CG       -50.9690   10.4410   85.8000 C.2   285  ASN285      0.2627
      7  OD1      -51.5300   11.3350   85.2010 O.2   285  ASN285     -0.2716
      8  ND2      -49.7260   10.0050   85.4750 N.am  285  ASN285     -0.0877
      9  N        -51.1760   11.7420   90.0630 N.am  286  SER286     -0.1938
     10  CA       -50.9530   13.1340   90.5720 C.3   286  SER286      0.2055
     11  C        -49.5500   13.6660   90.2490 C.2   286  SER286      0.2642
     12  O        -48.6000   12.9280   90.1100 O.2   286  SER286     -0.2714
     13  CB       -51.1430   13.2130   92.1000 C.3   286  SER286      0.2130
     14  OG       -50.0370   12.5980   92.8080 O.3   286  SER286     -0.2179
     15  N        -49.4430   14.9880   90.1610 N.am  287  GLU287     -0.1976
     16  CA       -48.1510   15.6380   90.0620 C.3   287  GLU287      0.1602
     17  C        -47.2420   15.2800   91.2140 C.2   287  GLU287      0.2287
     18  O        -46.0510   15.0050   90.9780 O.2   287  GLU287     -0.2864
     19  CB       -48.3180   17.1600   89.9220 C.3   287  GLU287      0.0415
     20  CG       -46.9940   17.9340   89.8670 C.3   287  GLU287      0.1163
     21  CD       -47.1530   19.3780   89.4110 C.2   287  GLU287      0.3649
     22  OE1      -47.9250   19.6340   88.4660 O.co2 287  GLU287     -0.2457
     23  OE2      -46.5080   20.2690   90.0090 O.co2 287  GLU287     -0.2457
     24  N        -45.9220   11.7050   90.4470 N.3   290  VAL290     -0.1231
     25  CA       -45.1870   11.5470   89.2260 C.3   290  VAL290      0.1692
     26  C        -43.9080   12.3230   89.1350 C.2   290  VAL290      0.2591
     27  O        -42.9900   11.8490   88.5550 O.2   290  VAL290     -0.2718
     28  CB       -46.0880   11.8850   87.9960 C.3   290  VAL290      0.0266
     29  CG1      -45.2870   11.8560   86.6680 C.3   290  VAL290      0.0020
     30  CG2      -47.2650   10.9120   87.9560 C.3   290  VAL290      0.0020
     31  N        -43.9240   13.5670   89.6330 N.am  291  MET291     -0.1979
     32  CA       -42.9430   14.5800   89.2960 C.3   291  MET291      0.1605
     33  C        -42.0580   14.9410   90.5150 C.2   291  MET291      0.2287
     34  O        -41.0920   15.6590   90.3530 O.2   291  MET291     -0.2864
     35  CB       -43.6610   15.8740   88.8670 C.3   291  MET291      0.0413
     36  CG       -44.3710   15.8520   87.5300 C.3   291  MET291      0.0598
     37  SD       -43.3890   15.1610   86.2100 S.3   291  MET291     -0.1393
     38  CE       -44.2900   15.4650   84.6750 C.3   291  MET291      0.0692
     39  N        -51.8530   12.0020   72.1070 N.3   338  ARG338     -0.1231
     40  CA       -52.0640   12.1210   73.5290 C.3   338  ARG338      0.1694
     41  C        -53.4480   12.6280   73.9280 C.2   338  ARG338      0.2592
     42  O        -54.0350   13.4990   73.2910 O.2   338  ARG338     -0.2718
     43  CB       -51.0330   13.0180   74.1570 C.3   338  ARG338      0.0321
     44  CG       -49.6610   12.4600   74.0810 C.3   338  ARG338      0.0489
     45  CD       -48.6770   13.4460   74.6970 C.3   338  ARG338      0.2205
     46  NE       -48.8050   13.3830   76.1350 N.pl3 338  ARG338     -0.0865
     47  CZ       -47.8650   13.7120   77.0100 C.cat 338  ARG338      0.5346
     48  NH1      -46.7380   14.2100   76.6090 N.pl3 338  ARG338      0.1354
     49  NH2      -48.0810   13.5990   78.3020 N.pl3 338  ARG338      0.1354
     50  N        -54.0070   11.9900   74.9050 N.am  339  ILE339     -0.1966
     51  CA       -55.1360   12.5050   75.6770 C.3   339  ILE339      0.1712
     52  C        -54.8060   12.4280   77.1600 C.2   339  ILE339      0.2458
     53  O        -54.0730   11.4760   77.5920 O.2   339  ILE339     -0.2730
     54  CB       -56.4910   11.7960   75.3650 C.3   339  ILE339      0.0289
     55  CG1      -56.5610   10.4580   76.0110 C.3   339  ILE339      0.0022
     56  CG2      -56.7740   11.6860   73.8730 C.3   339  ILE339      0.0023
     57  CD1      -57.9500    9.7890   75.9140 C.3   339  ILE339      0.0001
     58  N        -55.4790   13.2670   77.9830 N.am  340  PRO340     -0.2716
     59  CA       -55.1810   13.3140   79.3720 C.3   340  PRO340      0.1536
     60  C        -55.3550   11.9620   80.0670 C.2   340  PRO340      0.2599
     61  O        -56.2980   11.2660   79.7970 O.2   340  PRO340     -0.2715
     62  CB       -56.1830   14.3300   79.9510 C.3   340  PRO340      0.0310
     63  CG       -56.4950   15.2710   78.7820 C.3   340  PRO340      0.0237
     64  CD       -56.5010   14.2930   77.6140 C.3   340  PRO340      0.0939
     65  N        -54.3900   11.6410   80.9270 N.am  341  ASN341     -0.1959
     66  CA       -54.3560   10.3700   81.6440 C.3   341  ASN341      0.1819
     67  C        -55.6470   10.1400   82.4400 C.2   341  ASN341      0.2621
     68  O        -56.1600    8.9930   82.5180 O.2   341  ASN341     -0.2715
     69  CB       -53.1670   10.2480   82.5610 C.3   341  ASN341      0.1195
     70  CG       -51.8790    9.9380   81.8410 C.2   341  ASN341      0.2630
     71  OD1      -51.8270    9.2420   80.7860 O.2   341  ASN341     -0.2716
     72  ND2      -50.8050   10.3470   82.4500 N.am  341  ASN341     -0.0877
     73  N        -56.1880   11.2100   83.0180 N.am  342  GLU342     -0.1977
     74  CA       -57.4520   11.0830   83.7320 C.3   342  GLU342      0.1602
     75  C        -58.5380   10.4950   82.8720 C.2   342  GLU342      0.2287
     76  O        -59.3500    9.6940   83.3760 O.2   342  GLU342     -0.2864
     77  CB       -57.8290   12.4280   84.3270 C.3   342  GLU342      0.0415
     78  CG       -59.2670   12.7420   84.6470 C.3   342  GLU342      0.1163
     79  CD       -59.3230   14.0860   85.4080 C.2   342  GLU342      0.3649
     80  OE1      -59.6060   14.0800   86.6350 O.co2 342  GLU342     -0.2457
     81  OE2      -58.9720   15.1350   84.7970 O.co2 342  GLU342     -0.2457
     82  N        -58.2840    8.5210   80.1810 N.3   344  ARG344     -0.1245
     83  CA       -57.9230    7.0970   79.9650 C.3   344  ARG344      0.1563
     84  C        -58.3860    6.2180   81.1160 C.2   344  ARG344      0.2260
     85  O        -59.0280    5.1620   80.8950 O.2   344  ARG344     -0.2867
     86  CB       -56.4020    6.9330   79.8140 C.3   344  ARG344      0.0307
     87  CG       -55.7610    7.8340   78.7790 C.3   344  ARG344      0.0489
     88  CD       -54.2980    7.5720   78.5310 C.3   344  ARG344      0.2205
     89  NE       -53.6460    8.7750   77.9740 N.pl3 344  ARG344     -0.0865
     90  CZ       -52.3330    8.8530   77.7070 C.cat 344  ARG344      0.5346
     91  NH1      -51.5490    7.7630   77.9530 N.pl3 344  ARG344      0.1354
     92  NH2      -51.7730   10.0130   77.2920 N.pl3 344  ARG344      0.1354
@<TRIPOS>BOND
     1    39    40    1
     2    42    41    2
     3    40    41    1
     4    40    43    1
     5    56    54    1
     6    41    50   am
     7    44    43    1
     8    44    45    1
     9    45    46    1
    10    50    51    1
    11    54    51    1
    12    54    55    1
    13    51    52    1
    14    57    55    1
    15    46    47    2
    16    48    47    1
    17    47    49    1
    18    52    53    2
    19    52    58   am
    20    92    90    1
    21    64    58    1
    22    64    63    1
    23    90    91    1
    24    90    89    2
    25    89    88    1
    26    58    59    1
    27    88    87    1
    28    87    86    1
    29    63    62    1
    30    59    62    1
    31    59    60    1
    32    61    60    2
    33    86    83    1
    34    83    82    1
    35    83    84    1
    36    60    65   am
    37    71    70    2
    38    85    84    2
    39    65    66    1
    40    66    67    1
    41    66    69    1
    42    70    72   am
    43    70    69    1
    44    67    68    2
    45    67    73   am
    46    75    76    2
    47    75    74    1
    48    73    74    1
    49    74    77    1
    50    77    78    1
    51    78    79    1
    52    38    37    1
    53    81    79   ar
    54     7     6    2
    55    79    80   ar
    56     8     6   am
    57     6     5    1
    58    37    36    1
    59    29    28    1
    60     5     2    1
    61    36    35    1
    62     4     3    2
    63    30    28    1
    64    28    25    1
    65     2     3    1
    66     2     1    1
    67    22    21   ar
    68    27    26    2
    69     3     9   am
    70    35    32    1
    71    26    25    1
    72    26    31   am
    73    25    24    1
    74    32    31    1
    75    32    33    1
    76    21    20    1
    77    21    23   ar
    78    20    19    1
    79    19    16    1
    80    16    15    1
    81    16    17    1
    82     9    10    1
    83    12    11    2
    84    15    11   am
    85    11    10    1
    86    34    33    2
    87    10    13    1
    88    18    17    2
    89    13    14    1
