@<TRIPOS>MOLECULE
tmp/4qd6B01.pdb
 147 143 0 0 0
SMALL
GASTEIGER

@<TRIPOS>ATOM
      1  N         -4.3460   29.1240   45.5140 N.3    33  LYS33      -0.1245
      2  CA        -4.1630   28.9580   46.9750 C.3    33  LYS33       0.1561
      3  C         -2.9040   28.1820   47.3000 C.2    33  LYS33       0.2260
      4  O         -2.5930   27.1760   46.6720 O.2    33  LYS33      -0.2867
      5  CB        -5.3350   28.2590   47.6250 C.3    33  LYS33       0.0271
      6  CG        -6.6370   28.9780   47.3900 C.3    33  LYS33       0.0035
      7  CD        -7.6670   28.7410   48.4800 C.3    33  LYS33       0.0206
      8  CE        -9.0070   29.2240   47.9620 C.3    33  LYS33       0.1093
      9  NZ        -9.8540   29.6360   49.1080 N.3    33  LYS33      -0.1314
     10  N         -0.0670   27.6880   50.9390 N.3    35  ALA35      -0.1231
     11  CA        -0.0050   27.6990   52.3530 C.3    35  ALA35       0.1694
     12  C          1.4060   28.1200   52.5430 C.2    35  ALA35       0.2592
     13  O          2.3110   27.6290   51.8410 O.2    35  ALA35      -0.2718
     14  CB        -0.2250   26.2940   52.8920 C.3    35  ALA35       0.0304
     15  N          1.6150   29.0280   53.4800 N.am   36  ILE36      -0.1966
     16  CA         2.9270   29.6210   53.6290 C.3    36  ILE36       0.1727
     17  C          3.3850   29.4460   55.0490 C.2    36  ILE36       0.2616
     18  O          2.7470   29.9360   55.9810 O.2    36  ILE36      -0.2715
     19  CB         2.9310   31.1250   53.2430 C.3    36  ILE36       0.0290
     20  CG1        2.5540   31.3230   51.7660 C.3    36  ILE36       0.0022
     21  CG2        4.2900   31.7440   53.5190 C.3    36  ILE36       0.0023
     22  CD1        1.5280   32.4260   51.5140 C.3    36  ILE36       0.0001
     23  N          4.4860   28.7130   55.1820 N.am   37  LYS37      -0.1977
     24  CA         5.1150   28.4310   56.4520 C.3    37  LYS37       0.1596
     25  C          6.2600   29.4230   56.6760 C.2    37  LYS37       0.2287
     26  O          7.2690   29.4130   55.9640 O.2    37  LYS37      -0.2864
     27  CB         5.6080   26.9620   56.4850 C.3    37  LYS37       0.0298
     28  CG         6.3610   26.4810   57.7410 C.3    37  LYS37       0.0038
     29  CD         6.1730   24.9700   57.9580 C.3    37  LYS37       0.0206
     30  CE         7.1220   24.4020   59.0130 C.3    37  LYS37       0.1093
     31  NZ         6.7700   23.0010   59.4050 N.3    37  LYS37      -0.1314
     32  N          2.5400   16.2000   50.9470 N.3    59  VAL59      -0.1245
     33  CA         2.3260   17.6360   50.7300 C.3    59  VAL59       0.1561
     34  C          3.4010   18.1890   49.8220 C.2    59  VAL59       0.2260
     35  O          4.5960   18.0930   50.1210 O.2    59  VAL59      -0.2867
     36  CB         2.2180   18.4090   52.0660 C.3    59  VAL59       0.0252
     37  CG1        2.2710   19.9170   51.8530 C.3    59  VAL59       0.0019
     38  CG2        0.8780   18.0550   52.6940 C.3    59  VAL59       0.0019
     39  N          3.8050   25.9890   50.0100 N.3    75  PHE75      -0.1227
     40  CA         3.3150   24.6170   49.9310 C.3    75  PHE75       0.1736
     41  C          1.9630   24.5290   49.3010 C.2    75  PHE75       0.2595
     42  O          1.2190   25.4970   49.1820 O.2    75  PHE75      -0.2718
     43  CB         3.1340   24.0000   51.3300 C.3    75  PHE75       0.0547
     44  CG         4.4000   23.5440   51.9820 C.ar   75  PHE75      -0.0202
     45  CD1        4.9340   24.2530   53.0490 C.ar   75  PHE75      -0.0042
     46  CD2        5.0420   22.3650   51.5620 C.ar   75  PHE75      -0.0042
     47  CE1        6.0990   23.8150   53.6810 C.ar   75  PHE75      -0.0003
     48  CE2        6.2020   21.9220   52.1900 C.ar   75  PHE75      -0.0003
     49  CZ         6.7380   22.6640   53.2440 C.ar   75  PHE75      -0.0000
     50  N          1.6350   23.3020   48.9800 N.am   76  GLU76      -0.1965
     51  CA         0.2980   22.8890   48.6660 C.3    76  GLU76       0.1733
     52  C         -0.6530   23.4480   49.6970 C.2    76  GLU76       0.2616
     53  O         -0.3880   23.3710   50.9120 O.2    76  GLU76      -0.2715
     54  CB         0.2850   21.3600   48.7290 C.3    76  GLU76       0.0429
     55  CG        -0.8900   20.7330   48.0270 C.3    76  GLU76       0.1163
     56  CD        -0.6380   19.2800   47.6840 C.2    76  GLU76       0.3649
     57  OE1       -1.6130   18.5860   47.4390 O.co2  76  GLU76      -0.2457
     58  OE2        0.5250   18.8450   47.6390 O.co2  76  GLU76      -0.2457
     59  N         -1.7570   24.0150   49.2350 N.am   77  PHE77      -0.1960
     60  CA        -2.8150   24.3330   50.1740 C.3    77  PHE77       0.1771
     61  C         -3.7480   23.1470   50.3150 C.2    77  PHE77       0.2619
     62  O         -4.2690   22.6300   49.3120 O.2    77  PHE77      -0.2715
     63  CB        -3.6130   25.5930   49.8260 C.3    77  PHE77       0.0574
     64  CG        -4.7090   25.8890   50.8210 C.ar   77  PHE77      -0.0200
     65  CD1       -4.3980   26.2690   52.1250 C.ar   77  PHE77      -0.0042
     66  CD2       -6.0570   25.7620   50.4640 C.ar   77  PHE77      -0.0042
     67  CE1       -5.4030   26.5380   53.0650 C.ar   77  PHE77      -0.0003
     68  CE2       -7.0670   26.0260   51.3920 C.ar   77  PHE77      -0.0003
     69  CZ        -6.7360   26.4180   52.7010 C.ar   77  PHE77      -0.0000
     70  N         -3.9360   22.7240   51.5700 N.am   78  MET78      -0.1963
     71  CA        -4.7930   21.5970   51.8910 C.3    78  MET78       0.1736
     72  C         -6.0770   22.0560   52.5650 C.2    78  MET78       0.2616
     73  O         -6.1020   22.4800   53.7170 O.2    78  MET78      -0.2715
     74  CB        -4.0410   20.5820   52.7270 C.3    78  MET78       0.0427
     75  CG        -2.7780   20.1050   52.0480 C.3    78  MET78       0.0599
     76  SD        -3.1910   19.0750   50.6360 S.3    78  MET78      -0.1393
     77  CE        -3.9430   17.6860   51.4520 C.3    78  MET78       0.0692
     78  N         -7.1480   21.9200   51.8140 N.am   79  GLU79      -0.1963
     79  CA        -8.4190   22.5700   52.0920 C.3    79  GLU79       0.1733
     80  C         -8.9700   22.3910   53.4860 C.2    79  GLU79       0.2616
     81  O         -9.5140   23.3330   54.0280 O.2    79  GLU79      -0.2715
     82  CB        -9.4490   22.0580   51.1040 C.3    79  GLU79       0.0429
     83  CG       -10.3640   23.1170   50.5420 C.3    79  GLU79       0.1163
     84  CD       -10.7060   22.8250   49.0910 C.2    79  GLU79       0.3649
     85  OE1      -10.6390   23.7790   48.2790 O.co2  79  GLU79      -0.2457
     86  OE2      -11.0080   21.6430   48.7570 O.co2  79  GLU79      -0.2457
     87  N         -8.8280   21.1960   54.0570 N.am   80  HIS80      -0.1959
     88  CA        -9.6030   20.7970   55.2510 C.3    80  HIS80       0.1787
     89  C         -8.8070   20.7240   56.5380 C.2    80  HIS80       0.2621
     90  O         -9.2830   20.2140   57.5300 O.2    80  HIS80      -0.2715
     91  CB       -10.3490   19.4830   54.9880 C.3    80  HIS80       0.0785
     92  CG       -11.3400   19.5880   53.8710 C.ar   80  HIS80       0.0821
     93  ND1      -12.6510   19.9690   54.0720 N.ar   80  HIS80      -0.2267
     94  CD2      -11.1990   19.4260   52.5370 C.ar   80  HIS80       0.1154
     95  CE1      -13.2800   20.0090   52.9110 C.ar   80  HIS80       0.1986
     96  NE2      -12.4200   19.6900   51.9610 N.ar   80  HIS80      -0.2212
     97  N         -7.5960   21.2520   56.5400 N.am   81  GLY81      -0.1940
     98  CA        -6.8140   21.2590   57.7780 C.3    81  GLY81       0.2014
     99  C         -6.1940   19.9360   58.1600 C.2    81  GLY81       0.2639
    100  O         -6.0530   19.0720   57.3210 O.2    81  GLY81      -0.2714
    101  N         -5.8140   19.8110   59.4330 N.am   82  CYS82      -0.1967
    102  CA        -5.0740   18.6750   59.9480 C.3    82  CYS82       0.1712
    103  C         -5.9720   17.5030   60.2800 C.2    82  CYS82       0.2296
    104  O         -7.1390   17.6640   60.6800 O.2    82  CYS82      -0.2864
    105  CB        -4.2710   19.0740   61.1650 C.3    82  CYS82       0.0983
    106  SG        -5.1940   19.2570   62.7080 S.3    82  CYS82      -0.0798
    107  N         -1.9790   14.9900   63.5200 N.3   126  ARG126     -0.1231
    108  CA        -1.8210   16.4670   63.4720 C.3   126  ARG126      0.1694
    109  C         -0.8580   16.8890   62.3540 C.2   126  ARG126      0.2592
    110  O         -1.0480   17.9520   61.7370 O.2   126  ARG126     -0.2718
    111  CB        -1.2990   17.0060   64.8090 C.3   126  ARG126      0.0321
    112  CG        -0.1200   16.1870   65.2930 C.3   126  ARG126      0.0489
    113  CD         0.6080   16.7810   66.4640 C.3   126  ARG126      0.2205
    114  NE         1.3230   15.6990   67.1290 N.pl3 126  ARG126     -0.0865
    115  CZ         2.6260   15.5280   67.0070 C.cat 126  ARG126      0.5346
    116  NH1        3.3060   16.3960   66.2620 N.pl3 126  ARG126      0.1354
    117  NH2        3.2540   14.5300   67.6370 N.pl3 126  ARG126      0.1354
    118  N          0.1550   16.0540   62.0790 N.am  127  ASN127     -0.1974
    119  CA         1.0110   16.2630   60.9090 C.3   127  ASN127      0.1688
    120  C          0.4530   15.7940   59.5610 C.2   127  ASN127      0.2292
    121  O          1.1370   15.8690   58.5620 O.2   127  ASN127     -0.2864
    122  CB         2.3840   15.6530   61.1480 C.3   127  ASN127      0.1181
    123  CG         3.1900   16.4330   62.1720 C.2   127  ASN127      0.2629
    124  OD1        3.1100   17.6660   62.2070 O.2   127  ASN127     -0.2716
    125  ND2        3.9730   15.7240   63.0170 N.am  127  ASN127     -0.0877
    126  N         -2.5920   16.0580   56.5650 N.3   129  LEU129     -0.1245
    127  CA        -3.4660   17.1110   56.1630 C.3   129  LEU129      0.1561
    128  C         -4.4700   16.4990   55.2840 C.2   129  LEU129      0.2260
    129  O         -4.1680   15.5350   54.6240 O.2   129  LEU129     -0.2867
    130  CB        -2.6930   18.1710   55.4130 C.3   129  LEU129      0.0270
    131  CG        -1.6090   18.8030   56.2860 C.3   129  LEU129      0.0019
    132  CD1       -0.8560   19.8580   55.4930 C.3   129  LEU129      0.0001
    133  CD2       -2.2480   19.4240   57.5150 C.3   129  LEU129      0.0001
    134  N          2.5630   15.7890   55.8930 N.3   139  SER139     -0.1202
    135  CA         3.3630   16.9990   55.8460 C.3   139  SER139      0.2020
    136  C          4.3400   16.9170   56.9750 C.2   139  SER139      0.2618
    137  O          4.3360   15.9070   57.6990 O.2   139  SER139     -0.2717
    138  CB         2.5530   18.2940   55.8820 C.3   139  SER139      0.2103
    139  OG         2.0170   18.5370   57.1690 O.3   139  SER139     -0.2182
    140  N          5.1990   17.9480   57.0650 N.am  140  ASP140     -0.1973
    141  CA         6.2470   18.1290   58.0800 C.3   140  ASP140      0.1709
    142  C          7.3740   17.1140   58.1470 C.2   140  ASP140      0.2293
    143  O          7.7100   16.6430   59.2310 O.2   140  ASP140     -0.2864
    144  CB         5.6470   18.3400   59.4680 C.3   140  ASP140      0.1436
    145  CG         5.1740   19.7600   59.6770 C.2   140  ASP140      0.3671
    146  OD1        5.4880   20.6190   58.8150 O.co2 140  ASP140     -0.2456
    147  OD2        4.4920   20.0190   60.6960 O.co2 140  ASP140     -0.2456
@<TRIPOS>BOND
     1     1     2    1
     2     4     3    2
     3     2     3    1
     4     2     5    1
     5     6     5    1
     6     6     7    1
     7    57    56   ar
     8    58    56   ar
     9    56    55    1
    10     8     7    1
    11     8     9    1
    12    55    54    1
    13    85    84   ar
    14    51    54    1
    15    51    50    1
    16    51    52    1
    17    86    84   ar
    18    50    41   am
    19    84    83    1
    20    42    41    2
    21    59    52   am
    22    59    60    1
    23    41    40    1
    24    62    61    2
    25    52    53    2
    26    34    35    2
    27    34    33    1
    28    63    60    1
    29    63    64    1
    30    40    39    1
    31    40    43    1
    32    60    61    1
    33    61    70   am
    34    66    64   ar
    35    66    68   ar
    36    83    82    1
    37    76    77    1
    38    76    75    1
    39    33    32    1
    40    33    36    1
    41    64    65   ar
    42    10    11    1
    43    82    79    1
    44    43    44    1
    45    68    69   ar
    46    22    20    1
    47    46    44   ar
    48    46    48   ar
    49    70    71    1
    50    20    19    1
    51    78    79    1
    52    78    72   am
    53    13    12    2
    54    37    36    1
    55    71    72    1
    56    71    74    1
    57    96    94   ar
    58    96    95   ar
    59    44    45   ar
    60    75    74    1
    61    36    38    1
    62    79    80    1
    63    65    67   ar
    64    48    49   ar
    65    11    12    1
    66    11    14    1
    67    94    92   ar
    68    12    15   am
    69    72    73    2
    70    69    67   ar
    71    95    93   ar
    72    45    47   ar
    73    19    21    1
    74    19    16    1
    75    49    47   ar
    76    15    16    1
    77    80    81    2
    78    80    87   am
    79    16    17    1
    80    92    93   ar
    81    92    91    1
    82    87    88    1
    83   129   128    2
    84    91    88    1
    85    17    23   am
    86    17    18    2
    87    23    24    1
    88    88    89    1
    89   128   127    1
    90   130   127    1
    91   130   131    1
    92   132   131    1
    93   135   138    1
    94   135   134    1
    95   135   136    1
    96   138   139    1
    97    26    25    2
    98   127   126    1
    99   131   133    1
   100    24    27    1
   101    24    25    1
   102    27    28    1
   103    89    97   am
   104    89    90    2
   105    97    98    1
   106   136   140   am
   107   136   137    2
   108   140   141    1
   109   100    99    2
   110    28    29    1
   111    98    99    1
   112    29    30    1
   113   141   142    1
   114   141   144    1
   115   142   143    2
   116    99   101   am
   117   121   120    2
   118   146   145   ar
   119    30    31    1
   120   101   102    1
   121   144   145    1
   122   120   119    1
   123   145   147   ar
   124   102   103    1
   125   102   105    1
   126   103   104    2
   127   119   122    1
   128   119   118    1
   129   122   123    1
   130   105   106    1
   131   110   109    2
   132   118   109   am
   133   123   124    2
   134   123   125   am
   135   109   108    1
   136   108   107    1
   137   108   111    1
   138   111   112    1
   139   112   113    1
   140   116   115    1
   141   113   114    1
   142   115   114    2
   143   115   117    1
