@<TRIPOS>MOLECULE
tmp/4qd8C01.pdb
 110 109 0 0 0
SMALL
GASTEIGER

@<TRIPOS>ATOM
      1  N         76.0690   67.4850   23.3030 N.3    48  GLN48      -0.1231
      2  CA        76.4770   68.8770   23.4400 C.3    48  GLN48       0.1683
      3  C         77.3440   69.1810   22.2060 C.2    48  GLN48       0.2434
      4  O         77.6250   68.2690   21.4230 O.2    48  GLN48      -0.2733
      5  CB        77.1900   69.1240   24.7910 C.3    48  GLN48       0.0380
      6  CG        78.0820   68.0020   25.3160 C.3    48  GLN48       0.0905
      7  CD        79.4610   68.0270   24.6970 C.2    48  GLN48       0.2608
      8  OE1       79.6200   67.7590   23.5130 O.2    48  GLN48      -0.2717
      9  NE2       80.4640   68.3560   25.4960 N.am   48  GLN48      -0.0878
     10  N         77.7340   70.4510   21.9980 N.am   49  PRO49      -0.2718
     11  CA        78.3750   70.8160   20.7270 C.3    49  PRO49       0.1535
     12  C         79.6710   70.0720   20.3730 C.2    49  PRO49       0.2598
     13  O         80.0830   70.1410   19.2140 O.2    49  PRO49      -0.2715
     14  CB        78.6600   72.3080   20.9080 C.3    49  PRO49       0.0310
     15  CG        77.5540   72.7730   21.8130 C.3    49  PRO49       0.0237
     16  CD        77.4080   71.6500   22.7960 C.3    49  PRO49       0.0939
     17  N         80.2980   69.3820   21.3200 N.am   50  PHE50      -0.1974
     18  CA        81.5570   68.6910   21.0240 C.3    50  PHE50       0.1639
     19  C         81.4060   67.1860   20.7760 C.2    50  PHE50       0.2290
     20  O         82.3990   66.4660   20.6670 O.2    50  PHE50      -0.2864
     21  CB        82.5990   68.9810   22.1070 C.3    50  PHE50       0.0560
     22  CG        82.8350   70.4470   22.3240 C.ar   50  PHE50      -0.0200
     23  CD1       83.7780   71.1270   21.5700 C.ar   50  PHE50      -0.0042
     24  CD2       82.0830   71.1570   23.2510 C.ar   50  PHE50      -0.0042
     25  CE1       83.9890   72.4840   21.7540 C.ar   50  PHE50      -0.0003
     26  CE2       82.2810   72.5160   23.4370 C.ar   50  PHE50      -0.0003
     27  CZ        83.2370   73.1810   22.6910 C.ar   50  PHE50      -0.0000
     28  N         79.8060   64.8330   22.6660 N.3    52  LEU52      -0.1231
     29  CA        79.5460   63.9920   23.8380 C.3    52  LEU52       0.1693
     30  C         78.0890   64.1460   24.2670 C.2    52  LEU52       0.2592
     31  O         77.4520   65.1460   23.9460 O.2    52  LEU52      -0.2718
     32  CB        80.4360   64.4010   25.0140 C.3    52  LEU52       0.0284
     33  CG        81.9590   64.3020   24.9330 C.3    52  LEU52       0.0019
     34  CD1       82.5740   64.9550   26.1740 C.3    52  LEU52       0.0001
     35  CD2       82.3760   62.8590   24.8290 C.3    52  LEU52       0.0001
     36  N         77.5640   63.1560   24.9850 N.am   53  LEU53      -0.1966
     37  CA        76.2490   63.2760   25.6010 C.3    53  LEU53       0.1728
     38  C         76.2640   64.4940   26.5300 C.2    53  LEU53       0.2616
     39  O         77.1460   64.6170   27.3780 O.2    53  LEU53      -0.2715
     40  CB        75.9280   62.0180   26.4090 C.3    53  LEU53       0.0311
     41  CG        74.6220   61.9760   27.2040 C.3    53  LEU53       0.0022
     42  CD1       73.4160   62.0630   26.2780 C.3    53  LEU53       0.0001
     43  CD2       74.5600   60.7150   28.0510 C.3    53  LEU53       0.0001
     44  N         75.2970   65.3900   26.3490 N.am   54  HIS54      -0.1959
     45  CA        75.1630   66.5900   27.1850 C.3    54  HIS54       0.1787
     46  C         74.8530   66.1480   28.6170 C.2    54  HIS54       0.2620
     47  O         73.9830   65.3080   28.8370 O.2    54  HIS54      -0.2715
     48  CB        74.0190   67.4310   26.6130 C.3    54  HIS54       0.0785
     49  CG        73.9150   68.8230   27.1560 C.ar   54  HIS54       0.0821
     50  ND1       73.6310   69.1020   28.4800 N.ar   54  HIS54      -0.2267
     51  CD2       73.9700   70.0230   26.5260 C.ar   54  HIS54       0.1154
     52  CE1       73.5600   70.4060   28.6470 C.ar   54  HIS54       0.1986
     53  NE2       73.7450   70.9940   27.4800 N.ar   54  HIS54      -0.2212
     54  N         75.5480   66.7130   29.6040 N.am   55  GLY55      -0.1954
     55  CA        75.3340   66.3000   30.9810 C.3    55  GLY55       0.1869
     56  C         73.9000   66.5450   31.4220 C.2    55  GLY55       0.2309
     57  O         73.3560   65.8080   32.2390 O.2    55  GLY55      -0.2863
     58  N         79.0030   63.4670   36.7670 N.3    90  HIS90      -0.1226
     59  CA        79.2770   63.0150   35.4130 C.3    90  HIS90       0.1752
     60  C         80.5920   62.2640   35.4210 C.2    90  HIS90       0.2596
     61  O         81.6420   62.8380   35.7150 O.2    90  HIS90      -0.2718
     62  CB        79.3330   64.2130   34.4580 C.3    90  HIS90       0.0759
     63  CG        78.0690   65.0110   34.4390 C.ar   90  HIS90       0.0818
     64  ND1       76.8420   64.4450   34.1710 N.ar   90  HIS90      -0.2268
     65  CD2       77.8340   66.3260   34.6750 C.ar   90  HIS90       0.1154
     66  CE1       75.9060   65.3740   34.2370 C.ar   90  HIS90       0.1986
     67  NE2       76.4770   66.5240   34.5430 N.ar   90  HIS90      -0.2212
     68  N         80.5240   60.9690   35.1090 N.am   91  LEU91      -0.1966
     69  CA        81.6420   60.0720   35.3860 C.3    91  LEU91       0.1728
     70  C         82.4730   59.7760   34.1470 C.2    91  LEU91       0.2616
     71  O         83.7050   59.7600   34.2070 O.2    91  LEU91      -0.2715
     72  CB        81.1230   58.7660   35.9760 C.3    91  LEU91       0.0311
     73  CG        80.2320   58.9460   37.2080 C.3    91  LEU91       0.0022
     74  CD1       79.6060   57.6150   37.6310 C.3    91  LEU91       0.0001
     75  CD2       81.0020   59.5930   38.3460 C.3    91  LEU91       0.0001
     76  N         81.7860   59.5340   33.0360 N.am   92  ARG92      -0.1963
     77  CA        82.4300   59.2370   31.7610 C.3    92  ARG92       0.1729
     78  C         81.6400   59.8350   30.6230 C.2    92  ARG92       0.2616
     79  O         80.4070   59.8390   30.6470 O.2    92  ARG92      -0.2715
     80  CB        82.4660   57.7250   31.5200 C.3    92  ARG92       0.0348
     81  CG        83.3440   56.9540   32.4430 C.3    92  ARG92       0.0492
     82  CD        83.4240   55.5130   31.9750 C.3    92  ARG92       0.2205
     83  NE        84.4650   54.7870   32.6880 N.pl3  92  ARG92      -0.0865
     84  CZ        84.3280   54.3030   33.9190 C.cat  92  ARG92       0.5346
     85  NH1       83.1900   54.4810   34.5860 N.pl3  92  ARG92       0.1354
     86  NH2       85.3340   53.6480   34.4860 N.pl3  92  ARG92       0.1354
     87  N         82.3420   60.2930   29.5950 N.am   93  GLY93      -0.1955
     88  CA        81.6720   60.7720   28.4020 C.3    93  GLY93       0.1869
     89  C         81.1400   59.6350   27.5530 C.2    93  GLY93       0.2309
     90  O         81.7160   58.5430   27.5290 O.2    93  GLY93      -0.2863
     91  N         79.5330   58.9640   23.4680 N.3    95  ARG95      -0.1245
     92  CA        79.4430   59.6020   22.1610 C.3    95  ARG95       0.1563
     93  C         78.3750   58.9940   21.2640 C.2    95  ARG95       0.2260
     94  O         77.8240   59.6690   20.4110 O.2    95  ARG95      -0.2867
     95  CB        80.8000   59.5810   21.4550 C.3    95  ARG95       0.0307
     96  CG        81.8040   60.5380   22.0680 C.3    95  ARG95       0.0489
     97  CD        83.1690   60.4720   21.3950 C.3    95  ARG95       0.2205
     98  NE        84.0950   61.4420   21.9850 N.pl3  95  ARG95      -0.0865
     99  CZ        84.3050   62.6660   21.5070 C.cat  95  ARG95       0.5346
    100  NH1       83.6670   63.0770   20.4190 N.pl3  95  ARG95       0.1354
    101  NH2       85.1590   63.4810   22.1150 N.pl3  95  ARG95       0.1354
    102  N         79.7870   50.4300   31.4810 N.3   125  LYS125     -0.1245
    103  CA        80.5530   51.2040   32.4550 C.3   125  LYS125      0.1561
    104  C         79.7740   52.4340   32.9200 C.2   125  LYS125      0.2260
    105  O         79.1800   53.1310   32.0970 O.2   125  LYS125     -0.2867
    106  CB        81.8970   51.6380   31.8750 C.3   125  LYS125      0.0271
    107  CG        82.8810   50.4970   31.6770 C.3   125  LYS125      0.0035
    108  CD        84.1890   51.0140   31.1230 C.3   125  LYS125      0.0206
    109  CE        83.9430   51.8690   29.8940 C.3   125  LYS125      0.1093
    110  NZ        85.1940   52.4620   29.3450 N.3   125  LYS125     -0.1314
@<TRIPOS>BOND
     1    13    12    2
     2    12    11    1
     3    12    17   am
     4    94    93    2
     5   100    99    1
     6    20    19    2
     7    11    14    1
     8    11    10    1
     9    19    18    1
    10    14    15    1
    11    18    17    1
    12    18    21    1
    13    93    92    1
    14    97    98    1
    15    97    96    1
    16     4     3    2
    17    95    96    1
    18    95    92    1
    19    99    98    2
    20    99   101    1
    21    23    25   ar
    22    23    22   ar
    23    25    27   ar
    24    15    16    1
    25    10     3   am
    26    10    16    1
    27    21    22    1
    28    92    91    1
    29     3     2    1
    30    22    24   ar
    31    28    29    1
    32    27    26   ar
    33    24    26   ar
    34     1     2    1
    35     2     5    1
    36     8     7    2
    37    29    30    1
    38    29    32    1
    39    31    30    2
    40    30    36   am
    41     7     6    1
    42     7     9   am
    43     5     6    1
    44    35    33    1
    45    33    32    1
    46    33    34    1
    47    36    37    1
    48    37    40    1
    49    37    38    1
    50    42    41    1
    51    44    38   am
    52    44    45    1
    53    40    41    1
    54    51    49   ar
    55    51    53   ar
    56    38    39    2
    57    48    49    1
    58    48    45    1
    59    49    50   ar
    60    45    46    1
    61    41    43    1
    62    53    52   ar
    63    90    89    2
    64    89    88    1
    65    88    87    1
    66    50    52   ar
    67    46    47    2
    68    46    54   am
    69   110   109    1
    70    87    78   am
    71    54    55    1
    72   109   108    1
    73    78    79    2
    74    78    77    1
    75    55    56    1
    76   108   107    1
    77    56    57    2
    78   102   103    1
    79    80    77    1
    80    80    81    1
    81   107   106    1
    82    77    76    1
    83   106   103    1
    84    82    81    1
    85    82    83    1
    86   105   104    2
    87   103   104    1
    88    83    84    2
    89    76    70   am
    90    84    86    1
    91    84    85    1
    92    70    71    2
    93    70    69    1
    94    64    66   ar
    95    64    63   ar
    96    66    67   ar
    97    63    62    1
    98    63    65   ar
    99    62    59    1
   100    67    65   ar
   101    68    69    1
   102    68    60   am
   103    69    72    1
   104    59    60    1
   105    59    58    1
   106    60    61    2
   107    72    73    1
   108    73    74    1
   109    73    75    1
