@<TRIPOS>MOLECULE
tmp/4qd8C02.pdb
 90 86 0 0 0
SMALL
GASTEIGER

@<TRIPOS>ATOM
      1  N         65.6610   62.3800   35.6820 N.3    63  GLU63      -0.1231
      2  CA        64.4460   62.9470   36.2540 C.3    63  GLU63       0.1699
      3  C         63.1560   62.3710   35.6530 C.2    63  GLU63       0.2592
      4  O         62.1930   62.1760   36.3880 O.2    63  GLU63      -0.2718
      5  CB        64.4620   64.4920   36.2430 C.3    63  GLU63       0.0402
      6  CG        63.5640   65.0530   37.3340 C.3    63  GLU63       0.1161
      7  CD        63.7910   66.5250   37.6420 C.2    63  GLU63       0.3649
      8  OE1       64.9640   66.9580   37.8130 O.co2  63  GLU63      -0.2457
      9  OE2       62.7700   67.2340   37.7640 O.co2  63  GLU63      -0.2457
     10  N         63.1410   62.0740   34.3510 N.am   64  SER64      -0.1952
     11  CA        62.0210   61.3530   33.7270 C.3    64  SER64       0.1924
     12  C         61.7950   60.0040   34.4070 C.2    64  SER64       0.2314
     13  O         60.6710   59.6540   34.7600 O.2    64  SER64      -0.2863
     14  CB        62.2900   61.1040   32.2370 C.3    64  SER64       0.2116
     15  OG        61.8340   62.1730   31.4310 O.3    64  SER64      -0.2180
     16  N         60.8930   60.3800   38.2630 N.3    67  SER67      -0.1202
     17  CA        59.5580   60.9450   38.4450 C.3    67  SER67       0.2020
     18  C         58.4810   59.9050   38.1720 C.2    67  SER67       0.2618
     19  O         57.4990   59.8200   38.9090 O.2    67  SER67      -0.2717
     20  CB        59.3530   62.1790   37.5840 C.3    67  SER67       0.2103
     21  OG        60.3030   63.1490   37.9670 O.3    67  SER67      -0.2182
     22  N         58.6860   59.1240   37.1170 N.am   68  MET68      -0.1979
     23  CA        57.7810   58.0260   36.7820 C.3    68  MET68       0.1605
     24  C         57.7800   56.9830   37.8730 C.2    68  MET68       0.2287
     25  O         56.7230   56.4840   38.2630 O.2    68  MET68      -0.2864
     26  CB        58.1830   57.3880   35.4570 C.3    68  MET68       0.0413
     27  CG        57.6780   58.1170   34.2380 C.3    68  MET68       0.0598
     28  SD        55.9260   57.8370   33.9170 S.3    68  MET68      -0.1393
     29  CE        55.2410   59.3090   34.6710 C.3    68  MET68       0.0692
     30  N         55.5260   58.1990   40.6420 N.3    71  TYR71      -0.1241
     31  CA        54.1150   58.0730   40.3060 C.3    71  TYR71       0.1605
     32  C         53.6290   56.6230   40.4680 C.2    71  TYR71       0.2264
     33  O         52.4700   56.3850   40.8210 O.2    71  TYR71      -0.2867
     34  CB        53.8600   58.5890   38.8900 C.3    71  TYR71       0.0534
     35  CG        53.5340   60.0680   38.8220 C.ar   71  TYR71      -0.0201
     36  CD1       52.2390   60.5200   39.0340 C.ar   71  TYR71      -0.0009
     37  CD2       54.5230   61.0140   38.5510 C.ar   71  TYR71      -0.0009
     38  CE1       51.9280   61.8720   38.9710 C.ar   71  TYR71       0.0417
     39  CE2       54.2230   62.3620   38.4890 C.ar   71  TYR71       0.0417
     40  CZ        52.9250   62.7850   38.6980 C.ar   71  TYR71       0.1957
     41  OH        52.6220   64.1220   38.6320 O.3    71  TYR71      -0.2866
     42  N         50.0750   63.7890   43.3250 N.3    80  TYR80      -0.1227
     43  CA        50.9800   63.9340   42.1940 C.3    80  TYR80       0.1736
     44  C         52.3840   64.1420   42.7450 C.2    80  TYR80       0.2596
     45  O         52.5510   64.3320   43.9490 O.2    80  TYR80      -0.2718
     46  CB        50.5530   65.0600   41.2450 C.3    80  TYR80       0.0548
     47  CG        50.5830   66.4590   41.8220 C.ar   80  TYR80      -0.0200
     48  CD1       49.6040   66.8920   42.7120 C.ar   80  TYR80      -0.0009
     49  CD2       51.5640   67.3650   41.4330 C.ar   80  TYR80      -0.0009
     50  CE1       49.6190   68.1810   43.2200 C.ar   80  TYR80       0.0417
     51  CE2       51.5880   68.6530   41.9330 C.ar   80  TYR80       0.0417
     52  CZ        50.6150   69.0580   42.8230 C.ar   80  TYR80       0.1957
     53  OH        50.6430   70.3450   43.3220 O.3    80  TYR80      -0.2866
     54  N         53.3850   64.0610   41.8750 N.am   81  CYS81      -0.1956
     55  CA        54.7780   64.1310   42.3080 C.3    81  CYS81       0.1843
     56  C         55.5310   65.1170   41.4330 C.2    81  CYS81       0.2625
     57  O         55.3510   65.1350   40.2180 O.2    81  CYS81      -0.2714
     58  CB        55.4410   62.7570   42.2080 C.3    81  CYS81       0.0997
     59  SG        54.4700   61.4160   42.9570 S.3    81  CYS81      -0.0797
     60  N         56.3600   65.9500   42.0490 N.am   82  VAL82      -0.1963
     61  CA        57.1830   66.8720   41.2730 C.3    82  VAL82       0.1727
     62  C         58.6120   66.8690   41.7870 C.2    82  VAL82       0.2617
     63  O         58.8600   66.6350   42.9690 O.2    82  VAL82      -0.2715
     64  CB        56.6390   68.3160   41.3080 C.3    82  VAL82       0.0290
     65  CG1       55.3190   68.4200   40.5430 C.3    82  VAL82       0.0023
     66  CG2       56.4830   68.7860   42.7440 C.3    82  VAL82       0.0023
     67  N         59.5540   67.1160   40.8870 N.am   83  GLY83      -0.1940
     68  CA        60.9510   67.1630   41.2780 C.3    83  GLY83       0.2014
     69  C         61.1830   68.3270   42.2210 C.2    83  GLY83       0.2638
     70  O         60.7120   69.4480   41.9700 O.2    83  GLY83      -0.2714
     71  N         61.9040   68.0610   43.3030 N.am   84  LEU84      -0.1977
     72  CA        62.2430   69.0670   44.2970 C.3    84  LEU84       0.1596
     73  C         63.7360   69.4300   44.1900 C.2    84  LEU84       0.2287
     74  O         64.1210   70.6040   44.1270 O.2    84  LEU84      -0.2864
     75  CB        61.9160   68.5220   45.6950 C.3    84  LEU84       0.0297
     76  CG        62.2970   69.3710   46.9000 C.3    84  LEU84       0.0022
     77  CD1       61.6110   70.7080   46.8250 C.3    84  LEU84       0.0001
     78  CD2       61.8590   68.6580   48.1590 C.3    84  LEU84       0.0001
     79  N         58.8780   65.6140   45.5930 N.3   135  ALA135     -0.1245
     80  CA        57.8260   66.0400   46.5120 C.3   135  ALA135      0.1562
     81  C         56.5250   65.3400   46.1360 C.2   135  ALA135      0.2260
     82  O         56.1430   65.3210   44.9690 O.2   135  ALA135     -0.2867
     83  CB        57.6430   67.5420   46.4270 C.3   135  ALA135      0.0290
     84  N         52.5700   65.4520   46.5710 N.3   137  VAL137     -0.1245
     85  CA        51.6130   66.5140   46.8680 C.3   137  VAL137      0.1561
     86  C         50.1720   66.0640   46.6270 C.2   137  VAL137      0.2260
     87  O         49.8510   65.5790   45.5390 O.2   137  VAL137     -0.2867
     88  CB        51.8730   67.7240   45.9700 C.3   137  VAL137      0.0252
     89  CG1       50.9960   68.8880   46.3880 C.3   137  VAL137      0.0019
     90  CG2       53.3480   68.1150   46.0210 C.3   137  VAL137      0.0019
@<TRIPOS>BOND
     1    15    14    1
     2    14    11    1
     3    11    10    1
     4    11    12    1
     5    28    27    1
     6    28    29    1
     7    27    26    1
     8    10     3   am
     9    12    13    2
    10    26    23    1
    11     3     2    1
    12     3     4    2
    13     1     2    1
    14     5     2    1
    15     5     6    1
    16    23    22    1
    17    23    24    1
    18    22    18   am
    19     6     7    1
    20    20    21    1
    21    20    17    1
    22     7     9   ar
    23     7     8   ar
    24    24    25    2
    25    18    17    1
    26    18    19    2
    27    16    17    1
    28    39    37   ar
    29    39    40   ar
    30    37    35   ar
    31    41    40    1
    32    40    38   ar
    33    35    34    1
    34    35    36   ar
    35    34    31    1
    36    38    36   ar
    37    57    56    2
    38    31    32    1
    39    31    30    1
    40    32    33    2
    41    65    64    1
    42    67    68    1
    43    67    62   am
    44    46    47    1
    45    46    43    1
    46    61    64    1
    47    61    62    1
    48    61    60    1
    49    68    69    1
    50    64    66    1
    51    49    47   ar
    52    49    51   ar
    53    56    60   am
    54    56    55    1
    55    62    63    2
    56    47    48   ar
    57    54    55    1
    58    54    44   am
    59    51    52   ar
    60    70    69    2
    61    43    44    1
    62    43    42    1
    63    58    55    1
    64    58    59    1
    65    69    71   am
    66    48    50   ar
    67    44    45    2
    68    52    50   ar
    69    52    53    1
    70    71    72    1
    71    74    73    2
    72    73    72    1
    73    72    75    1
    74    82    81    2
    75    87    86    2
    76    79    80    1
    77    75    76    1
    78    88    90    1
    79    88    89    1
    80    88    85    1
    81    81    80    1
    82    83    80    1
    83    84    85    1
    84    86    85    1
    85    77    76    1
    86    76    78    1
