@<TRIPOS>MOLECULE
tmp/4qd9C00.pdb
 90 86 0 0 0
SMALL
GASTEIGER

@<TRIPOS>ATOM
      1  N         66.4770   62.0500   36.1560 N.3    63  GLU63      -0.1231
      2  CA        65.2760   62.6530   36.7370 C.3    63  GLU63       0.1699
      3  C         63.9850   62.0860   36.1240 C.2    63  GLU63       0.2592
      4  O         62.9980   61.9050   36.8380 O.2    63  GLU63      -0.2718
      5  CB        65.3260   64.1990   36.7160 C.3    63  GLU63       0.0402
      6  CG        64.1410   64.8270   37.4900 C.3    63  GLU63       0.1161
      7  CD        64.3970   66.2290   38.0500 C.2    63  GLU63       0.3649
      8  OE1       65.5700   66.6780   38.1160 O.co2  63  GLU63      -0.2457
      9  OE2       63.3980   66.8770   38.4450 O.co2  63  GLU63      -0.2457
     10  N         63.9900   61.7770   34.8250 N.am   64  SER64      -0.1952
     11  CA        62.8550   61.0850   34.2040 C.3    64  SER64       0.1924
     12  C         62.6180   59.7290   34.8600 C.2    64  SER64       0.2314
     13  O         61.4790   59.3580   35.1840 O.2    64  SER64      -0.2863
     14  CB        63.1090   60.8560   32.7160 C.3    64  SER64       0.2116
     15  OG        62.7270   61.9830   31.9630 O.3    64  SER64      -0.2180
     16  N         61.7080   60.0710   38.7330 N.3    67  SER67      -0.1202
     17  CA        60.3710   60.6350   38.8870 C.3    67  SER67       0.2020
     18  C         59.3120   59.5810   38.5900 C.2    67  SER67       0.2618
     19  O         58.3300   59.4630   39.3260 O.2    67  SER67      -0.2717
     20  CB        60.1770   61.8510   37.9900 C.3    67  SER67       0.2103
     21  OG        61.0760   62.8890   38.3620 O.3    67  SER67      -0.2182
     22  N         59.5150   58.8370   37.5080 N.am   68  MET68      -0.1979
     23  CA        58.5930   57.7610   37.1260 C.3    68  MET68       0.1605
     24  C         58.5540   56.6860   38.2110 C.2    68  MET68       0.2287
     25  O         57.4990   56.1310   38.5180 O.2    68  MET68      -0.2864
     26  CB        59.0340   57.1570   35.7920 C.3    68  MET68       0.0413
     27  CG        58.0700   56.1380   35.2260 C.3    68  MET68       0.0598
     28  SD        56.6010   56.9500   34.5640 S.3    68  MET68      -0.1393
     29  CE        57.2360   57.5720   33.0070 C.3    68  MET68       0.0692
     30  N         56.2630   57.8720   40.9740 N.3    71  TYR71      -0.1241
     31  CA        54.8570   57.7180   40.5970 C.3    71  TYR71       0.1605
     32  C         54.3910   56.2730   40.7580 C.2    71  TYR71       0.2264
     33  O         53.2390   56.0180   41.1180 O.2    71  TYR71      -0.2867
     34  CB        54.6250   58.2020   39.1700 C.3    71  TYR71       0.0534
     35  CG        54.2710   59.6660   39.1190 C.ar   71  TYR71      -0.0201
     36  CD1       52.9460   60.0780   39.2200 C.ar   71  TYR71      -0.0009
     37  CD2       55.2580   60.6380   39.0070 C.ar   71  TYR71      -0.0009
     38  CE1       52.6110   61.4130   39.1950 C.ar   71  TYR71       0.0417
     39  CE2       54.9290   61.9830   38.9770 C.ar   71  TYR71       0.0417
     40  CZ        53.6040   62.3610   39.0740 C.ar   71  TYR71       0.1957
     41  OH        53.2610   63.6940   39.0460 O.3    71  TYR71      -0.2866
     42  N         50.8300   63.5240   43.7570 N.3    80  TYR80      -0.1227
     43  CA        51.7230   63.6850   42.6160 C.3    80  TYR80       0.1736
     44  C         53.1320   63.9270   43.1380 C.2    80  TYR80       0.2596
     45  O         53.3170   64.2400   44.3110 O.2    80  TYR80      -0.2718
     46  CB        51.2760   64.7950   41.6560 C.3    80  TYR80       0.0548
     47  CG        51.4090   66.2060   42.1860 C.ar   80  TYR80      -0.0200
     48  CD1       50.4270   66.7550   42.9990 C.ar   80  TYR80      -0.0009
     49  CD2       52.5000   67.0000   41.8410 C.ar   80  TYR80      -0.0009
     50  CE1       50.5330   68.0470   43.4780 C.ar   80  TYR80       0.0417
     51  CE2       52.6160   68.2970   42.3130 C.ar   80  TYR80       0.0417
     52  CZ        51.6290   68.8150   43.1280 C.ar   80  TYR80       0.1957
     53  OH        51.7340   70.1050   43.6040 O.3    80  TYR80      -0.2866
     54  N         54.1190   63.7480   42.2750 N.am   81  CYS81      -0.1956
     55  CA        55.5080   63.8030   42.7140 C.3    81  CYS81       0.1843
     56  C         56.2780   64.7750   41.8320 C.2    81  CYS81       0.2625
     57  O         56.1220   64.7690   40.6040 O.2    81  CYS81      -0.2714
     58  CB        56.1500   62.4150   42.6060 C.3    81  CYS81       0.0997
     59  SG        55.1930   61.0750   43.3530 S.3    81  CYS81      -0.0797
     60  N         57.1120   65.6070   42.4490 N.am   82  VAL82      -0.1963
     61  CA        57.9470   66.5240   41.6740 C.3    82  VAL82       0.1727
     62  C         59.3550   66.5410   42.2330 C.2    82  VAL82       0.2617
     63  O         59.5630   66.4220   43.4500 O.2    82  VAL82      -0.2715
     64  CB        57.3930   67.9720   41.6560 C.3    82  VAL82       0.0290
     65  CG1       56.1450   68.0620   40.7880 C.3    82  VAL82       0.0023
     66  CG2       57.1280   68.4660   43.0690 C.3    82  VAL82       0.0023
     67  N         60.3300   66.6620   41.3440 N.am   83  GLY83      -0.1940
     68  CA        61.7100   66.7140   41.7860 C.3    83  GLY83       0.2014
     69  C         61.9470   67.9390   42.6410 C.2    83  GLY83       0.2638
     70  O         61.5520   69.0410   42.2690 O.2    83  GLY83      -0.2714
     71  N         62.6170   67.7390   43.7740 N.am   84  LEU84      -0.1977
     72  CA        62.9390   68.8040   44.7120 C.3    84  LEU84       0.1596
     73  C         64.4230   69.1870   44.5870 C.2    84  LEU84       0.2287
     74  O         64.7720   70.3770   44.5140 O.2    84  LEU84      -0.2864
     75  CB        62.6080   68.3090   46.1230 C.3    84  LEU84       0.0297
     76  CG        62.8750   69.0890   47.3970 C.3    84  LEU84       0.0022
     77  CD1       62.1950   70.4410   47.3240 C.3    84  LEU84       0.0001
     78  CD2       62.3040   68.2920   48.5680 C.3    84  LEU84       0.0001
     79  N         59.6290   65.3470   46.0320 N.3   135  ALA135     -0.1245
     80  CA        58.5620   65.7430   46.9460 C.3   135  ALA135      0.1562
     81  C         57.2820   65.0000   46.5700 C.2   135  ALA135      0.2260
     82  O         56.9230   64.9330   45.3930 O.2   135  ALA135     -0.2867
     83  CB        58.3230   67.2500   46.8680 C.3   135  ALA135      0.0290
     84  N         53.3460   65.1290   47.0090 N.3   137  VAL137     -0.1245
     85  CA        52.3840   66.1930   47.2840 C.3   137  VAL137      0.1561
     86  C         50.9480   65.6880   47.0960 C.2   137  VAL137      0.2260
     87  O         50.6350   65.0880   46.0670 O.2   137  VAL137     -0.2867
     88  CB        52.6140   67.3750   46.3350 C.3   137  VAL137      0.0252
     89  CG1       51.7320   68.5420   46.7160 C.3   137  VAL137      0.0019
     90  CG2       54.0790   67.7930   46.3450 C.3   137  VAL137      0.0019
@<TRIPOS>BOND
     1    15    14    1
     2    14    11    1
     3    29    28    1
     4    11    10    1
     5    11    12    1
     6    28    27    1
     7    10     3   am
     8    12    13    2
     9    27    26    1
    10    26    23    1
    11     3     2    1
    12     3     4    2
    13     1     2    1
    14     5     2    1
    15     5     6    1
    16    23    22    1
    17    23    24    1
    18     6     7    1
    19    22    18   am
    20    20    21    1
    21    20    17    1
    22     7     8   ar
    23     7     9   ar
    24    24    25    2
    25    18    17    1
    26    18    19    2
    27    16    17    1
    28    39    37   ar
    29    39    40   ar
    30    37    35   ar
    31    41    40    1
    32    40    38   ar
    33    35    34    1
    34    35    36   ar
    35    34    31    1
    36    38    36   ar
    37    31    32    1
    38    31    30    1
    39    57    56    2
    40    32    33    2
    41    65    64    1
    42    67    68    1
    43    67    62   am
    44    64    61    1
    45    64    66    1
    46    46    47    1
    47    46    43    1
    48    61    62    1
    49    61    60    1
    50    68    69    1
    51    56    60   am
    52    56    55    1
    53    49    47   ar
    54    49    51   ar
    55    47    48   ar
    56    62    63    2
    57    70    69    2
    58    54    55    1
    59    54    44   am
    60    51    52   ar
    61    58    55    1
    62    58    59    1
    63    43    44    1
    64    43    42    1
    65    69    71   am
    66    48    50   ar
    67    52    50   ar
    68    52    53    1
    69    44    45    2
    70    71    72    1
    71    74    73    2
    72    73    72    1
    73    72    75    1
    74    82    81    2
    75    79    80    1
    76    87    86    2
    77    75    76    1
    78    88    90    1
    79    88    89    1
    80    88    85    1
    81    81    80    1
    82    83    80    1
    83    84    85    1
    84    86    85    1
    85    77    76    1
    86    76    78    1
