@<TRIPOS>MOLECULE
tmp/4qd9F01.pdb
 99 99 0 0 0
SMALL
GASTEIGER

@<TRIPOS>ATOM
      1  N         91.1760   68.3570   60.3920 N.3    48  GLN48      -0.1231
      2  CA        91.3420   66.9730   59.9520 C.3    48  GLN48       0.1683
      3  C         92.7870   66.5820   60.3240 C.2    48  GLN48       0.2434
      4  O         93.5320   67.4400   60.8270 O.2    48  GLN48      -0.2733
      5  CB        91.0120   66.8110   58.4590 C.3    48  GLN48       0.0380
      6  CG        91.3130   67.9980   57.5670 C.3    48  GLN48       0.0905
      7  CD        92.7400   68.0120   57.0660 C.2    48  GLN48       0.2608
      8  OE1       93.6860   68.0150   57.8530 O.2    48  GLN48      -0.2717
      9  NE2       92.9040   68.0340   55.7490 N.am   48  GLN48      -0.0878
     10  N         93.1870   65.3060   60.1230 N.am   49  PRO49      -0.2718
     11  CA        94.4910   64.8930   60.6780 C.3    49  PRO49       0.1535
     12  C         95.7280   65.6650   60.1860 C.2    49  PRO49       0.2598
     13  O         96.8070   65.4940   60.7630 O.2    49  PRO49      -0.2715
     14  CB        94.5910   63.4310   60.2500 C.3    49  PRO49       0.0310
     15  CG        93.1760   62.9710   60.1850 C.3    49  PRO49       0.0237
     16  CD        92.4320   64.1450   59.6090 C.3    49  PRO49       0.0939
     17  N         95.5800   66.4980   59.1610 N.am   50  PHE50      -0.1974
     18  CA        96.7200   67.2060   58.5810 C.3    50  PHE50       0.1639
     19  C         96.8160   68.6860   58.9710 C.2    50  PHE50       0.2290
     20  O         97.6630   69.4210   58.4550 O.2    50  PHE50      -0.2864
     21  CB        96.7030   67.0400   57.0620 C.3    50  PHE50       0.0560
     22  CG        96.6230   65.6120   56.6260 C.ar   50  PHE50      -0.0200
     23  CD1       97.7580   64.8160   56.6100 C.ar   50  PHE50      -0.0042
     24  CD2       95.4080   65.0520   56.2490 C.ar   50  PHE50      -0.0042
     25  CE1       97.6900   63.4930   56.2150 C.ar   50  PHE50      -0.0003
     26  CE2       95.3290   63.7280   55.8580 C.ar   50  PHE50      -0.0003
     27  CZ        96.4730   62.9470   55.8360 C.ar   50  PHE50      -0.0000
     28  N         94.4400   71.0750   58.7300 N.3    52  LEU52      -0.1231
     29  CA        93.5550   71.9860   58.0170 C.3    52  LEU52       0.1693
     30  C         92.1350   71.7550   58.5130 C.2    52  LEU52       0.2592
     31  O         91.8280   70.6960   59.0580 O.2    52  LEU52      -0.2718
     32  CB        93.6260   71.7300   56.5090 C.3    52  LEU52       0.0284
     33  CG        94.9210   72.0760   55.7720 C.3    52  LEU52       0.0019
     34  CD1       95.0050   71.3070   54.4730 C.3    52  LEU52       0.0001
     35  CD2       94.9690   73.5490   55.4860 C.3    52  LEU52       0.0001
     36  N         91.2740   72.7530   58.3480 N.am   53  LEU53      -0.1966
     37  CA        89.8680   72.6080   58.7160 C.3    53  LEU53       0.1728
     38  C         89.2330   71.4160   58.0020 C.2    53  LEU53       0.2616
     39  O         89.3210   71.2920   56.7900 O.2    53  LEU53      -0.2715
     40  CB        89.1130   73.8940   58.3650 C.3    53  LEU53       0.0311
     41  CG        87.6060   73.9090   58.6020 C.3    53  LEU53       0.0022
     42  CD1       87.3040   73.6790   60.0770 C.3    53  LEU53       0.0001
     43  CD2       87.0170   75.2390   58.1180 C.3    53  LEU53       0.0001
     44  N         88.5880   70.5440   58.7660 N.am   54  HIS54      -0.1959
     45  CA        87.9240   69.3600   58.2190 C.3    54  HIS54       0.1787
     46  C         86.7090   69.8180   57.3980 C.2    54  HIS54       0.2620
     47  O         85.9320   70.6620   57.8540 O.2    54  HIS54      -0.2715
     48  CB        87.4880   68.4910   59.4030 C.3    54  HIS54       0.0785
     49  CG        87.0220   67.1150   59.0410 C.ar   54  HIS54       0.0821
     50  ND1       85.8990   66.8820   58.2780 N.ar   54  HIS54      -0.2267
     51  CD2       87.4920   65.8960   59.4000 C.ar   54  HIS54       0.1154
     52  CE1       85.7110   65.5780   58.1570 C.ar   54  HIS54       0.1986
     53  NE2       86.6610   64.9570   58.8340 N.ar   54  HIS54      -0.2212
     54  N         86.5540   69.2880   56.1830 N.am   55  GLY55      -0.1954
     55  CA        85.4250   69.6560   55.3380 C.3    55  GLY55       0.1869
     56  C         84.0790   69.4170   56.0020 C.2    55  GLY55       0.2309
     57  O         83.1290   70.1760   55.8130 O.2    55  GLY55      -0.2863
     58  N         84.3110   72.6460   48.6950 N.3    90  HIS90      -0.1226
     59  CA        85.4140   73.1000   49.5260 C.3    90  HIS90       0.1752
     60  C         86.3980   73.8130   48.6080 C.2    90  HIS90       0.2596
     61  O         87.0120   73.1910   47.7390 O.2    90  HIS90      -0.2718
     62  CB        86.0920   71.9100   50.2130 C.3    90  HIS90       0.0759
     63  CG        85.1610   71.0690   51.0340 C.ar   90  HIS90       0.0818
     64  ND1       84.2930   71.6030   51.9670 N.ar   90  HIS90      -0.2268
     65  CD2       84.9790   69.7280   51.0760 C.ar   90  HIS90       0.1154
     66  CE1       83.6070   70.6240   52.5360 C.ar   90  HIS90       0.1986
     67  NE2       84.0110   69.4770   52.0190 N.ar   90  HIS90      -0.2212
     68  N         86.5430   75.1180   48.8020 N.am   91  LEU91      -0.1966
     69  CA        87.2270   75.9700   47.8350 C.3    91  LEU91       0.1728
     70  C         88.6850   76.2550   48.1810 C.2    91  LEU91       0.2616
     71  O         89.5420   76.2890   47.2930 O.2    91  LEU91      -0.2715
     72  CB        86.4900   77.3020   47.7200 C.3    91  LEU91       0.0311
     73  CG        84.9920   77.2020   47.4840 C.3    91  LEU91       0.0022
     74  CD1       84.3760   78.5950   47.5900 C.3    91  LEU91       0.0001
     75  CD2       84.6720   76.5530   46.1160 C.3    91  LEU91       0.0001
     76  N         88.9470   76.4920   49.4650 N.am   92  ARG92      -0.1963
     77  CA        90.2850   76.8170   49.9740 C.3    92  ARG92       0.1729
     78  C         90.4490   76.2070   51.3500 C.2    92  ARG92       0.2616
     79  O         89.4890   76.1610   52.1250 O.2    92  ARG92      -0.2715
     80  CB        90.4410   78.3290   50.1340 C.3    92  ARG92       0.0348
     81  CG        90.5120   79.0840   48.8500 C.3    92  ARG92       0.0492
     82  CD        90.8310   80.5470   49.0930 C.3    92  ARG92       0.2205
     83  NE        91.0450   81.2230   47.8170 N.pl3  92  ARG92      -0.0865
     84  CZ        90.0670   81.7040   47.0580 C.cat  92  ARG92       0.5346
     85  NH1       88.8010   81.5910   47.4510 N.pl3  92  ARG92       0.1354
     86  NH2       90.3520   82.3000   45.9050 N.pl3  92  ARG92       0.1354
     87  N         91.6630   75.7680   51.6770 N.am   93  GLY93      -0.1955
     88  CA        91.9270   75.2400   53.0070 C.3    93  GLY93       0.1869
     89  C         92.1970   76.3330   54.0300 C.2    93  GLY93       0.2309
     90  O         92.6960   77.4130   53.6820 O.2    93  GLY93      -0.2863
     91  N         88.6190   85.6200   52.1980 N.3   125  LYS125     -0.1245
     92  CA        88.5160   84.8790   50.9420 C.3   125  LYS125      0.1561
     93  C         87.5670   83.7040   51.1210 C.2   125  LYS125      0.2260
     94  O         87.5910   83.0520   52.1700 O.2   125  LYS125     -0.2867
     95  CB        89.8800   84.3800   50.4950 C.3   125  LYS125      0.0271
     96  CG        90.8830   85.4950   50.2640 C.3   125  LYS125      0.0035
     97  CD        92.1710   84.9420   49.6950 C.3   125  LYS125      0.0206
     98  CE        93.0340   86.0510   49.1150 C.3   125  LYS125      0.1093
     99  NZ        93.9340   85.5280   48.0420 N.3   125  LYS125     -0.1314
@<TRIPOS>BOND
     1    86    84    1
     2    75    73    1
     3    84    85    1
     4    84    83    2
     5    71    70    2
     6    73    74    1
     7    73    72    1
     8    72    69    1
     9    61    60    2
    10    83    82    1
    11    69    70    1
    12    69    68    1
    13    99    98    1
    14    70    76   am
    15    60    68   am
    16    60    59    1
    17    58    59    1
    18    81    82    1
    19    81    80    1
    20    98    97    1
    21    76    77    1
    22    59    62    1
    23    97    96    1
    24    77    80    1
    25    77    78    1
    26    62    63    1
    27    96    95    1
    28    95    92    1
    29    92    93    1
    30    92    91    1
    31    63    65   ar
    32    63    64   ar
    33    65    67   ar
    34    93    94    2
    35    78    87   am
    36    78    79    2
    37    87    88    1
    38    64    66   ar
    39    67    66   ar
    40    88    89    1
    41    90    89    2
    42    34    33    1
    43    55    56    1
    44    55    54    1
    45    35    33    1
    46     9     7   am
    47    33    32    1
    48    57    56    2
    49    27    26   ar
    50    27    25   ar
    51    26    24   ar
    52    54    46   am
    53    25    23   ar
    54    24    22   ar
    55    32    29    1
    56    23    22   ar
    57    22    21    1
    58    39    38    2
    59    21    18    1
    60     7     6    1
    61     7     8    2
    62    46    47    2
    63    46    45    1
    64     6     5    1
    65    38    37    1
    66    38    44   am
    67    29    30    1
    68    29    28    1
    69    43    41    1
    70    52    50   ar
    71    52    53   ar
    72    45    44    1
    73    45    48    1
    74    50    49   ar
    75    36    30   am
    76    36    37    1
    77    40    41    1
    78    40    37    1
    79    20    19    2
    80     5     2    1
    81    30    31    2
    82    18    19    1
    83    18    17    1
    84    41    42    1
    85    53    51   ar
    86    49    51   ar
    87    49    48    1
    88    17    12   am
    89    16    10    1
    90    16    15    1
    91     2     3    1
    92     2     1    1
    93    10     3   am
    94    10    11    1
    95    15    14    1
    96    12    11    1
    97    12    13    2
    98    14    11    1
    99     3     4    2
