@<TRIPOS>MOLECULE
tmp/4qdcA00.pdb
 180 164 0 0 0
SMALL
GASTEIGER

@<TRIPOS>ATOM
      1  N        -87.8150   24.3500    8.6190 N.3   164  ILE164     -0.1245
      2  CA       -87.6130   23.1840    7.7160 C.3   164  ILE164      0.1561
      3  C        -87.8010   21.8910    8.5170 C.2   164  ILE164      0.2260
      4  O        -88.4760   20.9690    8.0770 O.2   164  ILE164     -0.2867
      5  CB       -86.3230   23.2500    6.8760 C.3   164  ILE164      0.0252
      6  CG1      -86.0550   21.9520    6.0920 C.3   164  ILE164      0.0019
      7  CG2      -85.0800   23.5000    7.6850 C.3   164  ILE164      0.0019
      8  CD1      -87.1060   21.5670    5.0840 C.3   164  ILE164      0.0001
      9  N        -91.2370   20.2270    9.0160 N.3   167  ASN167     -0.1225
     10  CA       -91.8540   19.4550    7.9190 C.3   167  ASN167      0.1785
     11  C        -91.8360   17.9600    8.1040 C.2   167  ASN167      0.2597
     12  O        -92.6130   17.2710    7.4750 O.2   167  ASN167     -0.2718
     13  CB       -91.2070   19.7740    6.5760 C.3   167  ASN167      0.1169
     14  CG       -91.5520   21.1800    6.0580 C.2   167  ASN167      0.2627
     15  OD1      -90.8700   21.6620    5.1580 O.2   167  ASN167     -0.2716
     16  ND2      -92.5970   21.8390    6.6270 N.am  167  ASN167     -0.0877
     17  N        -90.9640   17.4540    8.9590 N.am  168  VAL168     -0.1980
     18  CA       -90.8680   15.9980    9.1390 C.3   168  VAL168      0.1595
     19  C        -92.1830   15.4030    9.6580 C.2   168  VAL168      0.2287
     20  O        -92.4780   14.2210    9.4110 O.2   168  VAL168     -0.2864
     21  CB       -89.6050   15.6170    9.9310 C.3   168  VAL168      0.0276
     22  CG1      -89.8220   15.8090   11.3880 C.3   168  VAL168      0.0022
     23  CG2      -89.2030   14.1830    9.6370 C.3   168  VAL168      0.0022
     24  N        -97.5440   17.9260    2.2790 N.3   174  PHE174     -0.1241
     25  CA       -97.0400   17.1820    1.1150 C.3   174  PHE174      0.1605
     26  C        -98.0980   17.1210    0.0270 C.2   174  PHE174      0.2264
     27  O        -97.7830   17.0190   -1.1660 O.2   174  PHE174     -0.2867
     28  CB       -96.5280   15.7720    1.4920 C.3   174  PHE174      0.0534
     29  CG       -95.3190   15.8150    2.3720 C.ar  174  PHE174     -0.0203
     30  CD1      -94.1140   16.3010    1.8750 C.ar  174  PHE174     -0.0042
     31  CD2      -95.3910   15.4520    3.7140 C.ar  174  PHE174     -0.0042
     32  CE1      -93.0000   16.4220    2.6870 C.ar  174  PHE174     -0.0003
     33  CE2      -94.2730   15.5720    4.5300 C.ar  174  PHE174     -0.0003
     34  CZ       -93.0750   16.0540    4.0230 C.ar  174  PHE174     -0.0000
     35  N        -96.2320   20.0600   -1.8830 N.3   178  HIS178     -0.1241
     36  CA       -95.4190   19.1600   -2.6920 C.3   178  HIS178      0.1621
     37  C        -96.1870   18.4230   -3.7450 C.2   178  HIS178      0.2264
     38  O        -95.5930   17.6850   -4.5050 O.2   178  HIS178     -0.2867
     39  CB       -94.7150   18.1440   -1.8060 C.3   178  HIS178      0.0745
     40  CG       -93.6020   18.7360   -1.0260 C.ar  178  HIS178      0.0817
     41  ND1      -92.2940   18.6800   -1.4560 N.ar  178  HIS178     -0.2268
     42  CD2      -93.6030   19.4780    0.1070 C.ar  178  HIS178      0.1154
     43  CE1      -91.5240   19.3000   -0.5780 C.ar  178  HIS178      0.1986
     44  NE2      -92.2950   19.8100    0.3630 N.ar  178  HIS178     -0.2212
     45  N        -97.8150   15.8080   -3.7630 N.3   180  SER180     -0.1217
     46  CA       -97.9530   14.3460   -3.6440 C.3   180  SER180      0.1889
     47  C        -99.2210   14.0520   -2.8770 C.2   180  SER180      0.2288
     48  O        -99.9460   14.9680   -2.5080 O.2   180  SER180     -0.2866
     49  CB       -96.7320   13.7210   -2.9740 C.3   180  SER180      0.2089
     50  OG       -96.7520   13.9750   -1.5980 O.3   180  SER180     -0.2183
     51  N        -89.5980   10.0420    9.6040 N.3   196  GLN196     -0.1245
     52  CA       -90.8830   10.0260    8.9790 C.3   196  GLN196      0.1566
     53  C        -90.9620    8.8300    8.0190 C.2   196  GLN196      0.2260
     54  O        -90.1320    8.7020    7.1190 O.2   196  GLN196     -0.2867
     55  CB       -91.0660   11.2950    8.1730 C.3   196  GLN196      0.0367
     56  CG       -92.3830   11.4010    7.4450 C.3   196  GLN196      0.0905
     57  CD       -92.3200   12.4160    6.3040 C.2   196  GLN196      0.2608
     58  OE1      -92.2480   12.0440    5.1500 O.2   196  GLN196     -0.2717
     59  NE2      -92.3670   13.6980    6.6370 N.am  196  GLN196     -0.0878
     60  N        -93.4780    7.4360    5.1520 N.3   198  MET198     -0.1245
     61  CA       -94.6640    7.7960    4.3730 C.3   198  MET198      0.1570
     62  C        -94.8110    6.9140    3.1470 C.2   198  MET198      0.2261
     63  O        -93.7950    6.5490    2.5210 O.2   198  MET198     -0.2867
     64  CB       -94.5790    9.2520    3.8800 C.3   198  MET198      0.0387
     65  CG       -95.8190    9.7690    3.1730 C.3   198  MET198      0.0595
     66  SD       -95.8580   11.5880    2.9390 S.3   198  MET198     -0.1393
     67  CE       -94.3520   11.9100    2.0550 C.3   198  MET198      0.0692
     68  N        -96.8530    7.5100   -0.4410 N.3   200  SER200     -0.1217
     69  CA       -97.6430    8.4780   -1.1910 C.3   200  SER200      0.1889
     70  C        -97.7840    8.0790   -2.6700 C.2   200  SER200      0.2288
     71  O        -97.0510    7.2460   -3.1800 O.2   200  SER200     -0.2866
     72  CB       -96.9980    9.8600   -1.1110 C.3   200  SER200      0.2089
     73  OG       -95.6710    9.8120   -1.5400 O.3   200  SER200     -0.2183
     74  N        -90.8970   13.9370   -9.3870 N.3   210  THR210     -0.1218
     75  CA       -90.7560   12.9550   -8.3360 C.3   210  THR210      0.1862
     76  C        -91.5290   11.6600   -8.6740 C.2   210  THR210      0.2287
     77  O        -91.2290   10.6240   -8.0910 O.2   210  THR210     -0.2866
     78  CB       -91.2080   13.5030   -6.9570 C.3   210  THR210      0.1770
     79  OG1      -92.6160   13.6910   -6.9510 O.3   210  THR210     -0.2211
     80  CG2      -90.5040   14.8600   -6.6280 C.3   210  THR210      0.0375
     81  N        -94.9020    5.6130   -3.9080 N.3   219  LEU219     -0.1245
     82  CA       -93.6010    5.9340   -3.3780 C.3   219  LEU219      0.1561
     83  C        -93.6180    5.5700   -1.8740 C.2   219  LEU219      0.2260
     84  O        -94.5550    5.9200   -1.1580 O.2   219  LEU219     -0.2867
     85  CB       -93.4050    7.4170   -3.5400 C.3   219  LEU219      0.0270
     86  CG       -92.1170    8.0320   -3.1220 C.3   219  LEU219      0.0019
     87  CD1      -90.9780    7.4210   -3.9160 C.3   219  LEU219      0.0001
     88  CD2      -92.1820    9.5050   -3.4330 C.3   219  LEU219      0.0001
     89  N        -91.3110    5.9000    1.5310 N.3   221  SER221     -0.1217
     90  CA       -90.2500    6.7860    2.0010 C.3   221  SER221      0.1889
     91  C        -89.8950    6.5190    3.4640 C.2   221  SER221      0.2288
     92  O        -90.7630    6.3650    4.3110 O.2   221  SER221     -0.2866
     93  CB       -90.6680    8.2430    1.8090 C.3   221  SER221      0.2089
     94  OG       -89.6340    9.1400    2.2590 O.3   221  SER221     -0.2183
     95  N        -87.4850    8.5520    5.9860 N.3   223  ALA223     -0.1245
     96  CA       -86.7510    9.8120    6.0360 C.3   223  ALA223      0.1562
     97  C        -86.3700   10.1090    7.4550 C.2   223  ALA223      0.2260
     98  O        -87.2350   10.2380    8.2710 O.2   223  ALA223     -0.2867
     99  CB       -87.5890   10.9630    5.4870 C.3   223  ALA223      0.0290
    100  N        -83.7440   12.4000   10.0950 N.3   225  TYR225     -0.1241
    101  CA       -82.7310   13.3550   10.5710 C.3   225  TYR225      0.1605
    102  C        -81.7510   12.6730   11.4950 C.2   225  TYR225      0.2264
    103  O        -82.1500   12.1330   12.5140 O.2   225  TYR225     -0.2867
    104  CB       -83.4050   14.5170   11.3540 C.3   225  TYR225      0.0534
    105  CG       -83.8470   15.6660   10.4730 C.ar  225  TYR225     -0.0201
    106  CD1      -82.9070   16.5140    9.8840 C.ar  225  TYR225     -0.0009
    107  CD2      -85.1830   15.9400   10.2480 C.ar  225  TYR225     -0.0009
    108  CE1      -83.3010   17.5900    9.0530 C.ar  225  TYR225      0.0417
    109  CE2      -85.5760   17.0140    9.4210 C.ar  225  TYR225      0.0417
    110  CZ       -84.6190   17.8260    8.8210 C.ar  225  TYR225      0.1957
    111  OH       -84.9990   18.9270    8.0010 O.3   225  TYR225     -0.2866
    112  N        -80.8660   15.1430    6.9420 N.3   231  MET231     -0.1245
    113  CA       -81.7830   14.0470    6.7250 C.3   231  MET231      0.1570
    114  C        -81.3870   13.2420    5.4820 C.2   231  MET231      0.2261
    115  O        -80.9900   13.8120    4.4340 O.2   231  MET231     -0.2867
    116  CB       -83.2040   14.5690    6.5500 C.3   231  MET231      0.0387
    117  CG       -84.1360   13.6100    5.8620 C.3   231  MET231      0.0595
    118  SD       -85.7770   14.3170    5.6140 S.3   231  MET231     -0.1393
    119  CE       -86.3800   14.1420    7.2780 C.3   231  MET231      0.0692
    120  N        -83.1550   10.3760    3.0020 N.3   233  ASP233     -0.1239
    121  CA       -84.4590    9.8670    2.7010 C.3   233  ASP233      0.1674
    122  C        -84.2760    8.7260    1.6610 C.2   233  ASP233      0.2266
    123  O        -83.8070    8.9400    0.5340 O.2   233  ASP233     -0.2867
    124  CB       -85.3610   11.0180    2.1770 C.3   233  ASP233      0.1410
    125  CG       -86.7490   10.5630    1.8000 C.2   233  ASP233      0.3668
    126  OD1      -87.1770    9.4710    2.2450 O.co2 233  ASP233     -0.2456
    127  OD2      -87.4040   11.2780    1.0100 O.co2 233  ASP233     -0.2456
    128  N        -85.9610    6.0580   -0.7330 N.3   235  LEU235     -0.1245
    129  CA       -87.2100    6.0360   -1.4310 C.3   235  LEU235      0.1561
    130  C        -87.2430    4.8740   -2.4160 C.2   235  LEU235      0.2260
    131  O        -86.2580    4.5330   -3.0590 O.2   235  LEU235     -0.2867
    132  CB       -87.4010    7.3550   -2.2160 C.3   235  LEU235      0.0270
    133  CG       -87.4410    8.6340   -1.3520 C.3   235  LEU235      0.0019
    134  CD1      -86.6130    9.7520   -1.9910 C.3   235  LEU235      0.0001
    135  CD2      -88.8810    9.0190   -1.1570 C.3   235  LEU235      0.0001
    136  N        -82.4420   10.5600   -1.3330 N.3   248  LEU248     -0.1245
    137  CA       -82.5630   11.9940   -1.3400 C.3   248  LEU248      0.1561
    138  C        -81.9670   12.5450   -0.0540 C.2   248  LEU248      0.2260
    139  O        -82.3670   12.1040    1.0550 O.2   248  LEU248     -0.2867
    140  CB       -84.0050   12.3850   -1.4010 C.3   248  LEU248      0.0270
    141  CG       -84.3350   13.9110   -1.3480 C.3   248  LEU248      0.0019
    142  CD1      -83.8700   14.6390   -2.6120 C.3   248  LEU248      0.0001
    143  CD2      -85.8030   14.1140   -1.1350 C.3   248  LEU248      0.0001
    144  N        -81.8410   15.8490    2.3920 N.3   250  ASN250     -0.1240
    145  CA       -82.4740   17.1070    2.7860 C.3   250  ASN250      0.1653
    146  C        -81.7210   17.6140    4.0010 C.2   250  ASN250      0.2266
    147  O        -81.7460   16.9900    5.0630 O.2   250  ASN250     -0.2867
    148  CB       -83.9380   16.9060    3.0930 C.3   250  ASN250      0.1155
    149  CG       -84.5770   18.0870    3.8300 C.2   250  ASN250      0.2627
    150  OD1      -84.1990   19.2770    3.6590 O.2   250  ASN250     -0.2716
    151  ND2      -85.5510   17.7530    4.6880 N.am  250  ASN250     -0.0877
    152  N        -85.6790   13.8550  -10.6190 N.3   286  PHE286     -0.1241
    153  CA       -86.2070   13.7030   -9.2700 C.3   286  PHE286      0.1605
    154  C        -85.8600   14.9730   -8.4550 C.2   286  PHE286      0.2264
    155  O        -86.7280   15.5790   -7.8280 O.2   286  PHE286     -0.2867
    156  CB       -85.7370   12.4330   -8.5790 C.3   286  PHE286      0.0534
    157  CG       -86.5250   12.1250   -7.3330 C.ar  286  PHE286     -0.0203
    158  CD1      -86.1600   12.6690   -6.1180 C.ar  286  PHE286     -0.0042
    159  CD2      -87.6670   11.3490   -7.3970 C.ar  286  PHE286     -0.0042
    160  CE1      -86.8850   12.3830   -4.9910 C.ar  286  PHE286     -0.0003
    161  CE2      -88.4110   11.0830   -6.2770 C.ar  286  PHE286     -0.0003
    162  CZ       -88.0160   11.6060   -5.0690 C.ar  286  PHE286     -0.0000
    163  N        -88.3510   17.7390   -6.5600 N.3   290  VAL290     -0.1245
    164  CA       -88.1660   18.1730   -5.1760 C.3   290  VAL290      0.1561
    165  C        -88.0390   19.7040   -5.0800 C.2   290  VAL290      0.2260
    166  O        -88.7070   20.3550   -4.2550 O.2   290  VAL290     -0.2867
    167  CB       -86.9630   17.4110   -4.5050 C.3   290  VAL290      0.0252
    168  CG1      -86.6990   17.9300   -3.1020 C.3   290  VAL290      0.0019
    169  CG2      -87.2970   15.9140   -4.4380 C.3   290  VAL290      0.0019
    170  N        -89.8200   22.3820   -2.6270 N.3   294  PHE294     -0.1241
    171  CA       -89.0540   23.3160   -1.7820 C.3   294  PHE294      0.1605
    172  C        -89.2260   24.7840   -2.1270 C.2   294  PHE294      0.2264
    173  O        -89.1940   25.6270   -1.2310 O.2   294  PHE294     -0.2867
    174  CB       -87.5670   22.9580   -1.7040 C.3   294  PHE294      0.0534
    175  CG       -87.2670   21.7450   -0.8160 C.ar  294  PHE294     -0.0203
    176  CD1      -88.0340   21.4630    0.3200 C.ar  294  PHE294     -0.0042
    177  CD2      -86.1960   20.9060   -1.0900 C.ar  294  PHE294     -0.0042
    178  CE1      -87.7350   20.3790    1.1380 C.ar  294  PHE294     -0.0003
    179  CE2      -85.8860   19.8280   -0.2490 C.ar  294  PHE294     -0.0003
    180  CZ       -86.6640   19.5650    0.8460 C.ar  294  PHE294     -0.0000
@<TRIPOS>BOND
     1   152   153    1
     2    74    75    1
     3   153   156    1
     4   153   154    1
     5    76    75    1
     6    76    77    2
     7   156   157    1
     8   154   155    2
     9    75    78    1
    10   159   157   ar
    11   159   161   ar
    12   157   158   ar
    13    78    79    1
    14    78    80    1
    15   163   164    1
    16   161   162   ar
    17   158   160   ar
    18   164   165    1
    19   164   167    1
    20   165   166    2
    21   162   160   ar
    22   167   169    1
    23   167   168    1
    24    38    37    2
    25    87    86    1
    26    81    82    1
    27    45    46    1
    28    37    36    1
    29    46    49    1
    30    46    47    1
    31    85    82    1
    32    85    86    1
    33    88    86    1
    34    82    83    1
    35    71    70    2
    36   131   130    2
    37    49    50    1
    38    47    48    2
    39    36    35    1
    40    36    39    1
    41    70    69    1
    42   170   171    1
    43   142   141    1
    44   130   129    1
    45   132   129    1
    46   132   133    1
    47   172   171    1
    48   172   173    2
    49   134   133    1
    50    83    84    2
    51    39    40    1
    52   171   174    1
    53   174   175    1
    54    73    72    1
    55    41    40   ar
    56    41    43   ar
    57   129   128    1
    58   140   141    1
    59   140   137    1
    60   133   135    1
    61   141   143    1
    62   137   136    1
    63   137   138    1
    64    69    72    1
    65    69    68    1
    66    27    26    2
    67   177   175   ar
    68   177   179   ar
    69    40    42   ar
    70   175   176   ar
    71    43    44   ar
    72   179   180   ar
    73   138   139    2
    74    26    25    1
    75    42    44   ar
    76   176   178   ar
    77   123   122    2
    78   180   178   ar
    79   127   125   ar
    80    25    28    1
    81    25    24    1
    82    28    29    1
    83    89    90    1
    84   122   121    1
    85   125   124    1
    86   125   126   ar
    87    93    90    1
    88    93    94    1
    89    30    29   ar
    90    30    32   ar
    91    90    91    1
    92    67    66    1
    93   124   121    1
    94    29    31   ar
    95   144   145    1
    96    63    62    2
    97    32    34   ar
    98   121   120    1
    99   145   148    1
   100   145   146    1
   101    66    65    1
   102   148   149    1
   103    62    61    1
   104    65    64    1
   105    91    92    2
   106   150   149    2
   107    31    33   ar
   108   149   151   am
   109    64    61    1
   110   146   147    2
   111    34    33   ar
   112    61    60    1
   113   115   114    2
   114     8     6    1
   115    58    57    2
   116    15    14    2
   117   114   113    1
   118    99    96    1
   119   118   117    1
   120   118   119    1
   121   117   116    1
   122    95    96    1
   123    96    97    1
   124    14    13    1
   125    14    16   am
   126     6     5    1
   127    57    59   am
   128    57    56    1
   129   116   113    1
   130    13    10    1
   131   113   112    1
   132     5     7    1
   133     5     2    1
   134    54    53    2
   135    56    55    1
   136    97    98    2
   137    12    11    2
   138     2     3    1
   139     2     1    1
   140    10    11    1
   141    10     9    1
   142   111   110    1
   143    53    52    1
   144     4     3    2
   145    11    17   am
   146    55    52    1
   147   110   108   ar
   148   110   109   ar
   149    17    18    1
   150    52    51    1
   151   108   106   ar
   152    18    19    1
   153    18    21    1
   154    20    19    2
   155   109   107   ar
   156    23    21    1
   157   106   105   ar
   158    21    22    1
   159   100   101    1
   160   107   105   ar
   161   105   104    1
   162   101   104    1
   163   101   102    1
   164   102   103    2
