@<TRIPOS>MOLECULE
tmp/4qdcA01.pdb
 85 84 0 0 0
SMALL
GASTEIGER

@<TRIPOS>ATOM
      1  N       -103.3410   22.4690   16.6820 N.3   312  LEU312     -0.1231
      2  CA      -103.3090   21.2550   15.8500 C.3   312  LEU312      0.1693
      3  C       -104.6560   20.5760   15.7290 C.2   312  LEU312      0.2593
      4  O       -105.4060   20.5310   16.6700 O.2   312  LEU312     -0.2718
      5  CB      -102.3010   20.2620   16.3780 C.3   312  LEU312      0.0284
      6  CG      -100.9220   20.7550   16.7480 C.3   312  LEU312      0.0019
      7  CD1     -100.0630   19.5660   17.1900 C.3   312  LEU312      0.0001
      8  CD2     -100.2980   21.4770   15.5760 C.3   312  LEU312      0.0001
      9  N       -104.9270   20.0320   14.5470 N.am  313  SER313     -0.1938
     10  CA      -106.1140   19.2200   14.3070 C.3   313  SER313      0.2055
     11  C       -105.8710   17.7760   14.6440 C.2   313  SER313      0.2642
     12  O       -104.7650   17.3930   15.0300 O.2   313  SER313     -0.2714
     13  CB      -106.4690   19.2480   12.8380 C.3   313  SER313      0.2130
     14  OG      -105.6660   18.3530   12.0780 O.3   313  SER313     -0.2179
     15  N       -106.9010   16.9670   14.4150 N.am  314  GLU314     -0.1976
     16  CA      -106.8350   15.5220   14.6640 C.3   314  GLU314      0.1602
     17  C       -105.9000   14.8570   13.6360 C.2   314  GLU314      0.2287
     18  O       -105.2420   13.8830   13.9480 O.2   314  GLU314     -0.2864
     19  CB      -108.2630   14.9040   14.6450 C.3   314  GLU314      0.0415
     20  CG      -108.8490   14.7110   13.2400 C.3   314  GLU314      0.1163
     21  CD      -110.3850   14.7080   13.1560 C.2   314  GLU314      0.3649
     22  OE1     -111.0680   15.3030   14.0240 O.co2 314  GLU314     -0.2457
     23  OE2     -110.9230   14.1240   12.1780 O.co2 314  GLU314     -0.2457
     24  N       -103.1680   16.2280   12.3550 N.3   316  ASP316     -0.1225
     25  CA      -101.8530   16.8330   12.3550 C.3   316  ASP316      0.1805
     26  C       -100.8380   15.8240   12.9190 C.2   316  ASP316      0.2598
     27  O       -101.1800   15.0060   13.7410 O.2   316  ASP316     -0.2718
     28  CB      -101.8340   18.0720   13.2320 C.3   316  ASP316      0.1424
     29  CG      -102.1660   19.2860   12.4890 C.2   316  ASP316      0.3668
     30  OD1     -103.3510   19.5730   12.2690 O.co2 316  ASP316     -0.2456
     31  OD2     -101.2110   19.9710   12.1450 O.co2 316  ASP316     -0.2456
     32  N        -99.5960   15.9370   12.4920 N.am  317  GLY317     -0.1943
     33  CA       -98.4700   15.2190   13.1240 C.3   317  GLY317      0.1998
     34  C        -98.0680   15.8080   14.4590 C.2   317  GLY317      0.2480
     35  O        -98.5500   16.8680   14.8650 O.2   317  GLY317     -0.2729
     36  N        -97.1780   15.1100   15.1830 N.am  318  PRO318     -0.2726
     37  CA       -96.7990   15.4740   16.5550 C.3   318  PRO318      0.1402
     38  C        -95.7340   16.6100   16.5760 C.2   318  PRO318      0.2269
     39  O        -94.5440   16.4070   16.8970 O.2   318  PRO318     -0.2865
     40  CB       -96.2780   14.1450   17.1060 C.3   318  PRO318      0.0296
     41  CG       -95.5980   13.5530   15.9040 C.3   318  PRO318      0.0237
     42  CD       -96.5430   13.8570   14.7640 C.3   318  PRO318      0.0939
     43  N        -95.3570   19.1050   18.6590 N.3   320  TYR320     -0.1227
     44  CA       -94.7870   19.4990   19.9350 C.3   320  TYR320      0.1736
     45  C        -93.7130   18.5040   20.3450 C.2   320  TYR320      0.2595
     46  O        -92.6500   18.9100   20.8370 O.2   320  TYR320     -0.2718
     47  CB       -95.8880   19.6200   20.9800 C.3   320  TYR320      0.0548
     48  CG       -96.7130   20.8620   20.8100 C.ar  320  TYR320     -0.0200
     49  CD1      -96.2140   22.0920   21.1730 C.ar  320  TYR320     -0.0009
     50  CD2      -97.9660   20.8120   20.2500 C.ar  320  TYR320     -0.0009
     51  CE1      -96.9660   23.2470   21.0120 C.ar  320  TYR320      0.0417
     52  CE2      -98.7110   21.9650   20.0420 C.ar  320  TYR320      0.0417
     53  CZ       -98.2290   23.1820   20.4640 C.ar  320  TYR320      0.1957
     54  OH       -98.9870   24.3440   20.3090 O.3   320  TYR320     -0.2866
     55  N        -93.9640   17.2100   20.0900 N.am  321  GLN321     -0.1979
     56  CA       -92.9470   16.1860   20.4130 C.3   321  GLN321      0.1601
     57  C        -91.7280   16.3010   19.5360 C.2   321  GLN321      0.2287
     58  O        -90.6120   16.0880   20.0090 O.2   321  GLN321     -0.2864
     59  CB       -93.5110   14.7840   20.3420 C.3   321  GLN321      0.0394
     60  CG       -94.6220   14.4910   21.3440 C.3   321  GLN321      0.0908
     61  CD       -96.0040   15.0170   20.9470 C.2   321  GLN321      0.2608
     62  OE1      -96.2280   15.6010   19.8730 O.2   321  GLN321     -0.2717
     63  NE2      -96.9600   14.7940   21.8400 N.am  321  GLN321     -0.0878
     64  N        -90.6220    8.0070   20.8700 N.3   344  PHE344     -0.1241
     65  CA       -91.9800    8.4790   20.7260 C.3   344  PHE344      0.1605
     66  C        -92.4340    8.1670   19.3140 C.2   344  PHE344      0.2264
     67  O        -91.7240    8.4820   18.3870 O.2   344  PHE344     -0.2867
     68  CB       -92.0290   10.0040   20.8710 C.3   344  PHE344      0.0534
     69  CG       -93.3970   10.5460   20.6530 C.ar  344  PHE344     -0.0203
     70  CD1      -94.3480   10.4400   21.6460 C.ar  344  PHE344     -0.0042
     71  CD2      -93.7780   11.0520   19.4230 C.ar  344  PHE344     -0.0042
     72  CE1      -95.6430   10.8730   21.4300 C.ar  344  PHE344     -0.0003
     73  CE2      -95.0610   11.5000   19.2060 C.ar  344  PHE344     -0.0003
     74  CZ       -96.0010   11.3990   20.2060 C.ar  344  PHE344     -0.0000
     75  N        -95.8600    8.0960   16.5380 N.3   346  PHE346     -0.1241
     76  CA       -97.2510    8.5160   16.2940 C.3   346  PHE346      0.1605
     77  C        -97.6190    8.2720   14.8410 C.2   346  PHE346      0.2264
     78  O        -96.8680    8.6260   13.9280 O.2   346  PHE346     -0.2867
     79  CB       -97.4510   10.0140   16.5790 C.3   346  PHE346      0.0534
     80  CG       -98.8800   10.4580   16.4630 C.ar  346  PHE346     -0.0203
     81  CD1      -99.7730   10.2570   17.5060 C.ar  346  PHE346     -0.0042
     82  CD2      -99.3470   11.0660   15.3090 C.ar  346  PHE346     -0.0042
     83  CE1     -101.1040   10.6650   17.3980 C.ar  346  PHE346     -0.0003
     84  CE2     -100.6610   11.4830   15.1900 C.ar  346  PHE346     -0.0003
     85  CZ      -101.5450   11.2810   16.2310 C.ar  346  PHE346     -0.0000
@<TRIPOS>BOND
     1    14    13    1
     2    31    29   ar
     3    23    21   ar
     4    30    29   ar
     5    25    24    1
     6    25    26    1
     7    25    28    1
     8    29    28    1
     9    32    26   am
    10    32    33    1
    11    13    10    1
    12    26    27    2
    13    33    34    1
    14    21    20    1
    15    21    22   ar
    16    20    19    1
    17    17    18    2
    18    17    16    1
    19    78    77    2
    20    10     9    1
    21    10    11    1
    22    15    11   am
    23    15    16    1
    24    34    35    2
    25    34    36   am
    26     9     3   am
    27    11    12    2
    28    19    16    1
    29    42    36    1
    30    42    41    1
    31    77    76    1
    32    36    37    1
    33    84    82   ar
    34    84    85   ar
    35    82    80   ar
    36     8     6    1
    37     3     2    1
    38     3     4    2
    39     2     5    1
    40     2     1    1
    41    41    40    1
    42    85    83   ar
    43    76    75    1
    44    76    79    1
    45     5     6    1
    46    80    79    1
    47    80    81   ar
    48    37    38    1
    49    37    40    1
    50    38    39    2
    51     6     7    1
    52    83    81   ar
    53    67    66    2
    54    43    44    1
    55    73    71   ar
    56    73    74   ar
    57    66    65    1
    58    71    69   ar
    59    57    58    2
    60    57    56    1
    61    62    61    2
    62    44    45    1
    63    44    47    1
    64    52    50   ar
    65    52    53   ar
    66    55    45   am
    67    55    56    1
    68    74    72   ar
    69    50    48   ar
    70    54    53    1
    71    59    56    1
    72    59    60    1
    73    45    46    2
    74    53    51   ar
    75    69    68    1
    76    69    70   ar
    77    65    64    1
    78    65    68    1
    79    48    47    1
    80    48    49   ar
    81    61    60    1
    82    61    63   am
    83    51    49   ar
    84    72    70   ar
