@<TRIPOS>MOLECULE
tmp/4qddA00.pdb
 208 193 0 0 0
SMALL
GASTEIGER

@<TRIPOS>ATOM
      1  N        -88.3500   23.6850    7.1610 N.3   164  ILE164     -0.1245
      2  CA       -88.0520   22.6390    6.1680 C.3   164  ILE164      0.1561
      3  C        -88.0680   21.2780    6.8490 C.2   164  ILE164      0.2260
      4  O        -88.4540   20.2750    6.2490 O.2   164  ILE164     -0.2867
      5  CB       -86.7100   22.8840    5.4000 C.3   164  ILE164      0.0252
      6  CG1      -86.2690   21.6620    4.5780 C.3   164  ILE164      0.0019
      7  CG2      -85.5720   23.2380    6.3350 C.3   164  ILE164      0.0019
      8  CD1      -87.2530   21.1900    3.5240 C.3   164  ILE164      0.0001
      9  N        -91.6210   19.7990    7.3370 N.3   167  ASN167     -0.1225
     10  CA       -92.1850   19.0380    6.2180 C.3   167  ASN167      0.1785
     11  C        -92.2150   17.5290    6.4550 C.2   167  ASN167      0.2597
     12  O        -92.9960   16.8150    5.8310 O.2   167  ASN167     -0.2718
     13  CB       -91.4110   19.3070    4.9290 C.3   167  ASN167      0.1169
     14  CG       -91.4380   20.7620    4.4840 C.2   167  ASN167      0.2627
     15  OD1      -90.6570   21.1410    3.6160 O.2   167  ASN167     -0.2716
     16  ND2      -92.3250   21.5650    5.0480 N.am  167  ASN167     -0.0877
     17  N        -91.3590   17.0560    7.3590 N.am  168  VAL168     -0.1980
     18  CA       -91.2980   15.6390    7.7460 C.3   168  VAL168      0.1595
     19  C        -92.6460   15.0720    8.1980 C.2   168  VAL168      0.2287
     20  O        -92.9230   13.8980    7.9810 O.2   168  VAL168     -0.2864
     21  CB       -90.2220   15.4300    8.8350 C.3   168  VAL168      0.0276
     22  CG1      -90.3090   14.0490    9.4690 C.3   168  VAL168      0.0022
     23  CG2      -88.8350   15.6520    8.2480 C.3   168  VAL168      0.0022
     24  N        -99.5410   18.7660    2.5790 N.3   173  HIS173     -0.1226
     25  CA       -98.9960   19.7230    1.5950 C.3   173  HIS173      0.1752
     26  C        -98.5610   19.0330    0.3140 C.2   173  HIS173      0.2596
     27  O        -98.5800   19.6430   -0.7590 O.2   173  HIS173     -0.2718
     28  CB       -97.8300   20.5370    2.1680 C.3   173  HIS173      0.0759
     29  CG       -96.4980   19.8520    2.0830 C.ar  173  HIS173      0.0818
     30  ND1      -96.1240   18.8310    2.9310 N.ar  173  HIS173     -0.2268
     31  CD2      -95.4440   20.0560    1.2630 C.ar  173  HIS173      0.1154
     32  CE1      -94.9030   18.4290    2.6290 C.ar  173  HIS173      0.1986
     33  NE2      -94.4650   19.1610    1.6250 N.ar  173  HIS173     -0.2212
     34  N        -98.1780   17.7600    0.4110 N.am  174  PHE174     -0.1976
     35  CA       -97.8220   16.9770   -0.7760 C.3   174  PHE174      0.1639
     36  C        -98.9490   16.9480   -1.7990 C.2   174  PHE174      0.2290
     37  O        -98.6980   16.8930   -3.0000 O.2   174  PHE174     -0.2864
     38  CB       -97.4290   15.5580   -0.3800 C.3   174  PHE174      0.0560
     39  CG       -96.1450   15.4800    0.4110 C.ar  174  PHE174     -0.0200
     40  CD1      -94.9650   16.0050   -0.1010 C.ar  174  PHE174     -0.0042
     41  CD2      -96.1210   14.8760    1.6630 C.ar  174  PHE174     -0.0042
     42  CE1      -93.7930   15.9270    0.6210 C.ar  174  PHE174     -0.0003
     43  CE2      -94.9530   14.8000    2.3910 C.ar  174  PHE174     -0.0003
     44  CZ       -93.7800   15.3230    1.8670 C.ar  174  PHE174     -0.0000
     45  N        -97.4180   20.0170   -3.7800 N.3   178  HIS178     -0.1241
     46  CA       -96.5890   19.2270   -4.7090 C.3   178  HIS178      0.1621
     47  C        -97.3940   18.3970   -5.7300 C.2   178  HIS178      0.2264
     48  O        -96.8150   17.8470   -6.6730 O.2   178  HIS178     -0.2867
     49  CB       -95.6230   18.3130   -3.9260 C.3   178  HIS178      0.0745
     50  CG       -94.4870   19.0500   -3.2850 C.ar  178  HIS178      0.0817
     51  ND1      -93.1640   18.7860   -3.5740 N.ar  178  HIS178     -0.2268
     52  CD2      -94.4730   20.0530   -2.3770 C.ar  178  HIS178      0.1154
     53  CE1      -92.3860   19.5920   -2.8730 C.ar  178  HIS178      0.1986
     54  NE2      -93.1560   20.3730   -2.1370 N.ar  178  HIS178     -0.2212
     55  N        -99.2290   15.4700   -5.3940 N.3   180  SER180     -0.1217
     56  CA       -99.1410   14.0130   -5.2770 C.3   180  SER180      0.1889
     57  C       -100.3270   13.4680   -4.4770 C.2   180  SER180      0.2288
     58  O       -101.1840   14.2270   -4.0520 O.2   180  SER180     -0.2866
     59  CB       -97.8260   13.6330   -4.5910 C.3   180  SER180      0.2089
     60  OG       -97.8160   14.0750   -3.2450 O.3   180  SER180     -0.2183
     61  N        -89.3740    9.6640    8.0690 N.3   196  GLN196     -0.1245
     62  CA       -90.6720    9.6820    7.4120 C.3   196  GLN196      0.1566
     63  C        -90.7790    8.4710    6.4930 C.2   196  GLN196      0.2260
     64  O        -89.8510    8.1720    5.7500 O.2   196  GLN196     -0.2867
     65  CB       -90.8420   10.9680    6.5940 C.3   196  GLN196      0.0367
     66  CG       -92.1980   11.1200    5.9110 C.3   196  GLN196      0.0905
     67  CD       -92.2240   12.2680    4.9040 C.2   196  GLN196      0.2608
     68  OE1      -92.0750   13.4320    5.2730 O.2   196  GLN196     -0.2717
     69  NE2      -92.4220   11.9480    3.6310 N.am  196  GLN196     -0.0878
     70  N        -93.4730    7.0210    3.5540 N.3   198  MET198     -0.1245
     71  CA       -94.6130    7.4530    2.7530 C.3   198  MET198      0.1570
     72  C        -94.7570    6.5980    1.5060 C.2   198  MET198      0.2261
     73  O        -93.7710    6.3020    0.8340 O.2   198  MET198     -0.2867
     74  CB       -94.4400    8.9170    2.3710 C.3   198  MET198      0.0387
     75  CG       -95.5790    9.5110    1.5550 C.3   198  MET198      0.0595
     76  SD       -95.2800   11.2420    1.1150 S.3   198  MET198     -0.1393
     77  CE       -93.8300   11.1050    0.0750 C.3   198  MET198      0.0692
     78  N        -96.8650    7.0800   -1.8960 N.3   200  SER200     -0.1217
     79  CA       -97.6440    8.0930   -2.6150 C.3   200  SER200      0.1889
     80  C        -97.8230    7.7600   -4.0980 C.2   200  SER200      0.2288
     81  O        -97.0000    7.0670   -4.6950 O.2   200  SER200     -0.2866
     82  CB       -96.9620    9.4510   -2.4940 C.3   200  SER200      0.2089
     83  OG       -95.6990    9.4500   -3.1500 O.3   200  SER200     -0.2183
     84  N        -97.7770    8.6220  -16.7700 N.3   210  ASP210     -0.1239
     85  CA       -97.7810    7.6840  -15.6460 C.3   210  ASP210      0.1674
     86  C        -98.9540    6.7060  -15.7100 C.2   210  ASP210      0.2266
     87  O        -99.9840    6.9980  -16.3190 O.2   210  ASP210     -0.2867
     88  CB       -97.8260    8.4550  -14.3230 C.3   210  ASP210      0.1410
     89  CG       -96.5560    9.2510  -14.0670 C.2   210  ASP210      0.3668
     90  OD1      -95.8860    9.6420  -15.0480 O.co2 210  ASP210     -0.2456
     91  OD2      -96.2280    9.4840  -12.8810 O.co2 210  ASP210     -0.2456
     92  N        -95.2350    5.2980   -5.7380 N.3   216  LEU216     -0.1245
     93  CA       -93.8550    5.5360   -5.3170 C.3   216  LEU216      0.1561
     94  C        -93.7400    5.2670   -3.8190 C.2   216  LEU216      0.2260
     95  O        -94.6140    5.6660   -3.0490 O.2   216  LEU216     -0.2867
     96  CB       -93.4630    6.9880   -5.6160 C.3   216  LEU216      0.0270
     97  CG       -91.9940    7.3910   -5.4220 C.3   216  LEU216      0.0019
     98  CD1      -91.1320    6.8460   -6.5480 C.3   216  LEU216      0.0001
     99  CD2      -91.8440    8.8970   -5.3040 C.3   216  LEU216      0.0001
    100  N        -91.5300    5.9990   -0.6360 N.3   218  SER218     -0.1217
    101  CA       -90.5020    6.8680   -0.0670 C.3   218  SER218      0.1889
    102  C        -90.1560    6.4840    1.3640 C.2   218  SER218      0.2288
    103  O        -90.9940    5.9570    2.1070 O.2   218  SER218     -0.2866
    104  CB       -90.9520    8.3270   -0.1080 C.3   218  SER218      0.2089
    105  OG       -89.8980    9.1910    0.2850 O.3   218  SER218     -0.2183
    106  N        -87.6300    8.4900    4.0780 N.3   220  ALA220     -0.1245
    107  CA       -86.7220    9.6020    4.3230 C.3   220  ALA220      0.1562
    108  C        -86.3390    9.6910    5.8030 C.2   220  ALA220      0.2260
    109  O        -87.1850    9.5250    6.6750 O.2   220  ALA220     -0.2867
    110  CB       -87.3610   10.9010    3.8630 C.3   220  ALA220      0.0290
    111  N        -83.8720   12.1160    8.5110 N.3   222  TYR222     -0.1241
    112  CA       -82.8940   13.1040    8.9670 C.3   222  TYR222      0.1605
    113  C        -81.9270   12.4540    9.9360 C.2   222  TYR222      0.2264
    114  O        -82.3540   11.8270   10.8950 O.2   222  TYR222     -0.2867
    115  CB       -83.5700   14.3040    9.6340 C.3   222  TYR222      0.0534
    116  CG       -83.9770   15.4030    8.6590 C.ar  222  TYR222     -0.0201
    117  CD1      -83.0290   16.2440    8.0860 C.ar  222  TYR222     -0.0009
    118  CD2      -85.3170   15.6000    8.3270 C.ar  222  TYR222     -0.0009
    119  CE1      -83.3980   17.2480    7.2120 C.ar  222  TYR222      0.0417
    120  CE2      -85.6940   16.5970    7.4530 C.ar  222  TYR222      0.0417
    121  CZ       -84.7400   17.4210    6.9010 C.ar  222  TYR222      0.1957
    122  OH       -85.1680   18.3900    6.0170 O.3   222  TYR222     -0.2866
    123  N        -80.6970   15.0550    5.5010 N.3   228  MET228     -0.1245
    124  CA       -81.6560   13.9950    5.2180 C.3   228  MET228      0.1570
    125  C        -81.2620   13.2010    3.9770 C.2   228  MET228      0.2261
    126  O        -80.7210   13.7510    3.0180 O.2   228  MET228     -0.2867
    127  CB       -83.0640   14.5740    5.0190 C.3   228  MET228      0.0387
    128  CG       -84.0050   13.7200    4.1780 C.3   228  MET228      0.0595
    129  SD       -85.6770   14.3650    4.0980 S.3   228  MET228     -0.1393
    130  CE       -86.3510   13.8800    5.6740 C.3   228  MET228      0.0692
    131  N        -83.1110   10.1640    1.3340 N.3   230  ASP230     -0.1239
    132  CA       -84.4100    9.6080    0.9860 C.3   230  ASP230      0.1674
    133  C        -84.2720    8.5000   -0.0440 C.2   230  ASP230      0.2266
    134  O        -83.8780    8.7460   -1.1920 O.2   230  ASP230     -0.2867
    135  CB       -85.3510   10.6870    0.4410 C.3   230  ASP230      0.1410
    136  CG       -86.7310   10.1640    0.1600 C.2   230  ASP230      0.3668
    137  OD1      -87.0350    9.0060    0.5300 O.co2 230  ASP230     -0.2456
    138  OD2      -87.5190   10.9060   -0.4390 O.co2 230  ASP230     -0.2456
    139  N        -86.0230    6.0000   -2.4870 N.3   232  LEU232     -0.1245
    140  CA       -87.2390    6.0240   -3.2750 C.3   232  LEU232      0.1561
    141  C        -87.2720    4.8220   -4.2150 C.2   232  LEU232      0.2260
    142  O        -86.2240    4.3670   -4.6760 O.2   232  LEU232     -0.2867
    143  CB       -87.2930    7.3200   -4.0900 C.3   232  LEU232      0.0270
    144  CG       -87.2710    8.6120   -3.2670 C.3   232  LEU232      0.0019
    145  CD1      -86.9120    9.8060   -4.1320 C.3   232  LEU232      0.0001
    146  CD2      -88.6040    8.8240   -2.5780 C.3   232  LEU232      0.0001
    147  N        -82.5970   10.2990   -3.0200 N.3   245  LEU245     -0.1245
    148  CA       -82.7170   11.7540   -3.0420 C.3   245  LEU245      0.1561
    149  C        -82.1700   12.3150   -1.7360 C.2   245  LEU245      0.2260
    150  O        -82.6200   11.9300   -0.6580 O.2   245  LEU245     -0.2867
    151  CB       -84.1820   12.1690   -3.2410 C.3   245  LEU245      0.0270
    152  CG       -84.5880   13.6170   -2.9670 C.3   245  LEU245      0.0019
    153  CD1      -83.7490   14.5770   -3.7990 C.3   245  LEU245      0.0001
    154  CD2      -86.0820   13.8090   -3.2400 C.3   245  LEU245      0.0001
    155  N        -81.7650   15.5070    0.7610 N.3   247  ASN247     -0.1240
    156  CA       -82.1500   16.8340    1.2030 C.3   247  ASN247      0.1653
    157  C        -81.2260   17.2770    2.3270 C.2   247  ASN247      0.2266
    158  O        -81.1220   16.6040    3.3410 O.2   247  ASN247     -0.2867
    159  CB       -83.6030   16.8360    1.6520 C.3   247  ASN247      0.1155
    160  CG       -84.0080   18.1110    2.3720 C.2   247  ASN247      0.2627
    161  OD1      -84.8380   18.0820    3.2820 O.2   247  ASN247     -0.2716
    162  ND2      -83.4480   19.2230    1.9710 N.am  247  ASN247     -0.0877
    163  N        -84.1970   14.7270  -14.5250 N.3   282  GLN282     -0.1231
    164  CA       -85.6530   14.9090  -14.5340 C.3   282  GLN282      0.1698
    165  C        -86.2260   14.8810  -13.1160 C.2   282  GLN282      0.2592
    166  O        -87.0810   15.6980  -12.7720 O.2   282  GLN282     -0.2718
    167  CB       -86.3310   13.8200  -15.3780 C.3   282  GLN282      0.0381
    168  CG       -87.8050   14.0820  -15.6730 C.3   282  GLN282      0.0905
    169  CD       -88.6060   12.8060  -15.9390 C.2   282  GLN282      0.2608
    170  OE1      -88.1180   11.6990  -15.7290 O.2   282  GLN282     -0.2717
    171  NE2      -89.8530   12.9620  -16.3890 N.am  282  GLN282     -0.0878
    172  N        -85.7450   13.9410  -12.3030 N.am  283  PHE283     -0.1976
    173  CA       -86.2270   13.8010  -10.9300 C.3   283  PHE283      0.1639
    174  C        -85.8740   15.0350  -10.0980 C.2   283  PHE283      0.2290
    175  O        -86.7420   15.6050   -9.4260 O.2   283  PHE283     -0.2864
    176  CB       -85.6520   12.5380  -10.2710 C.3   283  PHE283      0.0560
    177  CG       -86.5720   11.9170   -9.2540 C.ar  283  PHE283     -0.0200
    178  CD1      -86.7100   12.4700   -7.9920 C.ar  283  PHE283     -0.0042
    179  CD2      -87.2960   10.7780   -9.5630 C.ar  283  PHE283     -0.0042
    180  CE1      -87.5650   11.9040   -7.0580 C.ar  283  PHE283     -0.0003
    181  CE2      -88.1470   10.2000   -8.6310 C.ar  283  PHE283     -0.0003
    182  CZ       -88.2890   10.7660   -7.3840 C.ar  283  PHE283     -0.0000
    183  N        -87.8260   17.9760  -11.1630 N.3   286  GLY286     -0.1210
    184  CA       -89.1810   17.8730  -10.6280 C.3   286  GLY286      0.1956
    185  C        -89.2670   18.2610   -9.1740 C.2   286  GLY286      0.2611
    186  O        -90.2610   18.8440   -8.7400 O.2   286  GLY286     -0.2717
    187  N        -88.2210   17.9430   -8.4180 N.am  287  VAL287     -0.1979
    188  CA       -88.1010   18.3810   -7.0220 C.3   287  VAL287      0.1595
    189  C        -87.8590   19.8820   -6.9640 C.2   287  VAL287      0.2287
    190  O        -88.4230   20.5580   -6.1060 O.2   287  VAL287     -0.2864
    191  CB       -86.9550   17.6380   -6.2980 C.3   287  VAL287      0.0276
    192  CG1      -86.6770   18.2520   -4.9290 C.3   287  VAL287      0.0022
    193  CG2      -87.2900   16.1550   -6.1580 C.3   287  VAL287      0.0022
    194  N        -90.8820   21.6210   -6.9720 N.3   290  GLY290     -0.1210
    195  CA       -91.4610   21.3470   -5.6520 C.3   290  GLY290      0.1956
    196  C        -91.0240   22.3240   -4.5780 C.2   290  GLY290      0.2611
    197  O        -91.8560   22.9850   -3.9680 O.2   290  GLY290     -0.2717
    198  N        -89.7180   22.4140   -4.3430 N.am  291  PHE291     -0.1976
    199  CA       -89.1780   23.3360   -3.3430 C.3   291  PHE291      0.1639
    200  C        -89.4030   24.8120   -3.6960 C.2   291  PHE291      0.2290
    201  O        -89.5450   25.6480   -2.7940 O.2   291  PHE291     -0.2864
    202  CB       -87.6730   23.0950   -3.1150 C.3   291  PHE291      0.0560
    203  CG       -87.3640   21.8370   -2.3460 C.ar  291  PHE291     -0.0200
    204  CD1      -88.0110   21.5430   -1.1540 C.ar  291  PHE291     -0.0042
    205  CD2      -86.4040   20.9460   -2.8130 C.ar  291  PHE291     -0.0042
    206  CE1      -87.7240   20.3790   -0.4590 C.ar  291  PHE291     -0.0003
    207  CE2      -86.1080   19.7870   -2.1100 C.ar  291  PHE291     -0.0003
    208  CZ       -86.7820   19.5040   -0.9430 C.ar  291  PHE291     -0.0000
@<TRIPOS>BOND
     1    84    85    1
     2   171   169   am
     3    87    86    2
     4   169   170    2
     5   169   168    1
     6    86    85    1
     7   168   167    1
     8    85    88    1
     9   167   164    1
    10    90    89   ar
    11   164   163    1
    12   164   165    1
    13    88    89    1
    14    89    91   ar
    15   165   166    2
    16   165   172   am
    17   172   173    1
    18   183   184    1
    19   173   176    1
    20   173   174    1
    21   184   185    1
    22   176   177    1
    23   174   175    2
    24   179   177   ar
    25   179   181   ar
    26   177   178   ar
    27   185   186    2
    28   185   187   am
    29   181   182   ar
    30   187   188    1
    31   178   180   ar
    32   182   180   ar
    33   188   189    1
    34   188   191    1
    35   194   195    1
    36   189   190    2
    37    48    47    2
    38    98    97    1
    39   191   193    1
    40   191   192    1
    41    92    93    1
    42    47    46    1
    43   195   196    1
    44    96    97    1
    45    96    93    1
    46    97    99    1
    47    55    56    1
    48    93    94    1
    49    56    59    1
    50    56    57    1
    51    46    49    1
    52    46    45    1
    53    81    80    2
    54   142   141    2
    55    59    60    1
    56   196   198   am
    57   196   197    2
    58    57    58    2
    59   198   199    1
    60   141   140    1
    61   145   144    1
    62    80    79    1
    63   143   140    1
    64   143   144    1
    65    49    50    1
    66    94    95    2
    67   153   152    1
    68   200   199    1
    69   200   201    2
    70    51    50   ar
    71    51    53   ar
    72   199   202    1
    73    50    52   ar
    74   140   139    1
    75   144   146    1
    76   151   148    1
    77   151   152    1
    78   154   152    1
    79    83    82    1
    80   202   203    1
    81   148   147    1
    82   148   149    1
    83    37    36    2
    84    53    54   ar
    85   205   203   ar
    86   205   207   ar
    87    79    82    1
    88    79    78    1
    89    52    54   ar
    90   203   204   ar
    91   207   208   ar
    92    36    35    1
    93   149   150    2
    94   134   133    2
    95   204   206   ar
    96   208   206   ar
    97    35    38    1
    98    35    34    1
    99    27    26    2
   100   100   101    1
   101   138   136   ar
   102    38    39    1
   103   104   101    1
   104   104   105    1
   105    40    39   ar
   106    40    42   ar
   107   101   102    1
   108   133   132    1
   109    77    76    1
   110   136   135    1
   111   136   137   ar
   112    26    34   am
   113    26    25    1
   114    39    41   ar
   115   135   132    1
   116    42    44   ar
   117   155   156    1
   118    73    72    2
   119   132   131    1
   120    76    75    1
   121   156   159    1
   122   156   157    1
   123    31    33   ar
   124    31    29   ar
   125   102   103    2
   126    72    71    1
   127    75    74    1
   128    25    28    1
   129    25    24    1
   130    33    32   ar
   131   159   160    1
   132    41    43   ar
   133    44    43   ar
   134   162   160   am
   135    29    28    1
   136    29    30   ar
   137   157   158    2
   138    74    71    1
   139   160   161    2
   140    32    30   ar
   141    71    70    1
   142   126   125    2
   143     8     6    1
   144    15    14    2
   145    69    67   am
   146   110   107    1
   147   125   124    1
   148   106   107    1
   149   129   128    1
   150   129   130    1
   151   128   127    1
   152   107   108    1
   153    14    13    1
   154    14    16   am
   155     6     5    1
   156    67    68    2
   157    67    66    1
   158    13    10    1
   159   127   124    1
   160   124   123    1
   161     5     2    1
   162     5     7    1
   163    64    63    2
   164   108   109    2
   165    12    11    2
   166    66    65    1
   167   122   121    1
   168     2     3    1
   169     2     1    1
   170    10    11    1
   171    10     9    1
   172     4     3    2
   173    11    17   am
   174    63    62    1
   175    65    62    1
   176   121   119   ar
   177   121   120   ar
   178   119   117   ar
   179    17    18    1
   180    62    61    1
   181   120   118   ar
   182    18    19    1
   183    18    21    1
   184    20    19    2
   185   117   116   ar
   186    23    21    1
   187   118   116   ar
   188   111   112    1
   189   116   115    1
   190    21    22    1
   191   112   115    1
   192   112   113    1
   193   113   114    2
