@<TRIPOS>MOLECULE
tmp/4qdeD00.pdb
 174 167 0 0 0
SMALL
GASTEIGER

@<TRIPOS>ATOM
      1  N         97.9530   25.8850   62.7800 N.3    26  PHE26      -0.1241
      2  CA        97.6910   24.4580   62.9470 C.3    26  PHE26       0.1605
      3  C         98.5900   23.9980   64.0870 C.2    26  PHE26       0.2264
      4  O         99.8230   24.1320   64.0140 O.2    26  PHE26      -0.2867
      5  CB        97.9550   23.6740   61.6400 C.3    26  PHE26       0.0534
      6  CG        97.0990   24.0590   60.4500 C.ar   26  PHE26      -0.0203
      7  CD1       97.3440   25.2350   59.7410 C.ar   26  PHE26      -0.0042
      8  CD2       96.0970   23.2140   59.9930 C.ar   26  PHE26      -0.0042
      9  CE1       96.5570   25.5830   58.6330 C.ar   26  PHE26      -0.0003
     10  CE2       95.3140   23.5600   58.8800 C.ar   26  PHE26      -0.0003
     11  CZ        95.5410   24.7470   58.2160 C.ar   26  PHE26      -0.0000
     12  N         93.0550   23.5360   64.9710 N.3    42  ILE42      -0.1245
     13  CA        93.1470   24.5500   63.9170 C.3    42  ILE42       0.1561
     14  C         92.4170   25.8140   64.4130 C.2    42  ILE42       0.2260
     15  O         91.2590   25.7190   64.8440 O.2    42  ILE42      -0.2867
     16  CB        92.5480   24.0970   62.5400 C.3    42  ILE42       0.0252
     17  CG1       92.6950   22.5680   62.2360 C.3    42  ILE42       0.0019
     18  CG2       93.1080   24.9420   61.4040 C.3    42  ILE42       0.0019
     19  CD1       94.0370   21.9000   62.3810 C.3    42  ILE42       0.0001
     20  N         88.8020   24.3200   65.0670 N.3    85  THR85      -0.1218
     21  CA        88.5440   22.9380   64.6670 C.3    85  THR85       0.1862
     22  C         89.4350   22.0330   65.4960 C.2    85  THR85       0.2287
     23  O         90.6210   22.3130   65.6260 O.2    85  THR85      -0.2866
     24  CB        88.6720   22.7660   63.1500 C.3    85  THR85       0.1770
     25  OG1       87.8100   23.7090   62.4990 O.3    85  THR85      -0.2211
     26  CG2       88.3400   21.3480   62.6940 C.3    85  THR85       0.0375
     27  N         90.6920   17.9910   66.2510 N.3    87  VAL87      -0.1245
     28  CA        90.8290   16.6090   65.7690 C.3    87  VAL87       0.1561
     29  C         91.3320   15.7460   66.9590 C.2    87  VAL87       0.2260
     30  O         92.5340   15.7420   67.2460 O.2    87  VAL87      -0.2867
     31  CB        91.7680   16.5010   64.5250 C.3    87  VAL87       0.0252
     32  CG1       91.7800   15.0870   63.9670 C.3    87  VAL87       0.0019
     33  CG2       91.4040   17.5140   63.4400 C.3    87  VAL87       0.0019
     34  N         97.8400   12.0140   59.9640 N.3    94  HIS94      -0.1241
     35  CA        97.0120   13.1830   60.1750 C.3    94  HIS94       0.1621
     36  C         97.9200   14.3850   60.4030 C.2    94  HIS94       0.2264
     37  O         97.6610   15.4610   59.8700 O.2    94  HIS94      -0.2867
     38  CB        96.1080   12.9820   61.3890 C.3    94  HIS94       0.0745
     39  CG        94.7740   13.6070   61.2010 C.ar   94  HIS94       0.0817
     40  ND1       93.6410   12.8370   61.0500 N.ar   94  HIS94      -0.2268
     41  CD2       94.4450   14.9100   61.0540 C.ar   94  HIS94       0.1154
     42  CE1       92.6550   13.6910   60.8550 C.ar   94  HIS94       0.1986
     43  NE2       93.0940   14.9510   60.8420 N.ar   94  HIS94      -0.2212
     44  N         99.8210   15.6560   57.0720 N.3    97  LYS97      -0.1231
     45  CA        99.0020   16.3840   56.1090 C.3    97  LYS97       0.1693
     46  C         99.0580   17.8960   56.3190 C.2    97  LYS97       0.2592
     47  O         98.8960   18.6330   55.3460 O.2    97  LYS97      -0.2718
     48  CB        97.5480   15.8520   56.0660 C.3    97  LYS97       0.0285
     49  CG        96.5610   16.4820   57.0660 C.3    97  LYS97       0.0035
     50  CD        95.0910   16.2330   56.7020 C.3    97  LYS97       0.0206
     51  CE        94.4600   17.3650   55.9190 C.3    97  LYS97       0.1093
     52  NZ        93.1140   17.0130   55.3990 N.3    97  LYS97      -0.1314
     53  N         99.3140   18.3540   57.5690 N.am   98  TYR98      -0.1976
     54  CA        99.3470   19.7820   57.9230 C.3    98  TYR98       0.1639
     55  C        100.7030   20.4550   57.7740 C.2    98  TYR98       0.2290
     56  O        100.7600   21.6810   57.7030 O.2    98  TYR98      -0.2864
     57  CB        98.7930   20.0160   59.3350 C.3    98  TYR98       0.0560
     58  CG        97.3900   19.4880   59.5100 C.ar   98  TYR98      -0.0198
     59  CD1       96.3390   19.9570   58.7210 C.ar   98  TYR98      -0.0009
     60  CD2       97.1130   18.4960   60.4400 C.ar   98  TYR98      -0.0009
     61  CE1       95.0470   19.4560   58.8650 C.ar   98  TYR98       0.0417
     62  CE2       95.8270   17.9870   60.5920 C.ar   98  TYR98       0.0417
     63  CZ        94.7960   18.4660   59.8020 C.ar   98  TYR98       0.1957
     64  OH        93.5330   17.9640   59.9880 O.3    98  TYR98      -0.2866
     65  N         93.3470    6.8260   53.7120 N.3   126  LEU126     -0.1245
     66  CA        92.5020    7.4000   54.7870 C.3   126  LEU126      0.1561
     67  C         91.2020    6.6190   55.1870 C.2   126  LEU126      0.2260
     68  O         90.6880    5.7480   54.4620 O.2   126  LEU126     -0.2867
     69  CB        92.0990    8.8710   54.4130 C.3   126  LEU126      0.0270
     70  CG        92.4440    9.9990   55.3970 C.3   126  LEU126      0.0019
     71  CD1       93.5900   10.8440   54.8710 C.3   126  LEU126      0.0001
     72  CD2       91.2460   10.8980   55.6440 C.3   126  LEU126      0.0001
     73  N         83.7430    9.9800   58.8720 N.3   130  TRP130     -0.1241
     74  CA        83.0030   11.2330   59.0270 C.3   130  TRP130      0.1605
     75  C         82.0510   11.4450   57.8460 C.2   130  TRP130      0.2264
     76  O         80.9650   11.9910   58.0360 O.2   130  TRP130     -0.2867
     77  CB        83.9540   12.4340   59.2200 C.3   130  TRP130      0.0550
     78  CG        84.8200   12.7680   58.0290 C.ar  130  TRP130      0.0003
     79  CD1       86.1010   12.3460   57.7940 C.ar  130  TRP130      0.0946
     80  CD2       84.4640   13.6070   56.9200 C.ar  130  TRP130      0.0152
     81  NE1       86.5650   12.8750   56.6130 N.ar  130  TRP130     -0.2442
     82  CE2       85.5840   13.6640   56.0610 C.ar  130  TRP130      0.0810
     83  CE3       83.2910   14.3010   56.5550 C.ar  130  TRP130      0.0012
     84  CZ2       85.5720   14.4030   54.8650 C.ar  130  TRP130      0.0191
     85  CZ3       83.2830   15.0310   55.3740 C.ar  130  TRP130      0.0001
     86  CH2       84.4140   15.0750   54.5450 C.ar  130  TRP130      0.0015
     87  N         77.8470   11.3190   57.8750 N.3   134  ILE134     -0.1245
     88  CA        76.9880   12.3320   57.2490 C.3   134  ILE134      0.1561
     89  C         75.9070   11.6390   56.4290 C.2   134  ILE134      0.2260
     90  O         74.7270   11.9120   56.6470 O.2   134  ILE134     -0.2867
     91  CB        77.7790   13.3920   56.4390 C.3   134  ILE134      0.0252
     92  CG1       78.4700   14.3680   57.3790 C.3   134  ILE134      0.0019
     93  CG2       76.9040   14.1400   55.4420 C.3   134  ILE134      0.0019
     94  CD1       79.6630   15.0260   56.7490 C.3   134  ILE134      0.0001
     95  N         75.8260   15.5830   61.6830 N.3   140  GLU140     -0.1245
     96  CA        75.4890   16.8010   60.9570 C.3   140  GLU140      0.1567
     97  C         74.1150   16.7810   60.2480 C.2   140  GLU140      0.2260
     98  O         73.9230   17.5540   59.3050 O.2   140  GLU140     -0.2867
     99  CB        76.6110   17.1370   59.9520 C.3   140  GLU140      0.0388
    100  CG        77.9010   17.6480   60.5560 C.3   140  GLU140      0.1160
    101  CD        78.9710   18.0000   59.5330 C.2   140  GLU140      0.3649
    102  OE1       78.8320   19.0400   58.8460 O.co2 140  GLU140     -0.2457
    103  OE2       79.9570   17.2330   59.4210 O.co2 140  GLU140     -0.2457
    104  N         72.4170   20.0300   59.6160 N.3   143  ARG143     -0.1197
    105  CA        73.1500   20.9200   58.7260 C.3   143  ARG143      0.1779
    106  C         72.8780   20.6690   57.2300 C.2   143  ARG143      0.2305
    107  O         73.2670   21.5100   56.4010 O.2   143  ARG143     -0.2863
    108  CB        74.6680   20.8350   58.9980 C.2   143  ARG143     -0.0007
    109  CG        75.1010   21.1910   60.4060 C.2   143  ARG143      0.0176
    110  CD        76.6100   21.2090   60.6870 C.3   143  ARG143      0.2464
    111  NE        77.5230   21.4150   59.5460 N.pl3 143  ARG143     -0.0815
    112  CZ        78.1700   22.5450   59.2800 C.cat 143  ARG143      0.5349
    113  NH1       78.0300   23.5990   60.0690 N.pl3 143  ARG143      0.1354
    114  NH2       79.0110   22.6090   58.2570 N.pl3 143  ARG143      0.1354
    115  N         75.9050   19.7730   51.9790 N.3   158  ILE158     -0.1231
    116  CA        76.1460   20.2700   53.3240 C.3   158  ILE158      0.1678
    117  C         77.2090   21.3910   53.3550 C.2   158  ILE158      0.2434
    118  O         78.1740   21.3050   52.5830 O.2   158  ILE158     -0.2733
    119  CB        76.5170   19.0280   54.2070 C.3   158  ILE158      0.0265
    120  CG1       76.4670   19.3380   55.7260 C.3   158  ILE158      0.0019
    121  CG2       77.8520   18.3570   53.8000 C.3   158  ILE158      0.0020
    122  CD1       75.8750   18.1870   56.5690 C.3   158  ILE158      0.0001
    123  N         77.0810   22.4490   54.2280 N.am  159  PRO159     -0.2718
    124  CA        78.1840   23.4240   54.3320 C.3   159  PRO159      0.1535
    125  C         79.4470   22.6270   54.6760 C.2   159  PRO159      0.2599
    126  O         79.3780   21.6220   55.4100 O.2   159  PRO159     -0.2715
    127  CB        77.7860   24.3150   55.5170 C.3   159  PRO159      0.0310
    128  CG        76.3870   24.0680   55.7530 C.3   159  PRO159      0.0237
    129  CD        76.0160   22.7360   55.2160 C.3   159  PRO159      0.0939
    130  N         80.5780   23.0040   54.0830 N.am  160  ASP160     -0.1958
    131  CA        81.7990   22.2950   54.4010 C.3   160  ASP160      0.1840
    132  C         82.2550   22.8490   55.7320 C.2   160  ASP160      0.2622
    133  O         81.9820   24.0120   56.0140 O.2   160  ASP160     -0.2715
    134  CB        82.8510   22.5030   53.3050 C.3   160  ASP160      0.1450
    135  CG        84.1880   21.8580   53.6190 C.2   160  ASP160      0.3671
    136  OD1       84.9550   22.4460   54.4290 O.co2 160  ASP160     -0.2456
    137  OD2       84.4680   20.7550   53.0660 O.co2 160  ASP160     -0.2456
    138  N         82.9190   22.0270   56.5550 N.am  161  LEU161     -0.1963
    139  CA        83.4860   22.4000   57.8710 C.3   161  LEU161      0.1728
    140  C         84.2660   23.7550   57.8360 C.2   161  LEU161      0.2616
    141  O         84.2180   24.5130   58.8190 O.2   161  LEU161     -0.2715
    142  CB        84.4180   21.2670   58.3690 C.3   161  LEU161      0.0311
    143  CG        84.9760   21.3520   59.7820 C.3   161  LEU161      0.0022
    144  CD1       85.1040   19.9740   60.3840 C.3   161  LEU161      0.0001
    145  CD2       86.3310   22.0430   59.8000 C.3   161  LEU161      0.0001
    146  N         84.9830   24.0340   56.7020 N.am  162  LYS162     -0.1977
    147  CA        85.8180   25.2290   56.4840 C.3   162  LYS162      0.1596
    148  C         85.0130   26.5410   56.5330 C.2   162  LYS162      0.2287
    149  O         85.5840   27.5930   56.8180 O.2   162  LYS162     -0.2864
    150  CB        86.6540   25.1070   55.1710 C.3   162  LYS162      0.0298
    151  CG        87.8390   24.0970   55.2480 C.3   162  LYS162      0.0038
    152  CD        88.1510   23.3210   53.9280 C.3   162  LYS162      0.0206
    153  CE        88.1190   21.7990   54.0830 C.3   162  LYS162      0.1093
    154  NZ        87.6890   21.0680   52.8410 N.3   162  LYS162     -0.1314
    155  N         79.7050   21.3640   50.2270 N.3   174  ILE174     -0.1245
    156  CA        80.1810   20.1130   49.6580 C.3   174  ILE174      0.1561
    157  C         78.9700   19.1310   49.4000 C.2   174  ILE174      0.2260
    158  O         78.0660   18.9790   50.2340 O.2   174  ILE174     -0.2867
    159  CB        81.3770   19.5450   50.5100 C.3   174  ILE174      0.0252
    160  CG1       82.0280   18.3220   49.8650 C.3   174  ILE174      0.0019
    161  CG2       81.0370   19.2730   51.9740 C.3   174  ILE174      0.0019
    162  CD1       83.5890   18.1350   50.2330 C.3   174  ILE174      0.0001
    163  N         89.9640   12.7510   50.0850 N.3   228  TYR228     -0.1241
    164  CA        89.0620   11.6620   50.4690 C.3   228  TYR228      0.1605
    165  C         88.6740   10.9630   49.1930 C.2   228  TYR228      0.2264
    166  O         88.3570   11.5930   48.1700 O.2   228  TYR228     -0.2867
    167  CB        87.8490   12.1750   51.2990 C.3   228  TYR228      0.0534
    168  CG        88.2960   13.2270   52.2850 C.ar  228  TYR228     -0.0201
    169  CD1       89.0350   12.8750   53.4170 C.ar  228  TYR228     -0.0009
    170  CD2       88.1690   14.5860   51.9880 C.ar  228  TYR228     -0.0009
    171  CE1       89.6340   13.8450   54.2260 C.ar  228  TYR228      0.0417
    172  CE2       88.7470   15.5680   52.8030 C.ar  228  TYR228      0.0417
    173  CZ        89.4740   15.1920   53.9250 C.ar  228  TYR228      0.1957
    174  OH        90.0360   16.1460   54.7460 O.3   228  TYR228     -0.2866
@<TRIPOS>BOND
     1   166   165    2
     2   165   164    1
     3   157   156    1
     4   157   158    2
     5   156   155    1
     6   156   159    1
     7   160   162    1
     8   160   159    1
     9   163   164    1
    10   164   167    1
    11   159   161    1
    12   167   168    1
    13   115   116    1
    14   170   168   ar
    15   170   172   ar
    16   168   169   ar
    17   118   117    2
    18   172   173   ar
    19   154   153    1
    20   137   135   ar
    21   134   135    1
    22   134   131    1
    23   116   117    1
    24   116   119    1
    25   117   123   am
    26   169   171   ar
    27   135   136   ar
    28    65    66    1
    29   121   119    1
    30   173   171   ar
    31   173   174    1
    32   152   153    1
    33   152   151    1
    34   130   131    1
    35   130   125   am
    36   119   120    1
    37   123   124    1
    38   123   129    1
    39   124   125    1
    40   124   127    1
    41   131   132    1
    42    69    66    1
    43    69    70    1
    44    68    67    2
    45    86    84   ar
    46    86    85   ar
    47   125   126    2
    48    66    67    1
    49    84    82   ar
    50    71    70    1
    51   150   151    1
    52   150   147    1
    53   129   128    1
    54    47    46    2
    55    85    83   ar
    56    70    72    1
    57    52    51    1
    58    93    91    1
    59   127   128    1
    60   120   122    1
    61   132   133    2
    62   132   138   am
    63    51    50    1
    64    82    81   ar
    65    82    80   ar
    66    48    45    1
    67    48    49    1
    68    45    46    1
    69    45    44    1
    70    46    53   am
    71   107   106    2
    72    89    90    2
    73    89    88    1
    74    91    88    1
    75    91    92    1
    76   147   148    1
    77   147   146    1
    78   148   149    2
    79    83    80   ar
    80   138   139    1
    81    81    79   ar
    82    50    49    1
    83   146   140   am
    84    94    92    1
    85    80    78   ar
    86   106   105    1
    87    88    87    1
    88    53    54    1
    89    56    55    2
    90    55    54    1
    91    79    78   ar
    92   140   139    1
    93   140   141    2
    94    75    76    2
    95    75    74    1
    96   139   142    1
    97    54    57    1
    98    78    77    1
    99    11     9   ar
   100    11    10   ar
   101   114   112    1
   102   142   143    1
   103     9     7   ar
   104    59    61   ar
   105    59    58   ar
   106   105   108    1
   107   105   104    1
   108   102   101   ar
   109    61    63   ar
   110    73    74    1
   111    10     8   ar
   112   108   109    2
   113    74    77    1
   114   112   111    2
   115   112   113    1
   116    98    97    2
   117    57    58    1
   118   103   101   ar
   119    58    60   ar
   120   101   100    1
   121   111   110    1
   122     7     6   ar
   123   143   145    1
   124   143   144    1
   125    63    64    1
   126    63    62   ar
   127    37    36    2
   128    99   100    1
   129    99    96    1
   130    34    35    1
   131     8     6   ar
   132    35    36    1
   133    35    38    1
   134    97    96    1
   135   109   110    1
   136    60    62   ar
   137     6     5    1
   138    43    42   ar
   139    43    41   ar
   140    42    40   ar
   141    96    95    1
   142    40    39   ar
   143    41    39   ar
   144    39    38    1
   145    18    16    1
   146     5     2    1
   147    17    19    1
   148    17    16    1
   149    25    24    1
   150    16    13    1
   151    26    24    1
   152     1     2    1
   153     2     3    1
   154    24    21    1
   155    33    31    1
   156    13    14    1
   157    13    12    1
   158    32    31    1
   159     4     3    2
   160    14    15    2
   161    31    28    1
   162    21    20    1
   163    21    22    1
   164    22    23    2
   165    28    27    1
   166    28    29    1
   167    29    30    2
