@<TRIPOS>MOLECULE
tmp/4qdfA00.pdb
 158 157 0 0 0
SMALL
GASTEIGER

@<TRIPOS>ATOM
      1  N         -6.7220  -15.0150   40.6820 N.3     6  ARG6       -0.1231
      2  CA        -5.5200  -15.4670   41.3690 C.3     6  ARG6        0.1694
      3  C         -5.7330  -15.3900   42.8760 C.2     6  ARG6        0.2593
      4  O         -6.0080  -14.3170   43.4000 O.2     6  ARG6       -0.2718
      5  CB        -4.3350  -14.5840   41.0050 C.3     6  ARG6        0.0321
      6  CG        -3.0710  -14.8710   41.8100 C.3     6  ARG6        0.0489
      7  CD        -1.9740  -13.8560   41.5070 C.3     6  ARG6        0.2205
      8  NE        -2.3790  -12.5010   41.8910 N.pl3   6  ARG6       -0.0865
      9  CZ        -2.8870  -11.5790   41.0720 C.cat   6  ARG6        0.5346
     10  NH1       -3.0640  -11.8240   39.7760 N.pl3   6  ARG6        0.1354
     11  NH2       -3.2230  -10.3840   41.5440 N.pl3   6  ARG6        0.1354
     12  N         -5.6150  -16.5200   43.5680 N.am    7  GLY7       -0.1942
     13  CA        -5.6410  -16.5080   45.0140 C.3     7  GLY7        0.2014
     14  C         -5.9830  -17.8190   45.6830 C.2     7  GLY7        0.2638
     15  O         -6.2420  -18.8250   45.0210 O.2     7  GLY7       -0.2714
     16  N         -5.9740  -17.8010   47.0150 N.am    8  TRP8       -0.1973
     17  CA        -6.3920  -18.9460   47.8020 C.3     8  TRP8        0.1640
     18  C         -7.8810  -19.1480   47.6620 C.2     8  TRP8        0.2290
     19  O         -8.6520  -18.1850   47.6850 O.2     8  TRP8       -0.2864
     20  CB        -5.9950  -18.7950   49.2760 C.3     8  TRP8        0.0576
     21  CG        -4.5090  -18.8930   49.4970 C.ar    8  TRP8        0.0006
     22  CD1       -3.6460  -17.8780   49.7710 C.ar    8  TRP8        0.0946
     23  CD2       -3.7170  -20.0730   49.4310 C.ar    8  TRP8        0.0152
     24  NE1       -2.3680  -18.3430   49.8790 N.ar    8  TRP8       -0.2442
     25  CE2       -2.3800  -19.6950   49.6800 C.ar    8  TRP8        0.0810
     26  CE3       -4.0030  -21.4160   49.1860 C.ar    8  TRP8        0.0012
     27  CZ2       -1.3380  -20.6050   49.6930 C.ar    8  TRP8        0.0191
     28  CZ3       -2.9600  -22.3270   49.2050 C.ar    8  TRP8        0.0001
     29  CH2       -1.6450  -21.9150   49.4540 C.ar    8  TRP8        0.0015
     30  N         -4.0420  -22.7710   45.8460 N.3   111  TRP111     -0.1241
     31  CA        -3.6180  -21.5190   45.2310 C.3   111  TRP111      0.1605
     32  C         -3.8610  -21.6110   43.7460 C.2   111  TRP111      0.2264
     33  O         -3.3180  -22.5020   43.0890 O.2   111  TRP111     -0.2867
     34  CB        -2.1290  -21.2870   45.4730 C.3   111  TRP111      0.0550
     35  CG        -1.5830  -20.0690   44.8280 C.ar  111  TRP111      0.0003
     36  CD1       -0.7990  -20.0150   43.7160 C.ar  111  TRP111      0.0946
     37  CD2       -1.7590  -18.7210   45.2640 C.ar  111  TRP111      0.0152
     38  NE1       -0.4790  -18.7160   43.4250 N.ar  111  TRP111     -0.2442
     39  CE2       -1.0550  -17.8980   44.3610 C.ar  111  TRP111      0.0810
     40  CE3       -2.4400  -18.1310   46.3290 C.ar  111  TRP111      0.0012
     41  CZ2       -1.0090  -16.5120   44.4930 C.ar  111  TRP111      0.0191
     42  CZ3       -2.4050  -16.7560   46.4600 C.ar  111  TRP111      0.0001
     43  CH2       -1.6910  -15.9560   45.5420 C.ar  111  TRP111      0.0015
     44  N          2.9990  -16.1310   47.1530 N.3   120  PRO120     -0.2116
     45  CA         3.9670  -15.4600   47.9960 C.3   120  PRO120      0.1372
     46  C          3.6030  -15.6090   49.4650 C.2   120  PRO120      0.2244
     47  O          2.4300  -15.8060   49.8160 O.2   120  PRO120     -0.2868
     48  CB         3.9060  -13.9960   47.5450 C.3   120  PRO120      0.0268
     49  CG         2.6720  -13.8510   46.7360 C.3   120  PRO120      0.0207
     50  CD         2.2320  -15.2090   46.2940 C.3   120  PRO120      0.0892
     51  N          3.5220  -13.5100   51.8810 N.3   122  ASP122     -0.1225
     52  CA         2.6790  -12.4790   52.4920 C.3   122  ASP122      0.1805
     53  C          1.2220  -12.5180   52.0410 C.2   122  ASP122      0.2598
     54  O          0.4340  -11.6850   52.4600 O.2   122  ASP122     -0.2718
     55  CB         3.2690  -11.0780   52.2720 C.3   122  ASP122      0.1424
     56  CG         3.2440  -10.6330   50.8240 C.2   122  ASP122      0.3668
     57  OD1        3.2550  -11.4840   49.9200 O.co2 122  ASP122     -0.2456
     58  OD2        3.2310   -9.4090   50.5960 O.co2 122  ASP122     -0.2456
     59  N          0.8620  -13.4730   51.1910 N.am  123  VAL123     -0.1966
     60  CA        -0.5300  -13.6700   50.7970 C.3   123  VAL123      0.1727
     61  C         -0.9600  -15.0440   51.2960 C.2   123  VAL123      0.2617
     62  O         -0.5300  -16.0670   50.7670 O.2   123  VAL123     -0.2715
     63  CB        -0.6840  -13.5690   49.2680 C.3   123  VAL123      0.0290
     64  CG1       -2.0860  -13.9520   48.8480 C.3   123  VAL123      0.0023
     65  CG2       -0.3500  -12.1620   48.7840 C.3   123  VAL123      0.0023
     66  N         -1.7970  -15.0670   52.3260 N.am  124  THR124     -0.1937
     67  CA        -2.1780  -16.3100   52.9830 C.3   124  THR124      0.2028
     68  C         -3.5800  -16.2050   53.5750 C.2   124  THR124      0.2642
     69  O         -4.2890  -15.2230   53.3580 O.2   124  THR124     -0.2714
     70  CB        -1.1610  -16.6410   54.0970 C.3   124  THR124      0.1808
     71  OG1       -1.4310  -17.9400   54.6480 O.3   124  THR124     -0.2208
     72  CG2       -1.2120  -15.5840   55.2090 C.3   124  THR124      0.0379
     73  N         -3.9830  -17.2360   54.3080 N.am  125  ILE125     -0.1977
     74  CA        -5.2480  -17.2380   55.0320 C.3   125  ILE125      0.1596
     75  C         -4.9080  -17.2660   56.5100 C.2   125  ILE125      0.2287
     76  O         -4.1950  -18.1590   56.9380 O.2   125  ILE125     -0.2864
     77  CB        -6.0800  -18.4960   54.7190 C.3   125  ILE125      0.0276
     78  CG1       -6.3500  -18.6240   53.2100 C.3   125  ILE125      0.0022
     79  CG2       -7.3920  -18.4830   55.5070 C.3   125  ILE125      0.0022
     80  CD1       -7.4140  -17.6880   52.6630 C.3   125  ILE125      0.0001
     81  N         -4.5190   -3.5080   50.1200 N.3   181  GLY181     -0.1210
     82  CA        -3.6970   -4.6210   49.6450 C.3   181  GLY181      0.1956
     83  C         -4.6040   -5.6670   49.0280 C.2   181  GLY181      0.2611
     84  O         -5.3850   -5.3500   48.1420 O.2   181  GLY181     -0.2717
     85  N         -4.5510   -6.8930   49.5340 N.am  182  HIS182     -0.1975
     86  CA        -5.4110   -7.9530   49.0180 C.3   182  HIS182      0.1656
     87  C         -6.5720   -8.3110   49.9530 C.2   182  HIS182      0.2291
     88  O         -7.1040   -9.4310   49.8620 O.2   182  HIS182     -0.2864
     89  CB        -4.6000   -9.2050   48.6750 C.3   182  HIS182      0.0771
     90  CG        -3.8780   -9.7940   49.8370 C.ar  182  HIS182      0.0820
     91  ND1       -4.4420  -10.7450   50.6640 N.ar  182  HIS182     -0.2267
     92  CD2       -2.6250   -9.5810   50.3040 C.ar  182  HIS182      0.1154
     93  CE1       -3.5740  -11.0820   51.6010 C.ar  182  HIS182      0.1986
     94  NE2       -2.4620  -10.3930   51.4010 N.ar  182  HIS182     -0.2212
     95  N        -10.0310  -12.3010   52.5730 N.3   216  PHE216     -0.1227
     96  CA        -8.5970  -12.4710   52.5480 C.3   216  PHE216      0.1736
     97  C         -8.2910  -13.0280   51.1800 C.2   216  PHE216      0.2596
     98  O         -8.1880  -14.2400   50.9880 O.2   216  PHE216     -0.2718
     99  CB        -8.1300  -13.3800   53.6790 C.3   216  PHE216      0.0547
    100  CG        -8.3380  -12.7820   55.0290 C.ar  216  PHE216     -0.0202
    101  CD1       -7.3760  -11.9480   55.5850 C.ar  216  PHE216     -0.0042
    102  CD2       -9.5150  -13.0070   55.7260 C.ar  216  PHE216     -0.0042
    103  CE1       -7.5720  -11.3720   56.8310 C.ar  216  PHE216     -0.0003
    104  CE2       -9.7260  -12.4290   56.9730 C.ar  216  PHE216     -0.0003
    105  CZ        -8.7530  -11.6110   57.5260 C.ar  216  PHE216     -0.0000
    106  N         -8.1780  -12.1120   50.2240 N.am  217  GLY217     -0.1943
    107  CA        -8.0960  -12.4700   48.8290 C.3   217  GLY217      0.1998
    108  C         -9.4550  -12.4450   48.1700 C.2   217  GLY217      0.2480
    109  O        -10.4100  -11.9290   48.7430 O.2   217  GLY217     -0.2729
    110  N         -9.5520  -13.0160   46.9550 N.am  218  PRO218     -0.2726
    111  CA       -10.7520  -12.8400   46.1490 C.3   218  PRO218      0.1402
    112  C        -11.9120  -13.7470   46.5130 C.2   218  PRO218      0.2269
    113  O        -13.0310  -13.4880   46.0920 O.2   218  PRO218     -0.2865
    114  CB       -10.2690  -13.1870   44.7420 C.3   218  PRO218      0.0296
    115  CG        -9.1840  -14.1900   44.9610 C.3   218  PRO218      0.0237
    116  CD        -8.5240  -13.8030   46.2480 C.3   218  PRO218      0.0939
    117  N         -7.7030   -6.4770   40.8180 N.3   318  GLN318     -0.1231
    118  CA        -6.3010   -6.8470   40.9830 C.3   318  GLN318      0.1698
    119  C         -6.0670   -8.3340   40.7900 C.2   318  GLN318      0.2592
    120  O         -4.9860   -8.7430   40.3770 O.2   318  GLN318     -0.2718
    121  CB        -5.7880   -6.4430   42.3630 C.3   318  GLN318      0.0381
    122  CG        -6.1370   -7.3940   43.5010 C.3   318  GLN318      0.0905
    123  CD        -5.6890   -6.8570   44.8490 C.2   318  GLN318      0.2608
    124  OE1       -4.6710   -7.2680   45.3700 O.2   318  GLN318     -0.2717
    125  NE2       -6.4530   -5.9360   45.4130 N.am  318  GLN318     -0.0878
    126  N         -7.0790   -9.1320   41.1130 N.am  319  PHE319     -0.1976
    127  CA        -6.9740  -10.5840   41.0890 C.3   319  PHE319      0.1639
    128  C         -7.1850  -11.1840   39.6970 C.2   319  PHE319      0.2290
    129  O         -7.0540  -12.3880   39.5150 O.2   319  PHE319     -0.2864
    130  CB        -7.9930  -11.1750   42.0720 C.3   319  PHE319      0.0560
    131  CG        -7.8390  -10.6720   43.4840 C.ar  319  PHE319     -0.0200
    132  CD1       -6.6400  -10.8440   44.1720 C.ar  319  PHE319     -0.0042
    133  CD2       -8.8870  -10.0190   44.1260 C.ar  319  PHE319     -0.0042
    134  CE1       -6.4980  -10.3820   45.4790 C.ar  319  PHE319     -0.0003
    135  CE2       -8.7510   -9.5570   45.4300 C.ar  319  PHE319     -0.0003
    136  CZ        -7.5560   -9.7420   46.1080 C.ar  319  PHE319     -0.0000
    137  N          0.3040   -9.6790   38.0370 N.3   323  VAL323     -0.1245
    138  CA         0.7740   -8.9490   39.2130 C.3   323  VAL323      0.1561
    139  C          1.5800   -7.7150   38.8350 C.2   323  VAL323      0.2260
    140  O          1.5200   -6.6980   39.5210 O.2   323  VAL323     -0.2867
    141  CB         1.5460   -9.8440   40.2090 C.3   323  VAL323      0.0252
    142  CG1        0.5940  -10.8330   40.8550 C.3   323  VAL323      0.0019
    143  CG2        2.6810  -10.5910   39.5430 C.3   323  VAL323      0.0019
    144  N         -0.8000   -4.6640   38.3790 N.3   326  ILE326     -0.1245
    145  CA        -1.6110   -4.1490   39.4790 C.3   326  ILE326      0.1561
    146  C         -1.1930   -2.7090   39.7660 C.2   326  ILE326      0.2260
    147  O         -0.0040   -2.4240   39.8930 O.2   326  ILE326     -0.2867
    148  CB        -1.4570   -4.9930   40.7520 C.3   326  ILE326      0.0252
    149  CG1       -1.9690   -6.4100   40.5160 C.3   326  ILE326      0.0019
    150  CG2       -2.2350   -4.3820   41.9100 C.3   326  ILE326      0.0019
    151  CD1       -1.5430   -7.3950   41.5840 C.3   326  ILE326      0.0001
    152  N         -4.7260   -1.2160   45.3350 N.3   331  THR331     -0.1218
    153  CA        -4.2110   -1.7890   46.5870 C.3   331  THR331      0.1862
    154  C         -4.0140   -0.7760   47.7150 C.2   331  THR331      0.2287
    155  O         -3.8150   -1.1710   48.8640 O.2   331  THR331     -0.2866
    156  CB        -2.8330   -2.4440   46.3590 C.3   331  THR331      0.1770
    157  OG1       -1.9200   -1.4600   45.8500 O.3   331  THR331     -0.2211
    158  CG2       -2.9430   -3.5840   45.3820 C.3   331  THR331      0.0375
@<TRIPOS>BOND
     1   137   138    1
     2   144   145    1
     3   139   138    1
     4   139   140    2
     5   138   141    1
     6   145   146    1
     7   145   148    1
     8   129   128    2
     9   143   141    1
    10   128   127    1
    11   146   147    2
    12    10     9    1
    13   141   142    1
    14   120   119    2
    15   149   148    1
    16   149   151    1
    17     1     2    1
    18   148   150    1
    19   119   118    1
    20   119   126   am
    21   117   118    1
    22   118   121    1
    23     5     2    1
    24     5     6    1
    25     9    11    1
    26     9     8    2
    27   127   126    1
    28   127   130    1
    29     2     3    1
    30     7     6    1
    31     7     8    1
    32   130   131    1
    33   121   122    1
    34     3     4    2
    35     3    12   am
    36    33    32    2
    37    38    36   ar
    38    38    39   ar
    39   131   133   ar
    40   131   132   ar
    41   122   123    1
    42    12    13    1
    43    36    35   ar
    44    32    31    1
    45   133   135   ar
    46   132   134   ar
    47    39    41   ar
    48    39    37   ar
    49    41    43   ar
    50   114   115    1
    51   114   111    1
    52    35    37   ar
    53    35    34    1
    54   123   124    2
    55   123   125   am
    56   115   116    1
    57    13    14    1
    58    15    14    2
    59    31    34    1
    60    31    30    1
    61    37    40   ar
    62   152   153    1
    63   158   156    1
    64   135   136   ar
    65   134   136   ar
    66    43    42   ar
    67    14    16   am
    68   157   156    1
    69   113   112    2
    70   111   112    1
    71   111   110    1
    72   116   110    1
    73    50    49    1
    74    50    44    1
    75    40    42   ar
    76   156   153    1
    77   153   154    1
    78    49    48    1
    79   110   108   am
    80    16    17    1
    81    44    45    1
    82    48    45    1
    83    18    19    2
    84    18    17    1
    85   154   155    2
    86    17    20    1
    87    45    46    1
    88    84    83    2
    89   108   109    2
    90   108   107    1
    91    89    86    1
    92    89    90    1
    93    65    63    1
    94   107   106    1
    95    64    63    1
    96    86    85    1
    97    86    87    1
    98    83    85   am
    99    83    82    1
   100    26    28   ar
   101    26    23   ar
   102    28    29   ar
   103    63    60    1
   104    20    21    1
   105    23    21   ar
   106    23    25   ar
   107    29    27   ar
   108    46    47    2
   109    21    22   ar
   110    82    81    1
   111    25    27   ar
   112    25    24   ar
   113    22    24   ar
   114    90    92   ar
   115    90    91   ar
   116    88    87    2
   117    57    56   ar
   118   106    97   am
   119    92    94   ar
   120    58    56   ar
   121    91    93   ar
   122    62    61    2
   123    60    59    1
   124    60    61    1
   125    56    55    1
   126    98    97    2
   127    97    96    1
   128    59    53   am
   129    61    66   am
   130    94    93   ar
   131    51    52    1
   132    53    54    2
   133    53    52    1
   134    55    52    1
   135    66    67    1
   136    96    95    1
   137    96    99    1
   138    80    78    1
   139    67    68    1
   140    67    70    1
   141    78    77    1
   142    69    68    2
   143    68    73   am
   144    99   100    1
   145    70    71    1
   146    70    72    1
   147    73    74    1
   148    77    74    1
   149    77    79    1
   150   100   101   ar
   151   100   102   ar
   152    74    75    1
   153   101   103   ar
   154   102   104   ar
   155    75    76    2
   156   103   105   ar
   157   104   105   ar
