@<TRIPOS>MOLECULE
tmp/4qdfB00.pdb
 244 233 0 0 0
SMALL
GASTEIGER

@<TRIPOS>ATOM
      1  N         32.4690  -22.8010   82.0820 N.3   153  ILE153     -0.1245
      2  CA        32.4120  -22.9470   80.6340 C.3   153  ILE153      0.1561
      3  C         31.7180  -21.7470   79.9880 C.2   153  ILE153      0.2260
      4  O         32.1330  -21.2640   78.9380 O.2   153  ILE153     -0.2867
      5  CB        31.6310  -24.2380   80.2540 C.3   153  ILE153      0.0252
      6  CG1       32.3740  -25.4740   80.7270 C.3   153  ILE153      0.0019
      7  CG2       31.4170  -24.3610   78.7580 C.3   153  ILE153      0.0019
      8  CD1       33.7930  -25.5510   80.2140 C.3   153  ILE153      0.0001
      9  N         33.2740  -18.1710   78.5040 N.3   156  ASN156     -0.1225
     10  CA        33.9130  -18.0690   77.1960 C.3   156  ASN156      0.1785
     11  C         33.0610  -17.3970   76.1120 C.2   156  ASN156      0.2597
     12  O         33.5990  -16.8470   75.1480 O.2   156  ASN156     -0.2718
     13  CB        34.3470  -19.4550   76.6910 C.3   156  ASN156      0.1169
     14  CG        35.7190  -19.8680   77.2120 C.2   156  ASN156      0.2627
     15  OD1       36.5540  -20.3880   76.4660 O.2   156  ASN156     -0.2716
     16  ND2       35.9640  -19.6150   78.4860 N.am  156  ASN156     -0.0877
     17  N         31.7440  -17.4430   76.2560 N.am  157  ILE157     -0.1980
     18  CA        30.8610  -16.8880   75.2430 C.3   157  ILE157      0.1595
     19  C         31.1700  -15.4010   75.0030 C.2   157  ILE157      0.2287
     20  O         31.0620  -14.9360   73.8760 O.2   157  ILE157     -0.2864
     21  CB        29.3720  -17.1140   75.6030 C.3   157  ILE157      0.0276
     22  CG1       28.4560  -16.9540   74.3940 C.3   157  ILE157      0.0022
     23  CG2       28.9120  -16.1420   76.6510 C.3   157  ILE157      0.0022
     24  CD1       28.3170  -18.2130   73.5710 C.3   157  ILE157      0.0001
     25  N         40.6700  -14.0220   74.1590 N.3   162  HIS162     -0.1226
     26  CA        41.3110  -15.3360   74.1580 C.3   162  HIS162      0.1752
     27  C         41.4440  -15.9200   72.7610 C.2   162  HIS162      0.2596
     28  O         42.2420  -16.8320   72.5390 O.2   162  HIS162     -0.2718
     29  CB        40.5870  -16.3180   75.0890 C.3   162  HIS162      0.0759
     30  CG        39.3930  -16.9700   74.4770 C.ar  162  HIS162      0.0818
     31  ND1       39.4070  -18.2700   74.0260 N.ar  162  HIS162     -0.2268
     32  CD2       38.1510  -16.5000   74.2260 C.ar  162  HIS162      0.1154
     33  CE1       38.2190  -18.5740   73.5360 C.ar  162  HIS162      0.1986
     34  NE2       37.4350  -17.5200   73.6500 N.ar  162  HIS162     -0.2212
     35  N         40.6760  -15.4120   71.8110 N.am  163  PHE163     -0.1976
     36  CA        40.8360  -15.8620   70.4250 C.3   163  PHE163      0.1639
     37  C         42.2500  -15.6660   69.9130 C.2   163  PHE163      0.2290
     38  O         42.7850  -16.5280   69.2240 O.2   163  PHE163     -0.2864
     39  CB        39.8260  -15.1820   69.5170 C.3   163  PHE163      0.0560
     40  CG        38.4730  -15.7880   69.6100 C.ar  163  PHE163     -0.0200
     41  CD1       38.1510  -16.8790   68.8260 C.ar  163  PHE163     -0.0042
     42  CD2       37.5450  -15.3110   70.5120 C.ar  163  PHE163     -0.0042
     43  CE1       36.9120  -17.4570   68.9150 C.ar  163  PHE163     -0.0003
     44  CE2       36.3000  -15.8840   70.6080 C.ar  163  PHE163     -0.0003
     45  CZ        35.9860  -16.9620   69.8140 C.ar  163  PHE163     -0.0000
     46  N         43.4320  -19.3390   70.4790 N.3   167  HIS167     -0.1226
     47  CA        43.1260  -19.8470   69.1330 C.3   167  HIS167      0.1752
     48  C         43.9020  -19.2140   67.9880 C.2   167  HIS167      0.2596
     49  O         43.6600  -19.5510   66.8300 O.2   167  HIS167     -0.2718
     50  CB        41.6370  -19.7320   68.8660 C.3   167  HIS167      0.0759
     51  CG        40.8140  -20.4940   69.8420 C.ar  167  HIS167      0.0818
     52  ND1       40.8600  -21.8680   69.9280 N.ar  167  HIS167     -0.2268
     53  CD2       39.9510  -20.0780   70.7980 C.ar  167  HIS167      0.1154
     54  CE1       40.0460  -22.2680   70.8880 C.ar  167  HIS167      0.1986
     55  NE2       39.4820  -21.2030   71.4290 N.ar  167  HIS167     -0.2212
     56  N         44.8260  -18.3100   68.3010 N.am  168  TYR168     -0.1962
     57  CA        45.7970  -17.8380   67.3100 C.3   168  TYR168      0.1771
     58  C         45.1160  -17.1390   66.1330 C.2   168  TYR168      0.2620
     59  O         45.4160  -17.3950   64.9620 O.2   168  TYR168     -0.2715
     60  CB        46.6800  -19.0000   66.8430 C.3   168  TYR168      0.0574
     61  CG        47.4210  -19.6140   67.9990 C.ar  168  TYR168     -0.0198
     62  CD1       48.4870  -18.9420   68.5900 C.ar  168  TYR168     -0.0009
     63  CD2       47.0310  -20.8300   68.5390 C.ar  168  TYR168     -0.0009
     64  CE1       49.1620  -19.4740   69.6700 C.ar  168  TYR168      0.0417
     65  CE2       47.7030  -21.3760   69.6200 C.ar  168  TYR168      0.0417
     66  CZ        48.7690  -20.6930   70.1790 C.ar  168  TYR168      0.1957
     67  OH        49.4510  -21.2220   71.2470 O.3   168  TYR168     -0.2866
     68  N         44.2150  -16.2270   66.4790 N.am  169  SER169     -0.1950
     69  CA        43.3170  -15.6460   65.5240 C.3   169  SER169      0.1924
     70  C         42.8840  -14.2620   65.9960 C.2   169  SER169      0.2314
     71  O         42.5220  -14.0940   67.1570 O.2   169  SER169     -0.2863
     72  CB        42.1220  -16.5810   65.3750 C.3   169  SER169      0.2116
     73  OG        41.0700  -15.9680   64.6670 O.3   169  SER169     -0.2180
     74  N         27.2950  -15.6760   70.5000 N.3   185  GLN185     -0.1245
     75  CA        28.5500  -15.0480   70.2050 C.3   185  GLN185      0.1566
     76  C         28.6700  -15.0840   68.7010 C.2   185  GLN185      0.2260
     77  O         28.7070  -16.1660   68.1090 O.2   185  GLN185     -0.2867
     78  CB        29.7090  -15.8200   70.8350 C.3   185  GLN185      0.0367
     79  CG        31.0800  -15.3070   70.4430 C.3   185  GLN185      0.0905
     80  CD        32.1940  -16.1960   70.9290 C.2   185  GLN185      0.2608
     81  OE1       32.7380  -16.9910   70.1730 O.2   185  GLN185     -0.2717
     82  NE2       32.5440  -16.0620   72.1980 N.am  185  GLN185     -0.0878
     83  N         31.2110  -13.8970   65.7770 N.3   187  MET187     -0.1245
     84  CA        32.6210  -13.6060   65.7110 C.3   187  MET187      0.1570
     85  C         33.1630  -13.8870   64.2970 C.2   187  MET187      0.2261
     86  O         32.6700  -14.7780   63.5900 O.2   187  MET187     -0.2867
     87  CB        33.3200  -14.4630   66.7750 C.3   187  MET187      0.0387
     88  CG        34.8300  -14.4770   66.7450 C.3   187  MET187      0.0595
     89  SD        35.4360  -15.7430   65.6320 S.3   187  MET187     -0.1393
     90  CE        37.1730  -15.3210   65.6620 C.3   187  MET187      0.0692
     91  N         44.5440  -21.0810   55.1390 N.3   197  MET197     -0.1245
     92  CA        43.2740  -20.4800   55.5400 C.3   197  MET197      0.1570
     93  C         43.4410  -19.0060   55.8420 C.2   197  MET197      0.2261
     94  O         44.2580  -18.6270   56.6910 O.2   197  MET197     -0.2867
     95  CB        42.7120  -21.1640   56.7900 C.3   197  MET197      0.0387
     96  CG        41.3100  -20.6970   57.1770 C.3   197  MET197      0.0595
     97  SD        40.8570  -21.1140   58.8730 S.3   197  MET197     -0.1393
     98  CE        41.0080  -22.8990   58.8590 C.3   197  MET197      0.0692
     99  N         37.9370  -16.8550   59.1360 N.3   200  SER200     -0.1217
    100  CA        36.8990  -17.6700   59.7650 C.3   200  SER200      0.1889
    101  C         35.6740  -16.8820   60.1970 C.2   200  SER200      0.2288
    102  O         35.7630  -15.7070   60.5350 O.2   200  SER200     -0.2866
    103  CB        37.4680  -18.3710   61.0030 C.3   200  SER200      0.2089
    104  OG        38.0100  -17.4230   61.9050 O.3   200  SER200     -0.2183
    105  N         32.0660  -17.4850   62.7930 N.3   202  SER202     -0.1217
    106  CA        31.4180  -18.3200   63.8090 C.3   202  SER202      0.1889
    107  C         30.1690  -17.6670   64.3690 C.2   202  SER202      0.2288
    108  O         30.2340  -16.5830   64.9340 O.2   202  SER202     -0.2866
    109  CB        32.3840  -18.6370   64.9680 C.3   202  SER202      0.2089
    110  OG        31.6990  -18.9510   66.1810 O.3   202  SER202     -0.2183
    111  N         27.4950  -18.7680   67.1170 N.3   204  ALA204     -0.1245
    112  CA        27.3790  -19.7800   68.1550 C.3   204  ALA204      0.1562
    113  C         26.3730  -19.3220   69.1720 C.2   204  ALA204      0.2260
    114  O         26.4740  -18.2070   69.6920 O.2   204  ALA204     -0.2867
    115  CB        28.7230  -19.9940   68.8350 C.3   204  ALA204      0.0290
    116  N         24.1650  -20.6330   72.7980 N.3   206  TYR206     -0.1241
    117  CA        23.6520  -21.5160   73.8330 C.3   206  TYR206      0.1605
    118  C         22.1340  -21.4560   73.7690 C.2   206  TYR206      0.2264
    119  O         21.5460  -20.4070   74.0220 O.2   206  TYR206     -0.2867
    120  CB        24.1290  -21.0860   75.2340 C.3   206  TYR206      0.0534
    121  CG        25.4180  -21.7440   75.6680 C.ar  206  TYR206     -0.0201
    122  CD1       25.4740  -23.1130   75.9280 C.ar  206  TYR206     -0.0009
    123  CD2       26.5860  -21.0110   75.8010 C.ar  206  TYR206     -0.0009
    124  CE1       26.6610  -23.7280   76.3060 C.ar  206  TYR206      0.0417
    125  CE2       27.7750  -21.6140   76.1870 C.ar  206  TYR206      0.0417
    126  CZ        27.8090  -22.9680   76.4430 C.ar  206  TYR206      0.1957
    127  OH        28.9930  -23.5540   76.8220 O.3   206  TYR206     -0.2866
    128  N         25.1700  -25.7580   73.0600 N.3   212  MET212     -0.1245
    129  CA        25.5760  -24.7470   72.0990 C.3   212  MET212      0.1570
    130  C         25.7690  -25.3180   70.7220 C.2   212  MET212      0.2261
    131  O         26.5050  -26.2870   70.5410 O.2   212  MET212     -0.2867
    132  CB        26.8860  -24.0680   72.5030 C.3   212  MET212      0.0387
    133  CG        27.5830  -23.3580   71.3450 C.3   212  MET212      0.0595
    134  SD        29.1390  -22.5970   71.8010 S.3   212  MET212     -0.1393
    135  CE        28.5070  -21.1740   72.6630 C.3   212  MET212      0.0692
    136  N         27.3200  -24.2310   67.1530 N.3   214  ASP214     -0.1239
    137  CA        28.2530  -23.2640   66.5980 C.3   214  ASP214      0.1674
    138  C         28.3810  -23.5120   65.1020 C.2   214  ASP214      0.2266
    139  O         28.9510  -24.5260   64.6830 O.2   214  ASP214     -0.2867
    140  CB        29.6220  -23.3690   67.2890 C.3   214  ASP214      0.1410
    141  CG        30.6280  -22.3280   66.7900 C.2   214  ASP214      0.3668
    142  OD1       30.2250  -21.3280   66.1550 O.co2 214  ASP214     -0.2456
    143  OD2       31.8360  -22.5070   67.0460 O.co2 214  ASP214     -0.2456
    144  N         30.1250  -22.8370   61.8440 N.3   216  LEU216     -0.1245
    145  CA        31.4610  -22.4170   61.4530 C.3   216  LEU216      0.1561
    146  C         31.6360  -22.4060   59.9550 C.2   216  LEU216      0.2260
    147  O         31.2440  -23.3500   59.2710 O.2   216  LEU216     -0.2867
    148  CB        32.5110  -23.3870   61.9920 C.3   216  LEU216      0.0270
    149  CG        32.8330  -23.3810   63.4770 C.3   216  LEU216      0.0019
    150  CD1       34.0180  -24.2990   63.7360 C.3   216  LEU216      0.0001
    151  CD2       33.1340  -21.9740   63.9590 C.3   216  LEU216      0.0001
    152  N         35.0390  -21.7580   57.4930 N.3   218  TYR218     -0.1241
    153  CA        36.4300  -21.3710   57.2890 C.3   218  TYR218      0.1605
    154  C         36.6050  -20.8050   55.8920 C.2   218  TYR218      0.2264
    155  O         36.2590  -21.4500   54.9010 O.2   218  TYR218     -0.2867
    156  CB        37.3780  -22.5380   57.5210 C.3   218  TYR218      0.0534
    157  CG        37.4330  -22.9780   58.9600 C.ar  218  TYR218     -0.0201
    158  CD1       37.4620  -22.0450   59.9990 C.ar  218  TYR218     -0.0009
    159  CD2       37.4690  -24.3280   59.2900 C.ar  218  TYR218     -0.0009
    160  CE1       37.5130  -22.4450   61.3210 C.ar  218  TYR218      0.0417
    161  CE2       37.5250  -24.7390   60.6110 C.ar  218  TYR218      0.0417
    162  CZ        37.5450  -23.7940   61.6220 C.ar  218  TYR218      0.1957
    163  OH        37.5990  -24.2000   62.9350 O.3   218  TYR218     -0.2866
    164  N         29.6700  -27.2720   64.8340 N.3   229  LEU229     -0.1245
    165  CA        30.3510  -27.8040   66.0050 C.3   229  LEU229      0.1561
    166  C         29.3990  -27.6710   67.1670 C.2   229  LEU229      0.2260
    167  O         28.8270  -26.5950   67.3950 O.2   229  LEU229     -0.2867
    168  CB        31.6310  -27.0290   66.2930 C.3   229  LEU229      0.0270
    169  CG        32.2200  -27.0830   67.7120 C.3   229  LEU229      0.0019
    170  CD1       32.7480  -28.4750   68.0220 C.3   229  LEU229      0.0001
    171  CD2       33.3220  -26.0470   67.8950 C.3   229  LEU229      0.0001
    172  N         28.9730  -27.9070   71.2400 N.3   231  ASN231     -0.1240
    173  CA        29.6760  -27.8100   72.4960 C.3   231  ASN231      0.1653
    174  C         28.6140  -27.8650   73.5890 C.2   231  ASN231      0.2266
    175  O         27.8360  -26.9260   73.7530 O.2   231  ASN231     -0.2867
    176  CB        30.4900  -26.5120   72.5490 C.3   231  ASN231      0.1155
    177  CG        30.9080  -26.1260   73.9620 C.2   231  ASN231      0.2627
    178  OD1       31.1100  -26.9830   74.8220 O.2   231  ASN231     -0.2716
    179  ND2       31.0370  -24.8240   74.2060 N.am  231  ASN231     -0.0877
    180  N         41.0040  -31.0210   62.9400 N.3   270  PHE270     -0.1227
    181  CA        41.4940  -29.6640   63.1280 C.3   270  PHE270      0.1736
    182  C         40.5590  -28.8680   64.0490 C.2   270  PHE270      0.2595
    183  O         41.0190  -28.1850   64.9630 O.2   270  PHE270     -0.2718
    184  CB        41.6450  -28.9720   61.7710 C.3   270  PHE270      0.0547
    185  CG        42.0580  -27.5300   61.8680 C.ar  270  PHE270     -0.0202
    186  CD1       43.3820  -27.1880   62.1200 C.ar  270  PHE270     -0.0042
    187  CD2       41.1200  -26.5110   61.7130 C.ar  270  PHE270     -0.0042
    188  CE1       43.7640  -25.8620   62.2150 C.ar  270  PHE270     -0.0003
    189  CE2       41.4980  -25.1820   61.8050 C.ar  270  PHE270     -0.0003
    190  CZ        42.8220  -24.8580   62.0560 C.ar  270  PHE270     -0.0000
    191  N         39.2540  -28.9670   63.8070 N.am  271  ILE271     -0.1980
    192  CA        38.2470  -28.2960   64.6380 C.3   271  ILE271      0.1595
    193  C         38.2580  -28.8280   66.0690 C.2   271  ILE271      0.2287
    194  O         38.1390  -28.0560   67.0240 O.2   271  ILE271     -0.2864
    195  CB        36.8330  -28.4530   64.0430 C.3   271  ILE271      0.0276
    196  CG1       36.7070  -27.6120   62.7680 C.3   271  ILE271      0.0022
    197  CG2       35.7600  -28.0370   65.0430 C.3   271  ILE271      0.0022
    198  CD1       35.5650  -28.0340   61.8660 C.3   271  ILE271      0.0001
    199  N         41.1430  -27.5360   67.8970 N.3   274  GLY274     -0.1210
    200  CA        40.7740  -26.1760   68.2560 C.3   274  GLY274      0.1956
    201  C         40.0160  -26.1220   69.5620 C.2   274  GLY274      0.2611
    202  O         40.4210  -25.4280   70.4890 O.2   274  GLY274     -0.2717
    203  N         38.9280  -26.8780   69.6480 N.am  275  PHE275     -0.1976
    204  CA        38.1280  -26.8970   70.8640 C.3   275  PHE275      0.1639
    205  C         38.9500  -27.3970   72.0500 C.2   275  PHE275      0.2290
    206  O         38.7780  -26.9340   73.1790 O.2   275  PHE275     -0.2864
    207  CB        36.8860  -27.7620   70.6730 C.3   275  PHE275      0.0560
    208  CG        35.9290  -27.6970   71.8260 C.ar  275  PHE275     -0.0200
    209  CD1       35.1870  -26.5460   72.0620 C.ar  275  PHE275     -0.0042
    210  CD2       35.7790  -28.7800   72.6850 C.ar  275  PHE275     -0.0042
    211  CE1       34.3060  -26.4760   73.1290 C.ar  275  PHE275     -0.0003
    212  CE2       34.9010  -28.7170   73.7530 C.ar  275  PHE275     -0.0003
    213  CZ        34.1630  -27.5640   73.9790 C.ar  275  PHE275     -0.0000
    214  N         41.9860  -26.8060   72.6840 N.3   277  GLN277     -0.1231
    215  CA        42.7570  -25.6930   73.2320 C.3   277  GLN277      0.1698
    216  C         42.0040  -25.0510   74.4030 C.2   277  GLN277      0.2592
    217  O         42.6100  -24.6830   75.4140 O.2   277  GLN277     -0.2718
    218  CB        43.0660  -24.6450   72.1470 C.3   277  GLN277      0.0381
    219  CG        43.9630  -25.1400   71.0060 C.3   277  GLN277      0.0905
    220  CD        44.0670  -24.1700   69.8140 C.2   277  GLN277      0.2608
    221  OE1       43.0730  -23.5890   69.3500 O.2   277  GLN277     -0.2717
    222  NE2       45.2780  -24.0150   69.3000 N.am  277  GLN277     -0.0878
    223  N         40.6860  -24.9230   74.2800 N.am  278  ASP278     -0.1974
    224  CA        39.8720  -24.3780   75.3780 C.3   278  ASP278      0.1709
    225  C         39.8020  -25.2940   76.6020 C.2   278  ASP278      0.2293
    226  O         39.7810  -24.8190   77.7450 O.2   278  ASP278     -0.2864
    227  CB        38.4410  -24.1020   74.9180 C.3   278  ASP278      0.1436
    228  CG        38.3380  -22.8950   74.0350 C.2   278  ASP278      0.3671
    229  OD1       38.8770  -21.8290   74.4160 O.co2 278  ASP278     -0.2456
    230  OD2       37.7010  -23.0020   72.9630 O.co2 278  ASP278     -0.2456
    231  N         40.2320  -24.7420   80.7480 N.3   282  TRP282     -0.1241
    232  CA        39.1900  -25.0190   81.7360 C.3   282  TRP282      0.1605
    233  C         39.6430  -26.0100   82.8010 C.2   282  TRP282      0.2264
    234  O         39.2210  -25.9200   83.9480 O.2   282  TRP282     -0.2867
    235  CB        37.9180  -25.5350   81.0650 C.3   282  TRP282      0.0550
    236  CG        37.2580  -24.5330   80.1740 C.ar  282  TRP282      0.0003
    237  CD1       37.1780  -23.1880   80.3710 C.ar  282  TRP282      0.0946
    238  CD2       36.5730  -24.8030   78.9490 C.ar  282  TRP282      0.0152
    239  NE1       36.4970  -22.6060   79.3410 N.ar  282  TRP282     -0.2442
    240  CE2       36.1060  -23.5730   78.4560 C.ar  282  TRP282      0.0810
    241  CE3       36.3000  -25.9710   78.2270 C.ar  282  TRP282      0.0012
    242  CZ2       35.3840  -23.4690   77.2670 C.ar  282  TRP282      0.0191
    243  CZ3       35.5830  -25.8710   77.0470 C.ar  282  TRP282      0.0001
    244  CH2       35.1340  -24.6280   76.5770 C.ar  282  TRP282      0.0015
@<TRIPOS>BOND
     1   155   154    2
     2    91    92    1
     3    92    93    1
     4    92    95    1
     5    93    94    2
     6   154   153    1
     7    95    96    1
     8    96    97    1
     9   153   152    1
    10   153   156    1
    11   156   157    1
    12    98    97    1
    13   157   159   ar
    14   157   158   ar
    15    99   100    1
    16   147   146    2
    17   159   161   ar
    18   100   101    1
    19   100   103    1
    20   146   145    1
    21   158   160   ar
    22   101   102    2
    23   161   162   ar
    24   103   104    1
    25   160   162   ar
    26   145   144    1
    27   145   148    1
    28   162   163    1
    29   187   189   ar
    30   187   185   ar
    31   184   185    1
    32   184   181    1
    33   189   190   ar
    34   198   196    1
    35   185   186   ar
    36   148   149    1
    37   190   188   ar
    38   186   188   ar
    39   196   195    1
    40   105   106    1
    41   180   181    1
    42   181   182    1
    43   149   150    1
    44   149   151    1
    45    86    85    2
    46   191   182   am
    47   191   192    1
    48   106   107    1
    49   106   109    1
    50   195   192    1
    51   195   197    1
    52   182   183    2
    53    85    84    1
    54   107   108    2
    55   192   193    1
    56    73    72    1
    57   139   138    2
    58   164   165    1
    59    59    58    2
    60   109   110    1
    61   138   137    1
    62    72    69    1
    63    69    70    1
    64    69    68    1
    65    89    90    1
    66    89    88    1
    67    84    83    1
    68    84    87    1
    69    70    71    2
    70   165   168    1
    71   165   166    1
    72   193   194    2
    73    58    68   am
    74    58    57    1
    75   142   141   ar
    76   168   169    1
    77   137   136    1
    78   137   140    1
    79    88    87    1
    80   141   143   ar
    81   141   140    1
    82    49    48    2
    83    60    57    1
    84    60    61    1
    85   111   112    1
    86   166   167    2
    87    57    56    1
    88   169   171    1
    89   169   170    1
    90   199   200    1
    91    48    56   am
    92    48    47    1
    93    61    63   ar
    94    61    62   ar
    95    77    76    2
    96   112   115    1
    97   112   113    1
    98   200   201    1
    99    63    65   ar
   100    62    64   ar
   101    76    75    1
   102    41    43   ar
   103    41    40   ar
   104    50    47    1
   105    50    51    1
   106    43    45   ar
   107    47    46    1
   108   113   114    2
   109    38    37    2
   110   222   220   am
   111   221   220    2
   112    39    40    1
   113    39    36    1
   114   201   203   am
   115   201   202    2
   116    40    42   ar
   117    65    66   ar
   118   203   204    1
   119    64    66   ar
   120    45    44   ar
   121   220   219    1
   122    51    52   ar
   123    51    53   ar
   124    37    36    1
   125    52    54   ar
   126    81    80    2
   127    66    67    1
   128    75    74    1
   129    75    78    1
   130    36    35    1
   131    79    78    1
   132    79    80    1
   133    42    44   ar
   134   131   130    2
   135   207   204    1
   136   207   208    1
   137   130   129    1
   138    53    55   ar
   139   204   205    1
   140    54    55   ar
   141    80    82   am
   142   219   218    1
   143   172   173    1
   144   133   134    1
   145   133   132    1
   146   134   135    1
   147    35    27   am
   148   208   209   ar
   149   208   210   ar
   150   205   206    2
   151   209   211   ar
   152   129   132    1
   153   129   128    1
   154   218   215    1
   155   173   176    1
   156   173   174    1
   157    28    27    2
   158   176   177    1
   159   214   215    1
   160   210   212   ar
   161    27    26    1
   162   116   117    1
   163   230   228   ar
   164   211   213   ar
   165   215   216    1
   166    33    34   ar
   167    33    31   ar
   168    24    22    1
   169   174   175    2
   170    34    32   ar
   171   212   213   ar
   172   118   117    1
   173   118   119    2
   174   117   120    1
   175    20    19    2
   176   177   179   am
   177   177   178    2
   178    31    30   ar
   179   228   229   ar
   180   228   227    1
   181    26    25    1
   182    26    29    1
   183    32    30   ar
   184   223   216   am
   185   223   224    1
   186    22    21    1
   187   216   217    2
   188    30    29    1
   189   227   224    1
   190    19    18    1
   191    12    11    2
   192   120   121    1
   193    18    21    1
   194    18    17    1
   195   224   225    1
   196    21    23    1
   197   121   123   ar
   198   121   122   ar
   199   123   125   ar
   200   122   124   ar
   201    11    17   am
   202    11    10    1
   203   125   126   ar
   204   124   126   ar
   205   126   127    1
   206    15    14    2
   207   244   243   ar
   208   244   242   ar
   209   225   226    2
   210    13    10    1
   211    13    14    1
   212   243   241   ar
   213    10     9    1
   214    14    16   am
   215   242   240   ar
   216   241   238   ar
   217   240   238   ar
   218   240   239   ar
   219     7     5    1
   220     4     3    2
   221   238   236   ar
   222   239   237   ar
   223     3     2    1
   224   236   237   ar
   225   236   235    1
   226     8     6    1
   227     5     2    1
   228     5     6    1
   229     2     1    1
   230   231   232    1
   231   235   232    1
   232   232   233    1
   233   233   234    2
