@<TRIPOS>MOLECULE
tmp/4qdhA03.pdb
 109 101 0 0 0
SMALL
GASTEIGER

@<TRIPOS>ATOM
      1  N         41.8110  -20.6860    4.5000 N.3   237  ARG237     -0.1245
      2  CA        43.0310  -20.6850    3.7070 C.3   237  ARG237      0.1563
      3  C         43.6690  -22.0700    3.5340 C.2   237  ARG237      0.2260
      4  O         43.7060  -22.8690    4.4620 O.2   237  ARG237     -0.2867
      5  CB        44.0190  -19.7140    4.3800 C.3   237  ARG237      0.0307
      6  CG        45.1660  -19.2720    3.5310 C.3   237  ARG237      0.0489
      7  CD        45.9960  -18.1990    4.2410 C.3   237  ARG237      0.2205
      8  NE        46.9740  -17.6600    3.3030 N.pl3 237  ARG237     -0.0865
      9  CZ        46.8500  -16.4840    2.7030 C.cat 237  ARG237      0.5346
     10  NH1       45.8180  -15.7020    2.9940 N.pl3 237  ARG237      0.1354
     11  NH2       47.7680  -16.0850    1.8370 N.pl3 237  ARG237      0.1354
     12  N         36.5250   -7.4960    3.6560 N.3   281  LYS281     -0.1245
     13  CA        37.7480   -7.9830    3.0580 C.3   281  LYS281      0.1561
     14  C         37.5160   -9.3980    2.5780 C.2   281  LYS281      0.2260
     15  O         37.0070  -10.2370    3.3170 O.2   281  LYS281     -0.2867
     16  CB        38.9050   -7.9200    4.0630 C.3   281  LYS281      0.0271
     17  CG        40.1660   -8.6080    3.5700 C.3   281  LYS281      0.0035
     18  CD        41.4010   -8.2120    4.3940 C.3   281  LYS281      0.0206
     19  CE        42.6530   -8.9970    3.9660 C.3   281  LYS281      0.1093
     20  NZ        43.8780   -8.5430    4.6900 N.3   281  LYS281     -0.1314
     21  N         39.6620  -12.3080    0.6760 N.3   283  ASP283     -0.1239
     22  CA        40.9170  -12.7890    0.1270 C.3   283  ASP283      0.1674
     23  C         40.6370  -14.0780   -0.6020 C.2   283  ASP283      0.2266
     24  O         40.2740  -15.1040   -0.0090 O.2   283  ASP283     -0.2867
     25  CB        41.9610  -13.0310    1.2060 C.3   283  ASP283      0.1410
     26  CG        43.3160  -13.3430    0.6230 C.2   283  ASP283      0.3668
     27  OD1       44.2940  -13.4260    1.3920 O.co2 283  ASP283     -0.2456
     28  OD2       43.4230  -13.5040   -0.6160 O.co2 283  ASP283     -0.2456
     29  N         42.8440  -14.8200   -3.2550 N.3   285  SER285     -0.1202
     30  CA        44.1170  -15.0360   -3.9500 C.3   285  SER285      0.2020
     31  C         44.5200  -16.5090   -4.0400 C.2   285  SER285      0.2619
     32  O         43.9780  -17.3720   -3.3470 O.2   285  SER285     -0.2717
     33  CB        45.2450  -14.2570   -3.2600 C.3   285  SER285      0.2103
     34  OG        45.5270  -14.7960   -1.9750 O.3   285  SER285     -0.2182
     35  N         45.4790  -16.7900   -4.9090 N.am  286  SER286     -0.1951
     36  CA        46.0090  -18.1420   -5.0670 C.3   286  SER286      0.1924
     37  C         44.9610  -19.2440   -5.2500 C.2   286  SER286      0.2314
     38  O         45.1230  -20.3480   -4.7430 O.2   286  SER286     -0.2863
     39  CB        46.9450  -18.4810   -3.9060 C.3   286  SER286      0.2116
     40  OG        47.9840  -17.5200   -3.8720 O.3   286  SER286     -0.2180
     41  N         38.2200   -4.2820    0.5770 N.3   305  GLU305     -0.1245
     42  CA        39.3720   -4.8350   -0.1280 C.3   305  GLU305      0.1567
     43  C         39.1390   -6.2030   -0.7230 C.2   305  GLU305      0.2260
     44  O         38.5970   -7.0970   -0.0730 O.2   305  GLU305     -0.2867
     45  CB        40.6330   -4.8520    0.7360 C.3   305  GLU305      0.0388
     46  CG        40.4100   -4.8920    2.2310 C.3   305  GLU305      0.1160
     47  CD        41.7250   -4.9080    3.0160 C.2   305  GLU305      0.3649
     48  OE1       42.6280   -5.7090    2.6700 O.co2 305  GLU305     -0.2457
     49  OE2       41.8630   -4.0930    3.9550 O.co2 305  GLU305     -0.2457
     50  N         41.3200   -9.2270   -2.7950 N.3   307  ASN307     -0.1240
     51  CA        42.5860   -9.7510   -3.2510 C.3   307  ASN307      0.1653
     52  C         42.2910  -10.8760   -4.2470 C.2   307  ASN307      0.2266
     53  O         41.9040  -11.9930   -3.8650 O.2   307  ASN307     -0.2867
     54  CB        43.3990  -10.2420   -2.0350 C.3   307  ASN307      0.1155
     55  CG        44.8240  -10.6320   -2.3990 C.2   307  ASN307      0.2627
     56  OD1       45.1110  -10.8250   -3.5750 O.2   307  ASN307     -0.2716
     57  ND2       45.7170  -10.7780   -1.3780 N.am  307  ASN307     -0.0877
     58  N         44.7070  -11.6390   -6.4740 N.3   309  SER309     -0.1202
     59  CA        46.0920  -11.9450   -6.8240 C.3   309  SER309      0.2020
     60  C         46.3550  -13.4300   -7.1010 C.2   309  SER309      0.2618
     61  O         45.6590  -14.2970   -6.5700 O.2   309  SER309     -0.2717
     62  CB        47.0010  -11.4720   -5.6700 C.3   309  SER309      0.2103
     63  OG        48.3520  -11.8370   -5.8620 O.3   309  SER309     -0.2182
     64  N         47.3620  -13.7210   -7.9240 N.am  310  HIS310     -0.1975
     65  CA        47.7820  -15.1130   -8.1430 C.3   310  HIS310      0.1656
     66  C         46.6360  -16.0250   -8.5670 C.2   310  HIS310      0.2291
     67  O         46.3520  -17.0220   -7.9270 O.2   310  HIS310     -0.2864
     68  CB        48.4930  -15.6820   -6.9090 C.3   310  HIS310      0.0771
     69  CG        49.7850  -14.9940   -6.6080 C.ar  310  HIS310      0.0820
     70  ND1       49.8410  -13.7490   -6.0130 N.ar  310  HIS310     -0.2267
     71  CD2       51.0670  -15.3490   -6.8570 C.ar  310  HIS310      0.1154
     72  CE1       51.1030  -13.3650   -5.9140 C.ar  310  HIS310      0.1986
     73  NE2       51.8670  -14.3230   -6.4120 N.ar  310  HIS310     -0.2212
     74  N         41.3630   -1.0940   -1.5130 N.3   330  GLU330     -0.1245
     75  CA        42.4780   -1.8770   -2.0440 C.3   330  GLU330      0.1567
     76  C         41.9810   -2.9540   -2.9950 C.2   330  GLU330      0.2260
     77  O         41.0080   -3.6540   -2.6840 O.2   330  GLU330     -0.2867
     78  CB        43.2880   -2.5440   -0.9240 C.3   330  GLU330      0.0388
     79  CG        43.7330   -1.6090    0.2050 C.3   330  GLU330      0.1160
     80  CD        44.8450   -2.2090    1.0590 C.2   330  GLU330      0.3649
     81  OE1       45.0130   -3.4540    1.0760 O.co2 330  GLU330     -0.2457
     82  OE2       45.5930   -1.4200    1.6670 O.co2 330  GLU330     -0.2457
     83  N         43.7230   -6.0270   -5.5190 N.3   332  ALA332     -0.1245
     84  CA        44.8870   -6.7300   -6.0620 C.3   332  ALA332      0.1562
     85  C         44.5180   -7.6170   -7.2610 C.2   332  ALA332      0.2260
     86  O         43.6880   -8.5080   -7.1450 O.2   332  ALA332     -0.2867
     87  CB        45.5690   -7.5580   -4.9830 C.3   332  ALA332      0.0290
     88  N         47.2060   -8.4980   -9.5270 N.3   334  ASP334     -0.1239
     89  CA        48.5210   -8.8840  -10.0140 C.3   334  ASP334      0.1674
     90  C         48.6250  -10.3940  -10.2030 C.2   334  ASP334      0.2266
     91  O         47.7930  -11.1560   -9.6940 O.2   334  ASP334     -0.2867
     92  CB        49.5910   -8.4160   -9.0310 C.3   334  ASP334      0.1410
     93  CG        49.4550   -9.0990   -7.6560 C.2   334  ASP334      0.3668
     94  OD1       50.1550  -10.1050   -7.4210 O.co2 334  ASP334     -0.2456
     95  OD2       48.6130   -8.6690   -6.8440 O.co2 334  ASP334     -0.2456
     96  N         47.0190   -3.3670   -7.3430 N.3   356  TRP356     -0.1241
     97  CA        48.1170   -4.2030   -7.8270 C.3   356  TRP356      0.1605
     98  C         47.7990   -4.7120   -9.2230 C.2   356  TRP356      0.2264
     99  O         46.7400   -5.3090   -9.4360 O.2   356  TRP356     -0.2867
    100  CB        48.3360   -5.4070   -6.9170 C.3   356  TRP356      0.0550
    101  CG        48.9140   -5.1390   -5.5440 C.ar  356  TRP356      0.0003
    102  CD1       50.1880   -5.4220   -5.1380 C.ar  356  TRP356      0.0946
    103  CD2       48.2430   -4.5970   -4.3930 C.ar  356  TRP356      0.0152
    104  NE1       50.3610   -5.0870   -3.8200 N.ar  356  TRP356     -0.2442
    105  CE2       49.1870   -4.5790   -3.3290 C.ar  356  TRP356      0.0810
    106  CE3       46.9440   -4.1240   -4.1520 C.ar  356  TRP356      0.0012
    107  CZ2       48.8760   -4.1010   -2.0360 C.ar  356  TRP356      0.0191
    108  CZ3       46.6260   -3.6530   -2.8540 C.ar  356  TRP356      0.0001
    109  CH2       47.5960   -3.6430   -1.8180 C.ar  356  TRP356      0.0015
@<TRIPOS>BOND
     1    90    89    1
     2    90    91    2
     3    89    88    1
     4    89    92    1
     5    99    98    2
     6    98    97    1
     7    92    93    1
     8    66    65    1
     9    66    67    2
    10    65    64    1
    11    65    68    1
    12    64    60   am
    13    97    96    1
    14    97   100    1
    15    93    94   ar
    16    93    95   ar
    17    85    86    2
    18    85    84    1
    19    60    59    1
    20    60    61    2
    21   100   101    1
    22    68    69    1
    23    71    69   ar
    24    71    73   ar
    25    59    58    1
    26    59    62    1
    27    69    70   ar
    28    73    72   ar
    29    84    83    1
    30    84    87    1
    31    70    72   ar
    32    63    62    1
    33   101   102   ar
    34   101   103   ar
    35    37    36    1
    36    37    38    2
    37   102   104   ar
    38    36    35    1
    39    36    39    1
    40    35    31   am
    41   103   106   ar
    42   103   105   ar
    43    52    53    2
    44    52    51    1
    45   106   108   ar
    46    31    30    1
    47    31    32    2
    48    30    33    1
    49    30    29    1
    50    39    40    1
    51   104   105   ar
    52    56    55    2
    53   105   107   ar
    54    33    34    1
    55    51    50    1
    56    51    54    1
    57    76    77    2
    58    76    75    1
    59   108   109   ar
    60    55    54    1
    61    55    57   am
    62    75    74    1
    63    75    78    1
    64   107   109   ar
    65    78    79    1
    66    43    42    1
    67    43    44    2
    68    28    26   ar
    69    23    24    2
    70    23    22    1
    71    42    41    1
    72    42    45    1
    73    22    21    1
    74    22    25    1
    75    79    80    1
    76    26    25    1
    77    26    27   ar
    78    45    46    1
    79    80    81   ar
    80    80    82   ar
    81    11     9    1
    82    46    47    1
    83    14    13    1
    84    14    15    2
    85    48    47   ar
    86     9    10    1
    87     9     8    2
    88    47    49   ar
    89    13    12    1
    90    13    16    1
    91     8     7    1
    92     6     7    1
    93     6     5    1
    94     3     2    1
    95     3     4    2
    96    17    16    1
    97    17    18    1
    98     2     5    1
    99     2     1    1
   100    19    18    1
   101    19    20    1
