@<TRIPOS>MOLECULE
tmp/4qdiA01.pdb
 104 96 0 0 0
SMALL
GASTEIGER

@<TRIPOS>ATOM
      1  N        -28.6820    2.8640    1.5550 N.3    34  THR34      -0.1203
      2  CA       -29.6050    2.4300    2.5960 C.3    34  THR34       0.1994
      3  C        -30.3560    1.1420    2.2430 C.2    34  THR34       0.2618
      4  O        -31.1330    0.6410    3.0520 O.2    34  THR34      -0.2717
      5  CB       -30.6420    3.5200    2.8510 C.3    34  THR34       0.1784
      6  OG1      -31.2750    3.8530    1.6090 O.3    34  THR34      -0.2211
      7  CG2      -29.9760    4.7680    3.4270 C.3    34  THR34       0.0376
      8  N        -30.1150    0.6110    1.0470 N.am   35  ASP35      -0.1959
      9  CA       -30.7860   -0.6120    0.5790 C.3    35  ASP35       0.1840
     10  C        -29.9220   -1.8470    0.8690 C.2    35  ASP35       0.2622
     11  O        -28.9110   -2.0680    0.1970 O.2    35  ASP35      -0.2715
     12  CB       -31.0350   -0.5040   -0.9240 C.3    35  ASP35       0.1450
     13  CG       -32.0800   -1.4910   -1.4170 C.2    35  ASP35       0.3671
     14  OD1      -32.1640   -2.6030   -0.8510 O.co2  35  ASP35      -0.2456
     15  OD2      -32.8060   -1.1530   -2.3770 O.co2  35  ASP35      -0.2456
     16  N        -30.3270   -2.6630    1.8410 N.am   36  SER36      -0.1950
     17  CA       -29.5410   -3.8430    2.2170 C.3    36  SER36       0.1924
     18  C        -29.3710   -4.8760    1.1100 C.2    36  SER36       0.2314
     19  O        -28.4770   -5.7180    1.1780 O.2    36  SER36      -0.2863
     20  CB       -30.1410   -4.5270    3.4540 C.3    36  SER36       0.2116
     21  OG       -31.4100   -5.0860    3.1580 O.3    36  SER36      -0.2180
     22  N        -31.2580    2.7210    8.4420 N.3    48  LEU48      -0.1245
     23  CA       -32.3010    3.6440    8.8630 C.3    48  LEU48       0.1561
     24  C        -33.4510    2.8820    9.4940 C.2    48  LEU48       0.2260
     25  O        -33.6590    1.7050    9.2070 O.2    48  LEU48      -0.2867
     26  CB       -32.8380    4.4230    7.6610 C.3    48  LEU48       0.0270
     27  CG       -31.8620    5.2970    6.8690 C.3    48  LEU48       0.0019
     28  CD1      -32.5750    5.8670    5.6440 C.3    48  LEU48       0.0001
     29  CD2      -31.3400    6.4170    7.7570 C.3    48  LEU48       0.0001
     30  N        -37.7160    3.3700   11.0280 N.3    50  GLY50      -0.1210
     31  CA       -38.8810    4.2240   10.9150 C.3    50  GLY50       0.1956
     32  C        -40.1410    3.5360   11.3930 C.2    50  GLY50       0.2611
     33  O        -40.0870    2.6140   12.2040 O.2    50  GLY50      -0.2717
     34  N        -41.2780    3.9900   10.8810 N.am   51  GLU51      -0.1979
     35  CA       -42.5670    3.4300   11.2570 C.3    51  GLU51       0.1602
     36  C        -42.6840    1.9670   10.8400 C.2    51  GLU51       0.2287
     37  O        -42.8420    1.6570    9.6600 O.2    51  GLU51      -0.2864
     38  CB       -43.6980    4.2390   10.6140 C.3    51  GLU51       0.0415
     39  CG       -45.0870    3.9130   11.1510 C.3    51  GLU51       0.1163
     40  CD       -45.3010    4.4170   12.5690 C.2    51  GLU51       0.3649
     41  OE1      -45.2410    5.6470   12.7780 O.co2  51  GLU51      -0.2457
     42  OE2      -45.5300    3.5860   13.4730 O.co2  51  GLU51      -0.2457
     43  N        -40.3650   -0.4950   10.9180 N.3    53  PHE53      -0.1241
     44  CA       -39.2390   -1.1310   10.2410 C.3    53  PHE53       0.1605
     45  C        -37.9250   -0.6400   10.8170 C.2    53  PHE53       0.2264
     46  O        -37.8490    0.4410   11.3990 O.2    53  PHE53      -0.2867
     47  CB       -39.2820   -0.8590    8.7280 C.3    53  PHE53       0.0534
     48  CG       -38.6960    0.4660    8.3260 C.ar   53  PHE53      -0.0203
     49  CD1      -37.3200    0.6150    8.1670 C.ar   53  PHE53      -0.0042
     50  CD2      -39.5160    1.5700    8.1260 C.ar   53  PHE53      -0.0042
     51  CE1      -36.7700    1.8460    7.8170 C.ar   53  PHE53      -0.0003
     52  CE2      -38.9770    2.8040    7.7760 C.ar   53  PHE53      -0.0003
     53  CZ       -37.6000    2.9410    7.6230 C.ar   53  PHE53      -0.0000
     54  N        -33.8740   -1.0830    9.4110 N.3    55  ALA55      -0.1245
     55  CA       -32.8610   -1.6720    8.5510 C.3    55  ALA55       0.1562
     56  C        -31.7140   -2.3080    9.3300 C.2    55  ALA55       0.2260
     57  O        -30.8960   -3.0110    8.7410 O.2    55  ALA55      -0.2867
     58  CB       -32.3290   -0.6260    7.5570 C.3    55  ALA55       0.0290
     59  N        -31.4170   -5.9680    8.9210 N.3    58  PHE58      -0.1241
     60  CA       -30.8140   -6.5840    7.7390 C.3    58  PHE58       0.1605
     61  C        -29.3050   -6.4700    7.5950 C.2    58  PHE58       0.2264
     62  O        -28.7730   -6.6660    6.4960 O.2    58  PHE58      -0.2867
     63  CB       -31.4600   -6.0050    6.4810 C.3    58  PHE58       0.0534
     64  CG       -32.9420   -5.7610    6.6150 C.ar   58  PHE58      -0.0203
     65  CD1      -33.7970   -6.7700    7.0580 C.ar   58  PHE58      -0.0042
     66  CD2      -33.4830   -4.5170    6.2910 C.ar   58  PHE58      -0.0042
     67  CE1      -35.1760   -6.5370    7.1760 C.ar   58  PHE58      -0.0003
     68  CE2      -34.8540   -4.2790    6.4070 C.ar   58  PHE58      -0.0003
     69  CZ       -35.7000   -5.2900    6.8490 C.ar   58  PHE58      -0.0000
     70  N        -30.7710    8.9570   10.6900 N.3    89  ARG89      -0.1245
     71  CA       -31.4660    9.8510    9.7770 C.3    89  ARG89       0.1563
     72  C        -30.7440   11.2040    9.8150 C.2    89  ARG89       0.2260
     73  O        -30.5380   11.8430    8.7820 O.2    89  ARG89      -0.2867
     74  CB       -32.9350   10.0050   10.1850 C.3    89  ARG89       0.0307
     75  CG       -33.7590    8.7270   10.0170 C.3    89  ARG89       0.0489
     76  CD       -35.1930    8.9140   10.4920 C.3    89  ARG89       0.2205
     77  NE       -35.9870    9.6760    9.5370 N.pl3  89  ARG89      -0.0865
     78  CZ       -36.8170    9.1310    8.6520 C.cat  89  ARG89       0.5346
     79  NH1      -36.9720    7.8150    8.6040 N.pl3  89  ARG89       0.1354
     80  NH2      -37.4740    9.9010    7.8010 N.pl3  89  ARG89       0.1354
     81  N        -36.9930   15.1100   -0.0210 N.3   143  ASN143     -0.1240
     82  CA       -37.4550   15.2220    1.3580 C.3   143  ASN143      0.1653
     83  C        -36.3040   15.1740    2.3580 C.2   143  ASN143      0.2266
     84  O        -35.1380   15.2880    1.9690 O.2   143  ASN143     -0.2867
     85  CB       -38.4940   14.1340    1.6600 C.3   143  ASN143      0.1155
     86  CG       -37.9110   12.7370    1.6130 C.2   143  ASN143      0.2627
     87  OD1      -36.8140   12.5260    1.1010 O.2   143  ASN143     -0.2716
     88  ND2      -38.6510   11.7700    2.1440 N.am  143  ASN143     -0.0877
     89  N        -34.7710   12.9050    3.7270 N.3   145  LEU145     -0.1245
     90  CA       -33.7580   11.8960    3.4260 C.3   145  LEU145      0.1561
     91  C        -33.2640   12.0440    1.9870 C.2   145  LEU145      0.2260
     92  O        -32.0760   11.8820    1.7020 O.2   145  LEU145     -0.2867
     93  CB       -34.3280   10.4850    3.6160 C.3   145  LEU145      0.0270
     94  CG       -34.7700   10.1020    5.0340 C.3   145  LEU145      0.0019
     95  CD1      -35.2200    8.6450    5.0430 C.3   145  LEU145      0.0001
     96  CD2      -33.6180   10.3000    6.0120 C.3   145  LEU145      0.0001
     97  N        -29.3860   12.5580    0.3160 N.3   149  MET149     -0.1245
     98  CA       -28.9500   11.4450   -0.5340 C.3   149  MET149      0.1570
     99  C        -28.4280   12.0350   -1.8520 C.2   149  MET149      0.2261
    100  O        -27.4200   11.5890   -2.3920 O.2   149  MET149     -0.2867
    101  CB       -30.1140   10.4760   -0.8310 C.3   149  MET149      0.0387
    102  CG       -30.6580    9.7120    0.3840 C.3   149  MET149      0.0595
    103  SD       -32.1510    8.7010    0.0420 S.3   149  MET149     -0.1393
    104  CE       -31.8260    7.2180    1.0340 C.3   149  MET149      0.0692
@<TRIPOS>BOND
     1   100    99    2
     2    15    13   ar
     3    99    98    1
     4    13    12    1
     5    13    14   ar
     6    12     9    1
     7   101    98    1
     8   101   102    1
     9    98    97    1
    10    81    82    1
    11   103   102    1
    12   103   104    1
    13    11    10    2
    14     9    10    1
    15     9     8    1
    16    10    16   am
    17     8     3   am
    18    87    86    2
    19    18    19    2
    20    18    17    1
    21    82    85    1
    22    82    83    1
    23     1     2    1
    24     6     5    1
    25    86    85    1
    26    86    88   am
    27    92    91    2
    28    16    17    1
    29    84    83    2
    30    91    90    1
    31    17    20    1
    32     3     2    1
    33     3     4    2
    34     2     5    1
    35     5     7    1
    36    21    20    1
    37    90    93    1
    38    90    89    1
    39    93    94    1
    40    94    95    1
    41    94    96    1
    42    28    27    1
    43    66    68   ar
    44    66    64   ar
    45    68    69   ar
    46    63    64    1
    47    63    60    1
    48    62    61    2
    49    64    65   ar
    50    69    67   ar
    51    27    26    1
    52    27    29    1
    53    65    67   ar
    54    58    55    1
    55    61    60    1
    56    53    52   ar
    57    53    51   ar
    58    26    23    1
    59    60    59    1
    60    52    50   ar
    61    80    78    1
    62    51    49   ar
    63    50    48   ar
    64    49    48   ar
    65    48    47    1
    66    22    23    1
    67    55    56    1
    68    55    54    1
    69    79    78    1
    70    78    77    2
    71    47    44    1
    72    57    56    2
    73    73    72    2
    74    23    24    1
    75    25    24    2
    76    77    76    1
    77    37    36    2
    78    71    72    1
    79    71    74    1
    80    71    70    1
    81    75    74    1
    82    75    76    1
    83    44    45    1
    84    44    43    1
    85    38    39    1
    86    38    35    1
    87    45    46    2
    88    36    35    1
    89    34    35    1
    90    34    32   am
    91    31    30    1
    92    31    32    1
    93    39    40    1
    94    32    33    2
    95    40    41   ar
    96    40    42   ar
