@<TRIPOS>MOLECULE
tmp/4qdkA00.pdb
 227 218 0 0 0
SMALL
GASTEIGER

@<TRIPOS>ATOM
      1  N         14.2120    5.5220    1.4890 N.3     3  LYS3       -0.1245
      2  CA        15.5530    4.9900    1.7250 C.3     3  LYS3        0.1561
      3  C         16.6400    5.9020    1.1650 C.2     3  LYS3        0.2260
      4  O         17.6360    6.1760    1.8350 O.2     3  LYS3       -0.2867
      5  CB        15.6940    3.5930    1.1210 C.3     3  LYS3        0.0271
      6  CG        15.0310    2.4920    1.9260 C.3     3  LYS3        0.0035
      7  CD        15.1540    1.1570    1.2150 C.3     3  LYS3        0.0206
      8  CE        14.5790    0.0280    2.0500 C.3     3  LYS3        0.1093
      9  NZ        14.4450   -1.2160    1.2400 N.3     3  LYS3       -0.1314
     10  N         16.8740    9.2110    3.2490 N.3     6  VAL6       -0.1245
     11  CA        17.5510    9.0010    4.5230 C.3     6  VAL6        0.1561
     12  C         19.0420    8.7370    4.3120 C.2     6  VAL6        0.2260
     13  O         19.8840    9.2600    5.0440 O.2     6  VAL6       -0.2867
     14  CB        16.9230    7.8400    5.3210 C.3     6  VAL6        0.0252
     15  CG1       17.6390    7.6600    6.6480 C.3     6  VAL6        0.0019
     16  CG2       15.4470    8.1020    5.5530 C.3     6  VAL6        0.0019
     17  N         22.2610   11.0400    5.7690 N.3    10  PHE10      -0.1241
     18  CA        23.3270   10.5210    6.6220 C.3    10  PHE10       0.1605
     19  C         24.6770   10.4160    5.9090 C.2    10  PHE10       0.2264
     20  O         25.6800   10.0570    6.5240 O.2    10  PHE10      -0.2867
     21  CB        22.9260    9.1770    7.2400 C.3    10  PHE10       0.0534
     22  CG        21.9600    9.3020    8.3890 C.ar   10  PHE10      -0.0203
     23  CD1       20.6070    9.0810    8.2060 C.ar   10  PHE10      -0.0042
     24  CD2       22.4100    9.6480    9.6510 C.ar   10  PHE10      -0.0042
     25  CE1       19.7220    9.1990    9.2620 C.ar   10  PHE10      -0.0003
     26  CE2       21.5330    9.7670   10.7110 C.ar   10  PHE10      -0.0003
     27  CZ        20.1870    9.5440   10.5160 C.ar   10  PHE10      -0.0000
     28  N         25.2340   14.2690   13.2820 N.3    18  TRP18      -0.1241
     29  CA        25.0680   13.1150   14.1620 C.3    18  TRP18       0.1605
     30  C         26.3840   12.4980   14.6410 C.2    18  TRP18       0.2264
     31  O         26.4330   11.9140   15.7230 O.2    18  TRP18      -0.2867
     32  CB        24.1470   12.0680   13.5280 C.3    18  TRP18       0.0550
     33  CG        22.6980   12.4360   13.6570 C.ar   18  TRP18       0.0003
     34  CD1       21.8930   12.9740   12.6910 C.ar   18  TRP18       0.0946
     35  CD2       21.8870   12.3160   14.8320 C.ar   18  TRP18       0.0152
     36  NE1       20.6300   13.1850   13.1910 N.ar   18  TRP18      -0.2442
     37  CE2       20.6010   12.7890   14.5030 C.ar   18  TRP18       0.0810
     38  CE3       22.1240   11.8500   16.1300 C.ar   18  TRP18       0.0012
     39  CZ2       19.5570   12.8100   15.4230 C.ar   18  TRP18       0.0191
     40  CZ3       21.0840   11.8690   17.0410 C.ar   18  TRP18       0.0001
     41  CH2       19.8170   12.3460   16.6830 C.ar   18  TRP18       0.0015
     42  N         26.9180   11.8040   18.4900 N.3    22  TYR22      -0.1241
     43  CA        27.3350   10.4750   18.9220 C.3    22  TYR22       0.1605
     44  C         28.8080   10.4450   19.3340 C.2    22  TYR22       0.2264
     45  O         29.2940    9.4400   19.8530 O.2    22  TYR22      -0.2867
     46  CB        27.0810    9.4460   17.8150 C.3    22  TYR22       0.0534
     47  CG        25.6190    9.1910   17.5050 C.ar   22  TYR22      -0.0201
     48  CD1       24.6350    9.3760   18.4690 C.ar   22  TYR22      -0.0009
     49  CD2       25.2270    8.7560   16.2450 C.ar   22  TYR22      -0.0009
     50  CE1       23.2970    9.1370   18.1840 C.ar   22  TYR22       0.0417
     51  CE2       23.8950    8.5150   15.9500 C.ar   22  TYR22       0.0417
     52  CZ        22.9350    8.7060   16.9230 C.ar   22  TYR22       0.1957
     53  OH        21.6130    8.4640   16.6270 O.3    22  TYR22      -0.2866
     54  N         20.5140    9.2540   23.9890 N.3    38  HIS38      -0.1241
     55  CA        20.9640    8.1400   23.1620 C.3    38  HIS38       0.1621
     56  C         21.9260    7.2280   23.9190 C.2    38  HIS38       0.2264
     57  O         21.8570    6.0030   23.7980 O.2    38  HIS38      -0.2867
     58  CB        21.6150    8.6500   21.8760 C.3    38  HIS38       0.0745
     59  CG        22.2240    7.5680   21.0400 C.ar   38  HIS38       0.0817
     60  ND1       23.5840    7.3490   20.9850 N.ar   38  HIS38      -0.2268
     61  CD2       21.6590    6.6420   20.2300 C.ar   38  HIS38       0.1154
     62  CE1       23.8300    6.3350   20.1740 C.ar   38  HIS38       0.1986
     63  NE2       22.6810    5.8910   19.7000 N.ar   38  HIS38      -0.2212
     64  N         21.5940    3.1290   24.5430 N.3    42  VAL42      -0.1245
     65  CA        22.6910    2.2070   24.2690 C.3    42  VAL42       0.1561
     66  C         23.0790    1.4470   25.5290 C.2    42  VAL42       0.2260
     67  O         23.1930    0.2240   25.5080 O.2    42  VAL42      -0.2867
     68  CB        23.9260    2.9430   23.7100 C.3    42  VAL42       0.0252
     69  CG1       25.1320    2.0150   23.6770 C.3    42  VAL42       0.0019
     70  CG2       23.6290    3.4980   22.3260 C.3    42  VAL42       0.0019
     71  N         23.8570   -5.7930   14.3250 N.3    62  ASP62      -0.1239
     72  CA        23.5020   -4.4120   14.6340 C.3    62  ASP62       0.1674
     73  C         23.1180   -3.7230   13.3260 C.2    62  ASP62       0.2266
     74  O         23.9850   -3.3050   12.5570 O.2    62  ASP62      -0.2867
     75  CB        24.6790   -3.7070   15.3240 C.3    62  ASP62       0.1410
     76  CG        24.3140   -2.3340   15.8660 C.2    62  ASP62       0.3668
     77  OD1       23.1310   -1.9500   15.7810 O.co2  62  ASP62      -0.2456
     78  OD2       25.2140   -1.6440   16.4000 O.co2  62  ASP62      -0.2456
     79  N         21.6980   -0.8520   11.0070 N.3    64  GLY64      -0.1210
     80  CA        21.6600    0.5980   11.0830 C.3    64  GLY64       0.1956
     81  C         22.5710    1.0670   12.2010 C.2    64  GLY64       0.2612
     82  O         22.1850    1.8850   13.0350 O.2    64  GLY64      -0.2717
     83  N         23.7950    0.5480   12.2010 N.am   65  CYS65      -0.1956
     84  CA        24.7040    0.6840   13.3330 C.3    65  CYS65       0.1843
     85  C         25.2430    2.0930   13.5680 C.2    65  CYS65       0.2626
     86  O         25.8380    2.3590   14.6120 O.2    65  CYS65      -0.2714
     87  CB        25.8730   -0.2930   13.1840 C.3    65  CYS65       0.0997
     88  SG        26.9250    0.0150   11.7530 S.3    65  CYS65      -0.0797
     89  N         25.0410    2.9860   12.6040 N.am   66  GLY66      -0.1940
     90  CA        25.5590    4.3390   12.7060 C.3    66  GLY66       0.2014
     91  C         27.0700    4.3400   12.8460 C.2    66  GLY66       0.2638
     92  O         27.7680    3.6600   12.0960 O.2    66  GLY66      -0.2714
     93  N         27.5760    5.0880   13.8220 N.am   67  VAL67      -0.1977
     94  CA        29.0160    5.1540   14.0570 C.3    67  VAL67       0.1596
     95  C         29.4790    4.0940   15.0550 C.2    67  VAL67       0.2287
     96  O         30.5650    4.1940   15.6270 O.2    67  VAL67      -0.2864
     97  CB        29.4540    6.5520   14.5370 C.3    67  VAL67       0.0276
     98  CG1       29.1680    7.5930   13.4650 C.3    67  VAL67       0.0022
     99  CG2       28.7580    6.9110   15.8360 C.3    67  VAL67       0.0022
    100  N         27.9840    3.1220   17.9630 N.3    69  SER69      -0.1202
    101  CA        27.7680    3.4570   19.3710 C.3    69  SER69       0.2020
    102  C         27.3940    2.2450   20.2170 C.2    69  SER69       0.2618
    103  O         27.7360    2.1790   21.3970 O.2    69  SER69      -0.2717
    104  CB        26.6900    4.5340   19.5080 C.3    69  SER69       0.2103
    105  OG        27.1120    5.7520   18.9160 O.3    69  SER69      -0.2182
    106  N         26.6960    1.2900   19.6060 N.am   70  LEU70      -0.1979
    107  CA        26.2920    0.0680   20.2900 C.3    70  LEU70       0.1596
    108  C         27.2030   -1.0990   19.9340 C.2    70  LEU70       0.2287
    109  O         27.4940   -1.9470   20.7810 O.2    70  LEU70      -0.2864
    110  CB        24.8400   -0.2790   19.9490 C.3    70  LEU70       0.0297
    111  CG        24.3290   -1.6320   20.4550 C.3    70  LEU70       0.0022
    112  CD1       24.1290   -1.6170   21.9630 C.3    70  LEU70       0.0001
    113  CD2       23.0500   -2.0260   19.7340 C.3    70  LEU70       0.0001
    114  N         25.9670   -3.0800   10.3130 N.3    84  SER84      -0.1202
    115  CA        25.7240   -2.6030    8.9580 C.3    84  SER84       0.2020
    116  C         24.9120   -1.3210    8.9760 C.2    84  SER84       0.2619
    117  O         24.1460   -1.0780    9.9050 O.2    84  SER84      -0.2717
    118  CB        25.0130   -3.6680    8.1180 C.3    84  SER84       0.2103
    119  OG        23.8150   -4.0930    8.7410 O.3    84  SER84      -0.2182
    120  N         25.0930   -0.5000    7.9470 N.am   85  ASP85      -0.1959
    121  CA        24.3660    0.7570    7.8330 C.3    85  ASP85       0.1840
    122  C         24.2330    1.1300    6.3640 C.2    85  ASP85       0.2622
    123  O         25.0990    0.8030    5.5570 O.2    85  ASP85      -0.2715
    124  CB        25.0950    1.8660    8.5930 C.3    85  ASP85       0.1450
    125  CG        24.2130    3.0650    8.8640 C.2    85  ASP85       0.3671
    126  OD1       23.9450    3.8360    7.9190 O.co2  85  ASP85      -0.2456
    127  OD2       23.7940    3.2430   10.0270 O.co2  85  ASP85      -0.2456
    128  N         23.1470    1.8140    6.0190 N.am   86  ILE86      -0.1963
    129  CA        22.9000    2.1920    4.6340 C.3    86  ILE86       0.1727
    130  C         23.8730    3.2870    4.1880 C.2    86  ILE86       0.2616
    131  O         24.0830    3.4970    2.9890 O.2    86  ILE86      -0.2715
    132  CB        21.4390    2.6550    4.4300 C.3    86  ILE86       0.0290
    133  CG1       21.0500    2.5950    2.9500 C.3    86  ILE86       0.0022
    134  CG2       21.2290    4.0500    5.0020 C.3    86  ILE86       0.0023
    135  CD1       19.5610    2.7540    2.7040 C.3    86  ILE86       0.0001
    136  N         24.4830    3.9600    5.1610 N.am   87  SER87      -0.1950
    137  CA        25.3600    5.0960    4.8950 C.3    87  SER87       0.1924
    138  C         26.8360    4.7250    4.9670 C.2    87  SER87       0.2314
    139  O         27.3280    4.3210    6.0170 O.2    87  SER87      -0.2863
    140  CB        25.0730    6.2260    5.8890 C.3    87  SER87       0.2116
    141  OG        26.1420    7.1590    5.9280 O.3    87  SER87      -0.2180
    142  N         28.7320    6.7550    7.6340 N.3    90  MET90      -0.1245
    143  CA        28.5510    6.2320    8.9800 C.3    90  MET90       0.1570
    144  C         29.3960    4.9820    9.2010 C.2    90  MET90       0.2261
    145  O         30.0330    4.8300   10.2440 O.2    90  MET90      -0.2867
    146  CB        27.0710    5.9350    9.2460 C.3    90  MET90       0.0387
    147  CG        26.2050    7.1810    9.3500 C.3    90  MET90       0.0595
    148  SD        26.7140    8.2250   10.7280 S.3    90  MET90      -0.1393
    149  CE        25.6590    9.6440   10.5130 C.3    90  MET90       0.0692
    150  N         25.2560   -1.4400    3.8820 N.3   113  GLN113     -0.1231
    151  CA        24.1570   -2.2690    3.4130 C.3   113  GLN113      0.1698
    152  C         22.8110   -1.7650    3.9180 C.2   113  GLN113      0.2592
    153  O         22.6790   -1.3870    5.0810 O.2   113  GLN113     -0.2718
    154  CB        24.3630   -3.7130    3.8790 C.3   113  GLN113      0.0381
    155  CG        23.3350   -4.7060    3.3640 C.3   113  GLN113      0.0905
    156  CD        23.6310   -5.1820    1.9570 C.2   113  GLN113      0.2608
    157  OE1       23.7010   -4.3850    1.0200 O.2   113  GLN113     -0.2717
    158  NE2       23.8060   -6.4910    1.8000 N.am  113  GLN113     -0.0878
    159  N         21.8240   -1.7460    3.0290 N.am  114  ASP114     -0.1960
    160  CA        20.4390   -1.5250    3.4120 C.3   114  ASP114      0.1840
    161  C         19.9910   -2.7410    4.2190 C.2   114  ASP114      0.2621
    162  O         20.1400   -3.8760    3.7680 O.2   114  ASP114     -0.2715
    163  CB        19.5870   -1.3510    2.1490 C.3   114  ASP114      0.1450
    164  CG        18.0970   -1.2740    2.4350 C.2   114  ASP114      0.3671
    165  OD1       17.7000   -0.9580    3.5770 O.co2 114  ASP114     -0.2456
    166  OD2       17.3150   -1.5200    1.4900 O.co2 114  ASP114     -0.2456
    167  N         19.4600   -2.5060    5.4170 N.am  115  LEU115     -0.1977
    168  CA        19.0820   -3.6050    6.3060 C.3   115  LEU115      0.1596
    169  C         18.0590   -4.5470    5.6710 C.2   115  LEU115      0.2287
    170  O         17.9740   -5.7150    6.0360 O.2   115  LEU115     -0.2864
    171  CB        18.5840   -3.0810    7.6650 C.3   115  LEU115      0.0297
    172  CG        17.3460   -2.1800    7.7300 C.3   115  LEU115      0.0022
    173  CD1       16.0550   -2.9900    7.8020 C.3   115  LEU115      0.0001
    174  CD2       17.4420   -1.2270    8.9140 C.3   115  LEU115      0.0001
    175  N         18.3520    0.0220   16.5810 N.3   128  LEU128     -0.1231
    176  CA        18.0790    1.1500   17.4700 C.3   128  LEU128      0.1693
    177  C         17.9950    2.4890   16.7380 C.2   128  LEU128      0.2592
    178  O         18.8770    2.8350   15.9470 O.2   128  LEU128     -0.2718
    179  CB        19.1450    1.2440   18.5680 C.3   128  LEU128      0.0284
    180  CG        19.3260    0.0500   19.5080 C.3   128  LEU128      0.0019
    181  CD1       20.3760    0.3600   20.5750 C.3   128  LEU128      0.0001
    182  CD2       18.0030   -0.3530   20.1480 C.3   128  LEU128      0.0001
    183  N         16.9280    3.2330   17.0210 N.am  129  ASP129     -0.1960
    184  CA        16.7520    4.6010   16.5280 C.3   129  ASP129      0.1840
    185  C         16.8650    4.7340   15.0070 C.2   129  ASP129      0.2621
    186  O         17.3800    5.7330   14.4960 O.2   129  ASP129     -0.2715
    187  CB        17.7270    5.5570   17.2260 C.3   129  ASP129      0.1450
    188  CG        17.4870    5.6480   18.7250 C.2   129  ASP129      0.3671
    189  OD1       16.4370    5.1600   19.1950 O.co2 129  ASP129     -0.2456
    190  OD2       18.3420    6.2210   19.4360 O.co2 129  ASP129     -0.2456
    191  N         16.3740    3.7240   14.2950 N.am  130  VAL130     -0.1977
    192  CA        16.3770    3.7250   12.8360 C.3   130  VAL130      0.1596
    193  C         14.9570    3.8750   12.2940 C.2   130  VAL130      0.2287
    194  O         14.7200    4.5770   11.3040 O.2   130  VAL130     -0.2864
    195  CB        16.9840    2.4180   12.2760 C.3   130  VAL130      0.0276
    196  CG1       16.8790    2.3770   10.7550 C.3   130  VAL130      0.0022
    197  CG2       18.4300    2.2600   12.7270 C.3   130  VAL130      0.0022
    198  N         12.8300    7.0320   11.0130 N.3   133  HIS133     -0.1226
    199  CA        13.0020    7.6100    9.6810 C.3   133  HIS133      0.1752
    200  C         12.0640    7.0210    8.6290 C.2   133  HIS133      0.2596
    201  O         12.1650    7.3520    7.4460 O.2   133  HIS133     -0.2718
    202  CB        14.4530    7.4500    9.2220 C.3   133  HIS133      0.0759
    203  CG        15.4480    8.0780   10.1450 C.ar  133  HIS133      0.0818
    204  ND1       15.5730    9.4410   10.2890 N.ar  133  HIS133     -0.2268
    205  CD2       16.3630    7.5260   10.9790 C.ar  133  HIS133      0.1154
    206  CE1       16.5250    9.7050   11.1680 C.ar  133  HIS133      0.1986
    207  NE2       17.0180    8.5590   11.6000 N.ar  133  HIS133     -0.2212
    208  N         11.1530    6.1500    9.0550 N.am  134  TYR134     -0.1976
    209  CA        10.2420    5.4960    8.1190 C.3   134  TYR134      0.1639
    210  C          8.8110    5.4410    8.6460 C.2   134  TYR134      0.2290
    211  O          8.5990    5.2510    9.8390 O.2   134  TYR134     -0.2864
    212  CB        10.7390    4.0820    7.8050 C.3   134  TYR134      0.0560
    213  CG        12.1220    4.0470    7.1930 C.ar  134  TYR134     -0.0198
    214  CD1       12.2960    4.1250    5.8170 C.ar  134  TYR134     -0.0009
    215  CD2       13.2560    3.9420    7.9930 C.ar  134  TYR134     -0.0009
    216  CE1       13.5570    4.0950    5.2530 C.ar  134  TYR134      0.0417
    217  CE2       14.5230    3.9130    7.4340 C.ar  134  TYR134      0.0417
    218  CZ        14.6670    3.9890    6.0650 C.ar  134  TYR134      0.1957
    219  OH        15.9250    3.9590    5.5040 O.3   134  TYR134     -0.2866
    220  N         10.4090   -3.7470    7.2410 N.3   142  MET142     -0.1245
    221  CA        11.7540   -3.7590    7.8080 C.3   142  MET142      0.1570
    222  C         11.8500   -4.7040    8.9980 C.2   142  MET142      0.2261
    223  O         12.7720   -5.5110    9.0830 O.2   142  MET142     -0.2867
    224  CB        12.1810   -2.3440    8.2060 C.3   142  MET142      0.0387
    225  CG        12.3090   -1.3940    7.0230 C.3   142  MET142      0.0595
    226  SD        12.5290    0.3300    7.5080 S.3   142  MET142     -0.1393
    227  CE        14.1380    0.2820    8.2900 C.3   142  MET142      0.0692
@<TRIPOS>BOND
     1   157   156    2
     2     5     2    1
     3     5     6    1
     4     3     2    1
     5     3     4    2
     6     7     6    1
     7     7     8    1
     8     9     8    1
     9     1     2    1
    10   166   164   ar
    11   158   156   am
    12   156   155    1
    13   163   164    1
    14   163   160    1
    15   164   165   ar
    16   135   133    1
    17   133   132    1
    18   131   130    2
    19   159   160    1
    20   159   152   am
    21    10    11    1
    22   155   154    1
    23   160   161    1
    24   151   154    1
    25   151   150    1
    26   151   152    1
    27   162   161    2
    28   152   153    2
    29   130   129    1
    30   130   136   am
    31   161   167   am
    32    12    11    1
    33    12    13    2
    34   132   129    1
    35   132   134    1
    36    11    14    1
    37   129   128    1
    38   137   138    1
    39   137   136    1
    40   137   140    1
    41   138   139    2
    42   216   214   ar
    43   216   218   ar
    44    14    16    1
    45    14    15    1
    46   167   168    1
    47   219   218    1
    48   123   122    2
    49   169   170    2
    50   169   168    1
    51    17    18    1
    52   214   213   ar
    53   140   141    1
    54    19    20    2
    55    19    18    1
    56   128   122   am
    57   218   217   ar
    58   168   171    1
    59   122   121    1
    60    18    21    1
    61   225   226    1
    62   225   224    1
    63   213   212    1
    64   213   215   ar
    65    21    22    1
    66   220   221    1
    67   217   215   ar
    68   201   200    2
    69   226   227    1
    70   142   143    1
    71   171   172    1
    72   172   173    1
    73   172   174    1
    74   212   209    1
    75   221   224    1
    76   221   222    1
    77   121   120    1
    78   121   124    1
    79   126   125   ar
    80   120   116   am
    81   118   119    1
    82   118   115    1
    83   209   210    1
    84   209   208    1
    85    23    22   ar
    86    23    25   ar
    87    22    24   ar
    88   124   125    1
    89   200   208   am
    90   200   199    1
    91   210   211    2
    92   125   127   ar
    93   115   116    1
    94   115   114    1
    95   116   117    2
    96   143   144    1
    97   143   146    1
    98   222   223    2
    99   144   145    2
   100   202   199    1
   101   202   203    1
   102   146   147    1
   103    25    27   ar
   104   147   148    1
   105    24    26   ar
   106   199   198    1
   107   203   204   ar
   108   203   205   ar
   109   204   206   ar
   110   149   148    1
   111    27    26   ar
   112   196   195    1
   113   205   207   ar
   114    79    80    1
   115    80    81    1
   116   206   207   ar
   117   194   193    2
   118    88    87    1
   119    92    91    2
   120    81    83   am
   121    81    82    2
   122    83    84    1
   123   195   197    1
   124   195   192    1
   125   193   192    1
   126    74    73    2
   127    89    90    1
   128    89    85   am
   129    34    36   ar
   130    34    33   ar
   131    90    91    1
   132   192   191    1
   133    91    93   am
   134    87    84    1
   135    36    37   ar
   136    28    29    1
   137    73    72    1
   138    84    85    1
   139    98    97    1
   140    32    33    1
   141    32    29    1
   142    85    86    2
   143    33    35   ar
   144    93    94    1
   145    94    97    1
   146    94    95    1
   147    29    30    1
   148   191   185   am
   149    71    72    1
   150   186   185    2
   151    37    35   ar
   152    37    39   ar
   153    97    99    1
   154    72    75    1
   155    30    31    2
   156    35    38   ar
   157   185   184    1
   158    95    96    2
   159    75    76    1
   160    39    41   ar
   161    77    76   ar
   162    76    78   ar
   163   178   177    2
   164    51    49   ar
   165    51    52   ar
   166    38    40   ar
   167    49    47   ar
   168   184   183    1
   169   184   187    1
   170   175   176    1
   171    53    52    1
   172    41    40   ar
   173   177   183   am
   174   177   176    1
   175    52    50   ar
   176   187   188    1
   177   176   179    1
   178    47    46    1
   179    47    48   ar
   180    46    43    1
   181   100   101    1
   182    50    48   ar
   183    42    43    1
   184   179   180    1
   185   188   189   ar
   186   188   190   ar
   187   105   104    1
   188    43    44    1
   189    44    45    2
   190   101   104    1
   191   101   102    1
   192   180   182    1
   193   180   181    1
   194   106   102   am
   195   106   107    1
   196    63    62   ar
   197    63    61   ar
   198   113   111    1
   199   108   107    1
   200   108   109    2
   201   110   107    1
   202   110   111    1
   203    62    60   ar
   204   102   103    2
   205    61    59   ar
   206   111   112    1
   207    60    59   ar
   208    59    58    1
   209    58    55    1
   210    70    68    1
   211    55    56    1
   212    55    54    1
   213    69    68    1
   214    68    65    1
   215    57    56    2
   216    65    64    1
   217    65    66    1
   218    67    66    2
