@<TRIPOS>MOLECULE
tmp/4qdnA00.pdb
 114 111 0 0 0
SMALL
GASTEIGER

@<TRIPOS>ATOM
      1  N          6.6400    0.9040    8.5220 N.3    34  GLU34      -0.1245
      2  CA         7.8630    0.4340    9.1680 C.3    34  GLU34       0.1567
      3  C          7.8470   -1.0810    9.4190 C.2    34  GLU34       0.2260
      4  O          8.8710   -1.7550    9.2420 O.2    34  GLU34      -0.2867
      5  CB         8.0820    1.1640   10.4900 C.3    34  GLU34       0.0388
      6  CG         9.3090    0.6960   11.2650 C.3    34  GLU34       0.1160
      7  CD        10.6130    1.0930   10.5930 C.2    34  GLU34       0.3649
      8  OE1       10.6300    2.1400    9.9100 O.co2  34  GLU34      -0.2457
      9  OE2       11.6150    0.3600   10.7490 O.co2  34  GLU34      -0.2457
     10  N          7.9140    1.9210   15.2020 N.3    47  PHE47      -0.1227
     11  CA         8.3110    3.0630   14.3690 C.3    47  PHE47       0.1736
     12  C          9.7850    3.0780   13.9650 C.2    47  PHE47       0.2596
     13  O         10.2380    4.0000   13.2830 O.2    47  PHE47      -0.2718
     14  CB         7.9580    4.3660   15.0900 C.3    47  PHE47       0.0547
     15  CG         6.4820    4.5730   15.2330 C.ar   47  PHE47      -0.0202
     16  CD1        5.7750    5.2420   14.2520 C.ar   47  PHE47      -0.0042
     17  CD2        5.7920    4.0380   16.3190 C.ar   47  PHE47      -0.0042
     18  CE1        4.4000    5.4100   14.3510 C.ar   47  PHE47      -0.0003
     19  CE2        4.4190    4.1970   16.4290 C.ar   47  PHE47      -0.0003
     20  CZ         3.7190    4.8830   15.4380 C.ar   47  PHE47      -0.0000
     21  N         10.5220    2.0520   14.3690 N.am   48  GLY48      -0.1942
     22  CA        11.9310    1.9560   14.0300 C.3    48  GLY48       0.2014
     23  C         12.7650    2.9560   14.8110 C.2    48  GLY48       0.2639
     24  O         13.7940    3.4290   14.3210 O.2    48  GLY48      -0.2714
     25  N         12.3310    3.2780   16.0280 N.am   49  ILE49      -0.1963
     26  CA        13.0250    4.2880   16.8200 C.3    49  ILE49       0.1727
     27  C         14.3860    3.7530   17.2470 C.2    49  ILE49       0.2616
     28  O         14.4960    2.6230   17.7210 O.2    49  ILE49      -0.2715
     29  CB        12.2050    4.7010   18.0540 C.3    49  ILE49       0.0290
     30  CG1       10.9320    5.4250   17.6160 C.3    49  ILE49       0.0022
     31  CG2       13.0120    5.6040   18.9610 C.3    49  ILE49       0.0023
     32  CD1        9.9090    5.5360   18.6950 C.3    49  ILE49       0.0001
     33  N         15.4260    4.5560   17.0680 N.am   50  LYS50      -0.1977
     34  CA        16.7650    4.1170   17.4400 C.3    50  LYS50       0.1596
     35  C         17.1690    4.6960   18.7970 C.2    50  LYS50       0.2287
     36  O         16.5700    5.6560   19.2790 O.2    50  LYS50      -0.2864
     37  CB        17.7660    4.4980   16.3470 C.3    50  LYS50       0.0298
     38  CG        17.4990    3.7760   15.0310 C.3    50  LYS50       0.0038
     39  CD        18.5140    4.1490   13.9670 C.3    50  LYS50       0.0206
     40  CE        18.2870    3.3560   12.6840 C.3    50  LYS50       0.1093
     41  NZ        19.2740    3.7090   11.6150 N.3    50  LYS50      -0.1314
     42  N         18.1050    8.2190   18.5780 N.3    53  SER53      -0.1217
     43  CA        17.1750    8.9350   17.7020 C.3    53  SER53       0.1889
     44  C         17.0290   10.4020   18.0990 C.2    53  SER53       0.2288
     45  O         16.7830   11.2600   17.2480 O.2    53  SER53      -0.2866
     46  CB        15.8030    8.2560   17.7050 C.3    53  SER53       0.2089
     47  OG        15.7630    7.1600   16.8040 O.3    53  SER53      -0.2183
     48  N         18.2550   -0.3130   17.2940 N.3    57  PHE57      -0.1241
     49  CA        16.8490   -0.0520   17.6150 C.3    57  PHE57       0.1605
     50  C         16.5120   -0.1370   19.0960 C.2    57  PHE57       0.2264
     51  O         16.9730   -1.0340   19.8000 O.2    57  PHE57      -0.2867
     52  CB        15.9320   -1.0310   16.8740 C.3    57  PHE57       0.0534
     53  CG        15.9150   -0.8410   15.3930 C.ar   57  PHE57      -0.0203
     54  CD1       15.3150    0.2770   14.8350 C.ar   57  PHE57      -0.0042
     55  CD2       16.4990   -1.7760   14.5570 C.ar   57  PHE57      -0.0042
     56  CE1       15.3000    0.4610   13.4680 C.ar   57  PHE57      -0.0003
     57  CE2       16.4890   -1.6010   13.1920 C.ar   57  PHE57      -0.0003
     58  CZ        15.8870   -0.4820   12.6460 C.ar   57  PHE57      -0.0000
     59  N          9.4120   11.8970   20.3960 N.3    73  LEU73      -0.1245
     60  CA        10.4610   12.1520   19.4180 C.3    73  LEU73       0.1561
     61  C         10.0870   13.2650   18.4400 C.2    73  LEU73       0.2260
     62  O         10.8910   14.1660   18.1880 O.2    73  LEU73      -0.2867
     63  CB        10.7880   10.8730   18.6410 C.3    73  LEU73       0.0270
     64  CG        11.8130   11.0060   17.5110 C.3    73  LEU73       0.0019
     65  CD1       13.2000   11.4130   18.0290 C.3    73  LEU73       0.0001
     66  CD2       11.8830    9.7150   16.6880 C.3    73  LEU73       0.0001
     67  N         11.3350   17.0540   16.0670 N.3    78  TYR78      -0.1241
     68  CA        10.7920   17.4140   14.7630 C.3    78  TYR78       0.1605
     69  C          9.6340   18.3830   14.9620 C.2    78  TYR78       0.2264
     70  O          8.5240   18.1580   14.4840 O.2    78  TYR78      -0.2867
     71  CB        10.3360   16.1640   14.0010 C.3    78  TYR78       0.0534
     72  CG        11.4790   15.2460   13.6600 C.ar   78  TYR78      -0.0201
     73  CD1       12.1740   15.3840   12.4660 C.ar   78  TYR78      -0.0009
     74  CD2       11.8720   14.2440   14.5360 C.ar   78  TYR78      -0.0009
     75  CE1       13.2410   14.5530   12.1520 C.ar   78  TYR78       0.0417
     76  CE2       12.9310   13.3980   14.2250 C.ar   78  TYR78       0.0417
     77  CZ        13.6110   13.5590   13.0350 C.ar   78  TYR78       0.1957
     78  OH        14.6690   12.7330   12.7280 O.3    78  TYR78      -0.2866
     79  N         14.1600   12.5300    8.9390 N.3   100  TYR100     -0.1227
     80  CA        13.5630   11.4670    9.7290 C.3   100  TYR100      0.1736
     81  C         13.8980   10.0980    9.1490 C.2   100  TYR100      0.2595
     82  O         14.1030    9.1250    9.8770 O.2   100  TYR100     -0.2718
     83  CB        12.0500   11.6530    9.7910 C.3   100  TYR100      0.0548
     84  CG        11.3710   10.6310   10.6530 C.ar  100  TYR100     -0.0200
     85  CD1       11.3190   10.7900   12.0280 C.ar  100  TYR100     -0.0009
     86  CD2       10.7850    9.5020   10.0960 C.ar  100  TYR100     -0.0009
     87  CE1       10.7050    9.8540   12.8250 C.ar  100  TYR100      0.0417
     88  CE2       10.1730    8.5620   10.8850 C.ar  100  TYR100      0.0417
     89  CZ        10.1350    8.7440   12.2480 C.ar  100  TYR100      0.1957
     90  OH         9.5300    7.8060   13.0420 O.3   100  TYR100     -0.2866
     91  N         13.9430   10.0350    7.8240 N.am  101  ALA101     -0.1966
     92  CA        14.2080    8.7880    7.1200 C.3   101  ALA101      0.1728
     93  C         15.1870    9.0380    5.9930 C.2   101  ALA101      0.2616
     94  O         15.2270   10.1320    5.4360 O.2   101  ALA101     -0.2715
     95  CB        12.9190    8.1990    6.5840 C.3   101  ALA101      0.0334
     96  N         15.9750    8.0250    5.6570 N.am  102  THR102     -0.1951
     97  CA        16.9440    8.1650    4.5810 C.3   102  THR102      0.1897
     98  C         16.3170    7.8190    3.2310 C.2   102  THR102      0.2313
     99  O         16.8410    8.2000    2.1840 O.2   102  THR102     -0.2863
    100  CB        18.1850    7.2820    4.8200 C.3   102  THR102      0.1794
    101  OG1       17.7790    5.9260    5.0450 O.3   102  THR102     -0.2208
    102  CG2       18.9580    7.7750    6.0320 C.3   102  THR102      0.0378
    103  N         10.3060    8.3870    1.1810 N.3   106  TYR106     -0.1241
    104  CA         9.6300    8.1080    2.4460 C.3   106  TYR106      0.1605
    105  C          8.2530    8.7700    2.5540 C.2   106  TYR106      0.2264
    106  O          7.2720    8.1090    2.8920 O.2   106  TYR106     -0.2867
    107  CB        10.4960    8.5510    3.6320 C.3   106  TYR106      0.0534
    108  CG         9.8940    8.1670    4.9650 C.ar  106  TYR106     -0.0201
    109  CD1        9.8620    6.8390    5.3740 C.ar  106  TYR106     -0.0009
    110  CD2        9.3450    9.1290    5.8090 C.ar  106  TYR106     -0.0009
    111  CE1        9.2930    6.4710    6.5940 C.ar  106  TYR106      0.0417
    112  CE2        8.7830    8.7730    7.0290 C.ar  106  TYR106      0.0417
    113  CZ         8.7630    7.4420    7.4170 C.ar  106  TYR106      0.1957
    114  OH         8.1970    7.0740    8.6220 O.3   106  TYR106     -0.2866
@<TRIPOS>BOND
     1   103   104    1
     2    99    98    2
     3   104   105    1
     4   104   107    1
     5   105   106    2
     6    98    97    1
     7   107   108    1
     8    97   100    1
     9    97    96    1
    10   100   101    1
    11   100   102    1
    12   108   109   ar
    13   108   110   ar
    14   109   111   ar
    15    94    93    2
    16    96    93   am
    17   110   112   ar
    18    93    92    1
    19    95    92    1
    20   111   113   ar
    21   112   113   ar
    22    92    91    1
    23   113   114    1
    24    91    81   am
    25     1     2    1
    26    79    80    1
    27    81    80    1
    28    81    82    2
    29     2     3    1
    30     2     5    1
    31     4     3    2
    32    80    83    1
    33    83    84    1
    34     8     7   ar
    35    86    84   ar
    36    86    88   ar
    37     5     6    1
    38     7     9   ar
    39     7     6    1
    40    84    85   ar
    41    88    89   ar
    42    41    40    1
    43    85    87   ar
    44    75    73   ar
    45    75    77   ar
    46    89    87   ar
    47    89    90    1
    48    73    72   ar
    49    58    57   ar
    50    58    56   ar
    51    40    39    1
    52    78    77    1
    53    77    76   ar
    54    57    55   ar
    55    13    12    2
    56    56    54   ar
    57    72    71    1
    58    72    74   ar
    59    12    11    1
    60    12    21   am
    61    39    38    1
    62    71    68    1
    63    22    21    1
    64    22    23    1
    65    76    74   ar
    66    16    18   ar
    67    16    15   ar
    68    24    23    2
    69    18    20   ar
    70    11    14    1
    71    11    10    1
    72    70    69    2
    73    55    53   ar
    74    68    69    1
    75    68    67    1
    76    23    25   am
    77    54    53   ar
    78    38    37    1
    79    14    15    1
    80    15    17   ar
    81    53    52    1
    82    20    19   ar
    83    25    26    1
    84    17    19   ar
    85    37    34    1
    86    66    64    1
    87    47    46    1
    88    26    27    1
    89    26    29    1
    90    52    49    1
    91    33    27   am
    92    33    34    1
    93    27    28    2
    94    45    44    2
    95    48    49    1
    96    34    35    1
    97    64    65    1
    98    64    63    1
    99    49    50    1
   100    30    29    1
   101    30    32    1
   102    43    46    1
   103    43    44    1
   104    43    42    1
   105    29    31    1
   106    62    61    2
   107    61    60    1
   108    63    60    1
   109    35    36    2
   110    50    51    2
   111    60    59    1
