@<TRIPOS>MOLECULE
tmp/4qdvA00.pdb
 171 164 0 0 0
SMALL
GASTEIGER

@<TRIPOS>ATOM
      1  N         47.7620   31.2350    6.5930 N.3    24  PHE24      -0.1241
      2  CA        47.5000   32.6650    6.4120 C.3    24  PHE24       0.1605
      3  C         48.5230   33.1280    5.3800 C.2    24  PHE24       0.2264
      4  O         49.7350   32.9910    5.6000 O.2    24  PHE24      -0.2867
      5  CB        47.6420   33.4380    7.7400 C.3    24  PHE24       0.0534
      6  CG        46.6790   33.0390    8.8410 C.ar   24  PHE24      -0.0203
      7  CD1       46.8180   31.8270    9.5060 C.ar   24  PHE24      -0.0042
      8  CD2       45.7060   33.9210    9.2850 C.ar   24  PHE24      -0.0042
      9  CE1       45.9520   31.4760   10.5440 C.ar   24  PHE24      -0.0003
     10  CE2       44.8220   33.5620   10.3050 C.ar   24  PHE24      -0.0003
     11  CZ        44.9590   32.3470   10.9380 C.ar   24  PHE24      -0.0000
     12  N         42.9010   33.3480    4.0220 N.3    35  ILE35      -0.1245
     13  CA        42.9890   32.3340    5.0780 C.3    35  ILE35       0.1561
     14  C         42.2530   31.0810    4.6330 C.2    35  ILE35       0.2260
     15  O         41.0540   31.1450    4.3400 O.2    35  ILE35      -0.2867
     16  CB        42.4660   32.8080    6.4730 C.3    35  ILE35       0.0252
     17  CG1       42.7050   34.3190    6.7490 C.3    35  ILE35       0.0019
     18  CG2       43.0270   31.9300    7.5840 C.3    35  ILE35       0.0019
     19  CD1       44.1220   34.8370    6.7430 C.3    35  ILE35       0.0001
     20  N         38.5840   32.6940    4.1070 N.3    81  THR81      -0.1218
     21  CA        38.3810   34.0710    4.5290 C.3    81  THR81       0.1862
     22  C         39.3010   34.9600    3.6800 C.2    81  THR81       0.2287
     23  O         40.5060   34.7180    3.6140 O.2    81  THR81      -0.2866
     24  CB        38.6150   34.2010    6.0320 C.3    81  THR81       0.1770
     25  OG1       37.8220   33.2240    6.7080 O.3    81  THR81      -0.2211
     26  CG2       38.2850   35.5890    6.5580 C.3    81  THR81       0.0375
     27  N         40.5230   38.9240    2.9870 N.3    83  VAL83      -0.1245
     28  CA        40.6070   40.2930    3.5020 C.3    83  VAL83       0.1561
     29  C         41.1740   41.1740    2.3730 C.2    83  VAL83       0.2260
     30  O         42.3740   41.1200    2.1010 O.2    83  VAL83      -0.2867
     31  CB        41.4210   40.3780    4.8290 C.3    83  VAL83       0.0252
     32  CG1       41.5370   41.8130    5.3240 C.3    83  VAL83       0.0019
     33  CG2       40.8090   39.4960    5.9120 C.3    83  VAL83       0.0019
     34  N         46.7040   44.3210    9.4940 N.3    90  HIS90      -0.1241
     35  CA        46.3490   42.9440    9.1420 C.3    90  HIS90       0.1621
     36  C         47.5760   42.0900    8.9370 C.2    90  HIS90       0.2264
     37  O         47.6520   40.9790    9.4640 O.2    90  HIS90      -0.2867
     38  CB        45.4810   42.9100    7.8710 C.3    90  HIS90       0.0745
     39  CG        44.1090   43.4560    8.0820 C.ar   90  HIS90       0.0817
     40  ND1       43.8360   44.7990    7.9110 N.ar   90  HIS90      -0.2268
     41  CD2       42.9800   42.8280    8.4800 C.ar   90  HIS90       0.1154
     42  CE1       42.5510   44.9440    8.1900 C.ar   90  HIS90       0.1986
     43  NE2       41.9940   43.7860    8.5360 N.ar   90  HIS90      -0.2212
     44  N         48.5630   38.6530   11.7510 N.3    94  TYR94      -0.1241
     45  CA        48.5360   37.2140   11.4750 C.3    94  TYR94       0.1605
     46  C         49.8830   36.5050   11.5820 C.2    94  TYR94       0.2264
     47  O         49.9110   35.2840   11.7410 O.2    94  TYR94      -0.2867
     48  CB        47.8520   36.9410   10.1370 C.3    94  TYR94       0.0534
     49  CG        46.3790   37.2870   10.2070 C.ar   94  TYR94      -0.0201
     50  CD1       45.5740   36.7930   11.2320 C.ar   94  TYR94      -0.0009
     51  CD2       45.8080   38.1780    9.3040 C.ar   94  TYR94      -0.0009
     52  CE1       44.2250   37.1350   11.3240 C.ar   94  TYR94       0.0417
     53  CE2       44.4590   38.5280    9.3860 C.ar   94  TYR94       0.0417
     54  CZ        43.6720   38.0010   10.3970 C.ar   94  TYR94       0.1957
     55  OH        42.3300   38.2800   10.4490 O.3    94  TYR94      -0.2866
     56  N         42.2850   49.4280   15.0860 N.3   122  LEU122     -0.1245
     57  CA        41.6450   49.0380   13.8190 C.3   122  LEU122      0.1561
     58  C         40.2960   49.7460   13.5080 C.2   122  LEU122      0.2260
     59  O         39.6440   50.3410   14.3850 O.2   122  LEU122     -0.2867
     60  CB        41.3990   47.4890   13.7880 C.3   122  LEU122      0.0270
     61  CG        42.6130   46.5240   13.7830 C.3   122  LEU122      0.0019
     62  CD1       42.8870   45.9820   15.1880 C.3   122  LEU122      0.0001
     63  CD2       42.3790   45.3410   12.8310 C.3   122  LEU122      0.0001
     64  N         32.9850   46.9570   10.0900 N.3   126  TRP126     -0.1241
     65  CA        32.2150   45.7220    9.9300 C.3   126  TRP126      0.1605
     66  C         31.2360   45.4840   11.0890 C.2   126  TRP126      0.2264
     67  O         30.1920   44.8650   10.8810 O.2   126  TRP126     -0.2867
     68  CB        33.1270   44.5150    9.7450 C.3   126  TRP126      0.0550
     69  CG        33.9550   44.1830   10.9480 C.ar  126  TRP126      0.0003
     70  CD1       35.2230   44.6140   11.2160 C.ar  126  TRP126      0.0946
     71  CD2       33.5790   43.3360   12.0430 C.ar  126  TRP126      0.0152
     72  NE1       35.6770   44.0500   12.3890 N.ar  126  TRP126     -0.2442
     73  CE2       34.6850   43.2700   12.9240 C.ar  126  TRP126      0.0810
     74  CE3       32.4140   42.6140   12.3630 C.ar  126  TRP126      0.0012
     75  CZ2       34.6600   42.5170   14.1030 C.ar  126  TRP126      0.0191
     76  CZ3       32.3840   41.8760   13.5380 C.ar  126  TRP126      0.0001
     77  CH2       33.5100   41.8050   14.3740 C.ar  126  TRP126      0.0015
     78  N         27.0770   45.4510   10.9060 N.3   130  ILE130     -0.1245
     79  CA        26.1970   44.4420   11.4990 C.3   130  ILE130      0.1561
     80  C         25.1160   45.1540   12.3010 C.2   130  ILE130      0.2260
     81  O         23.9400   44.9320   12.0410 O.2   130  ILE130     -0.2867
     82  CB        26.9760   43.4000   12.3600 C.3   130  ILE130      0.0252
     83  CG1       27.7970   42.4700   11.4840 C.3   130  ILE130      0.0019
     84  CG2       26.0380   42.5740   13.2400 C.3   130  ILE130      0.0019
     85  CD1       28.9310   41.8900   12.2020 C.3   130  ILE130      0.0001
     86  N         25.2080   41.2660    6.9980 N.3   136  GLU136     -0.1245
     87  CA        24.9360   40.0210    7.7290 C.3   136  GLU136      0.1567
     88  C         23.5590   39.9230    8.3920 C.2   136  GLU136      0.2260
     89  O         23.3810   39.0650    9.2590 O.2   136  GLU136     -0.2867
     90  CB        26.0440   39.7520    8.7750 C.3   136  GLU136      0.0388
     91  CG        27.4170   39.5130    8.1700 C.3   136  GLU136      0.1160
     92  CD        28.4990   39.1890    9.1790 C.2   136  GLU136      0.3649
     93  OE1       28.4650   38.1050    9.8120 O.co2 136  GLU136     -0.2457
     94  OE2       29.3970   40.0410    9.3400 O.co2 136  GLU136     -0.2457
     95  N         21.9400   36.6260    9.1090 N.3   139  ARG139     -0.1241
     96  CA        22.6380   35.7400   10.0440 C.3   139  ARG139      0.1606
     97  C         22.3620   36.0520   11.5060 C.2   139  ARG139      0.2264
     98  O         22.7740   35.2720   12.3630 O.2   139  ARG139     -0.2867
     99  CB        24.1520   35.7070    9.7650 C.3   139  ARG139      0.0562
    100  CG        24.5290   35.7110    8.2910 C.2   139  ARG139      0.0159
    101  CD        26.0220   35.6160    7.9720 C.2   139  ARG139      0.1886
    102  NE        26.9340   35.5980    9.1260 N.pl3 139  ARG139     -0.0578
    103  CZ        27.5820   34.5220    9.5650 C.cat 139  ARG139      0.5393
    104  NH1       27.4190   33.3460    8.9650 N.pl3 139  ARG139      0.1358
    105  NH2       28.4340   34.6210   10.5760 N.pl3 139  ARG139      0.1358
    106  N         25.1890   37.0960   16.7520 N.3   154  ILE154     -0.1231
    107  CA        25.4380   36.6570   15.3850 C.3   154  ILE154      0.1678
    108  C         26.5000   35.5370   15.4120 C.2   154  ILE154      0.2434
    109  O         27.4050   35.6360   16.2370 O.2   154  ILE154     -0.2733
    110  CB        25.8900   37.9240   14.5450 C.3   154  ILE154      0.0265
    111  CG1       26.1010   37.6160   13.0300 C.3   154  ILE154      0.0019
    112  CG2       27.1280   38.6500   15.1320 C.3   154  ILE154      0.0020
    113  CD1       25.2400   38.4350   12.1070 C.3   154  ILE154      0.0001
    114  N         26.4660   34.4850   14.5440 N.am  155  PRO155     -0.2718
    115  CA        27.5540   33.5110   14.5850 C.3   155  PRO155      0.1535
    116  C         28.8020   34.2050   14.0940 C.2   155  PRO155      0.2599
    117  O         28.7240   35.1320   13.2910 O.2   155  PRO155     -0.2715
    118  CB        27.0910   32.3880   13.6590 C.3   155  PRO155      0.0310
    119  CG        26.0750   32.9700   12.8060 C.3   155  PRO155      0.0237
    120  CD        25.4900   34.1540   13.4810 C.3   155  PRO155      0.0939
    121  N         29.9330   33.8310   14.6630 N.am  156  ASP156     -0.1958
    122  CA        31.2020   34.4350   14.3420 C.3   156  ASP156      0.1840
    123  C         31.6500   34.0280   12.9650 C.2   156  ASP156      0.2622
    124  O         31.1670   33.0320   12.4320 O.2   156  ASP156     -0.2715
    125  CB        32.2070   34.0060   15.3940 C.3   156  ASP156      0.1450
    126  CG        33.4880   34.7760   15.3170 C.2   156  ASP156      0.3671
    127  OD1       33.5610   35.8720   15.9300 O.co2 156  ASP156     -0.2456
    128  OD2       34.3830   34.3340   14.5850 O.co2 156  ASP156     -0.2456
    129  N         32.5580   34.8030   12.3790 N.am  157  LEU157     -0.1963
    130  CA        33.1310   34.5540   11.0550 C.3   157  LEU157      0.1728
    131  C         33.8990   33.2060   11.0390 C.2   157  LEU157      0.2616
    132  O         33.8840   32.4780   10.0340 O.2   157  LEU157     -0.2715
    133  CB        34.0530   35.7340   10.7140 C.3   157  LEU157      0.0311
    134  CG        34.8090   35.6840    9.4000 C.3   157  LEU157      0.0022
    135  CD1       34.6890   36.9920    8.6730 C.3   157  LEU157      0.0001
    136  CD2       36.2720   35.3280    9.6280 C.3   157  LEU157      0.0001
    137  N         34.5190   32.8750   12.1960 N.am  158  LYS158     -0.1977
    138  CA        35.3300   31.6790   12.4580 C.3   158  LYS158      0.1596
    139  C         34.5140   30.3530   12.5830 C.2   158  LYS158      0.2287
    140  O         35.1350   29.2970   12.6970 O.2   158  LYS158     -0.2864
    141  CB        36.2310   31.9150   13.6990 C.3   158  LYS158      0.0298
    142  CG        37.1620   33.1670   13.5740 C.3   158  LYS158      0.0038
    143  CD        37.5210   33.8360   14.9400 C.3   158  LYS158      0.0206
    144  CE        37.4780   35.3590   14.9410 C.3   158  LYS158      0.1093
    145  NZ        37.0190   35.9180   16.2480 N.3   158  LYS158     -0.1314
    146  N         28.9900   35.4790   18.7160 N.3   170  ILE170     -0.1245
    147  CA        29.3560   36.7200   19.3870 C.3   170  ILE170      0.1561
    148  C         28.1580   37.6130   19.6590 C.2   170  ILE170      0.2260
    149  O         27.3310   37.8350   18.7750 O.2   170  ILE170     -0.2867
    150  CB        30.4940   37.5410   18.7110 C.3   170  ILE170      0.0252
    151  CG1       30.3690   37.5720   17.1640 C.3   170  ILE170      0.0019
    152  CG2       31.8750   37.0860   19.1850 C.3   170  ILE170      0.0019
    153  CD1       31.2610   38.6480   16.4620 C.3   170  ILE170      0.0001
    154  N         40.7210   41.8480   20.1970 N.3   223  SER223     -0.1202
    155  CA        41.2240   42.1050   18.8440 C.3   223  SER223      0.2020
    156  C         40.6060   43.3850   18.3180 C.2   223  SER223      0.2618
    157  O         41.1940   44.0220   17.4420 O.2   223  SER223     -0.2717
    158  CB        40.8910   40.9450   17.9090 C.3   223  SER223      0.2103
    159  OG        41.3070   39.6840   18.4170 O.3   223  SER223     -0.2182
    160  N         39.4120   43.7680   18.8410 N.am  224  TYR224     -0.1975
    161  CA        38.7120   44.9980   18.4410 C.3   224  TYR224      0.1639
    162  C         38.1080   45.6700   19.6320 C.2   224  TYR224      0.2290
    163  O         37.6860   44.9950   20.5800 O.2   224  TYR224     -0.2864
    164  CB        37.7220   44.8120   17.2840 C.3   224  TYR224      0.0560
    165  CG        36.7480   43.6680   17.3980 C.ar  224  TYR224     -0.0198
    166  CD1       37.1350   42.3700   17.0920 C.ar  224  TYR224     -0.0009
    167  CD2       35.3980   43.9010   17.6520 C.ar  224  TYR224     -0.0009
    168  CE1       36.2240   41.3190   17.1170 C.ar  224  TYR224      0.0417
    169  CE2       34.4690   42.8640   17.6490 C.ar  224  TYR224      0.0417
    170  CZ        34.8930   41.5690   17.4080 C.ar  224  TYR224      0.1957
    171  OH        33.9980   40.5260   17.4330 O.3   224  TYR224     -0.2866
@<TRIPOS>BOND
     1    30    29    2
     2    29    28    1
     3    27    28    1
     4    28    31    1
     5    23    22    2
     6    22    21    1
     7    12    13    1
     8    20    21    1
     9    15    14    2
    10    21    24    1
    11    14    13    1
    12    31    32    1
    13    31    33    1
    14    13    16    1
    15     3     4    2
    16     3     2    1
    17    24    26    1
    18    24    25    1
    19     2     1    1
    20     2     5    1
    21    16    17    1
    22    16    18    1
    23    19    17    1
    24    86    87    1
    25    87    88    1
    26    87    90    1
    27     5     6    1
    28    38    39    1
    29    38    35    1
    30    40    39   ar
    31    40    42   ar
    32   101   100    2
    33   101   102    1
    34    39    41   ar
    35    91    90    1
    36    91    92    1
    37    42    43   ar
    38   100    99    1
    39    88    89    2
    40    41    43   ar
    41   135   134    1
    42     6     8   ar
    43     6     7   ar
    44    36    35    1
    45    36    37    2
    46   104   103    1
    47    95    96    1
    48   102   103    2
    49    35    34    1
    50    92    94   ar
    51    92    93   ar
    52     8    10   ar
    53    51    53   ar
    54    51    49   ar
    55    53    54   ar
    56   134   136    1
    57   134   133    1
    58     7     9   ar
    59   103   105    1
    60    68    65    1
    61    68    69    1
    62    99    96    1
    63    65    64    1
    64    65    66    1
    65   132   131    2
    66    96    97    1
    67    48    49    1
    68    48    45    1
    69    49    50   ar
    70    10    11   ar
    71    54    55    1
    72    54    52   ar
    73     9    11   ar
    74   133   130    1
    75    67    66    2
    76    78    79    1
    77    69    70   ar
    78    69    71   ar
    79   131   130    1
    80   131   137   am
    81   130   129    1
    82    70    72   ar
    83    50    52   ar
    84    45    46    1
    85    45    44    1
    86    83    85    1
    87    83    82    1
    88    79    80    1
    89    79    82    1
    90    97    98    2
    91    46    47    2
    92    81    80    2
    93    71    74   ar
    94    71    73   ar
    95   113   111    1
    96   137   138    1
    97    82    84    1
    98    74    76   ar
    99   129   123   am
   100    72    73   ar
   101   124   123    2
   102   138   139    1
   103   138   141    1
   104   139   140    2
   105   119   120    1
   106   119   118    1
   107    63    61    1
   108    73    75   ar
   109   123   122    1
   110   111   110    1
   111   117   116    2
   112   120   114    1
   113    58    57    1
   114    58    59    2
   115    76    77   ar
   116   142   141    1
   117   142   143    1
   118   118   115    1
   119    61    60    1
   120    61    62    1
   121    60    57    1
   122    57    56    1
   123   116   115    1
   124   116   121   am
   125    75    77   ar
   126   122   121    1
   127   122   125    1
   128   114   115    1
   129   114   108   am
   130   110   112    1
   131   110   107    1
   132   128   126   ar
   133   143   144    1
   134   144   145    1
   135   126   125    1
   136   126   127   ar
   137   107   108    1
   138   107   106    1
   139   108   109    2
   140   153   151    1
   141   166   168   ar
   142   166   165   ar
   143   168   170   ar
   144   151   150    1
   145   164   165    1
   146   164   161    1
   147   165   167   ar
   148   170   171    1
   149   170   169   ar
   150   157   156    2
   151   169   167   ar
   152   158   159    1
   153   158   155    1
   154   156   160   am
   155   156   155    1
   156   161   160    1
   157   161   162    1
   158   150   152    1
   159   150   147    1
   160   146   147    1
   161   149   148    2
   162   155   154    1
   163   147   148    1
   164   162   163    2
