@<TRIPOS>MOLECULE
tmp/4qdwA00.pdb
 156 147 0 0 0
SMALL
GASTEIGER

@<TRIPOS>ATOM
      1  N        -10.4380  -24.1490  -39.6150 N.3    16  TRP16      -0.1241
      2  CA        -9.3280  -23.9480  -40.5460 C.3    16  TRP16       0.1605
      3  C         -8.2360  -23.0080  -40.0450 C.2    16  TRP16       0.2264
      4  O         -7.2020  -22.8610  -40.7020 O.2    16  TRP16      -0.2867
      5  CB        -9.8710  -23.4060  -41.8730 C.3    16  TRP16       0.0550
      6  CG       -10.4210  -22.0030  -41.7690 C.ar   16  TRP16       0.0003
      7  CD1       -9.7320  -20.8400  -41.9530 C.ar   16  TRP16       0.0946
      8  CD2      -11.7620  -21.6220  -41.4240 C.ar   16  TRP16       0.0152
      9  NE1      -10.5640  -19.7570  -41.7750 N.ar   16  TRP16      -0.2442
     10  CE2      -11.8160  -20.2100  -41.4480 C.ar   16  TRP16       0.0810
     11  CE3      -12.9260  -22.3360  -41.1120 C.ar   16  TRP16       0.0012
     12  CZ2      -12.9850  -19.4970  -41.1700 C.ar   16  TRP16       0.0191
     13  CZ3      -14.0920  -21.6240  -40.8340 C.ar   16  TRP16       0.0001
     14  CH2      -14.1110  -20.2170  -40.8660 C.ar   16  TRP16       0.0015
     15  N        -16.1290  -24.7880  -42.7290 N.3    54  HIS54      -0.1241
     16  CA       -16.4940  -24.8400  -44.1340 C.3    54  HIS54       0.1621
     17  C        -16.9290  -26.2980  -44.2270 C.2    54  HIS54       0.2264
     18  O        -16.3860  -27.1520  -43.5130 O.2    54  HIS54      -0.2867
     19  CB       -15.2960  -24.7220  -45.0790 C.3    54  HIS54       0.0745
     20  CG       -14.6230  -23.3930  -45.0690 C.ar   54  HIS54       0.0817
     21  ND1      -13.5930  -23.0910  -44.2070 N.ar   54  HIS54      -0.2268
     22  CD2      -14.7870  -22.3060  -45.8570 C.ar   54  HIS54       0.1154
     23  CE1      -13.1500  -21.8740  -44.4630 C.ar   54  HIS54       0.1986
     24  NE2      -13.8580  -21.3760  -45.4590 N.ar   54  HIS54      -0.2212
     25  N        -19.9760  -22.0280  -43.3750 N.3    90  THR90      -0.1203
     26  CA       -19.7260  -21.5010  -44.7040 C.3    90  THR90       0.1994
     27  C        -19.3880  -22.6420  -45.6560 C.2    90  THR90       0.2618
     28  O        -19.2910  -23.8000  -45.2390 O.2    90  THR90      -0.2717
     29  CB       -18.6050  -20.4600  -44.6420 C.3    90  THR90       0.1784
     30  OG1      -18.3900  -19.8740  -45.9080 O.3    90  THR90      -0.2211
     31  CG2      -17.2950  -20.9990  -44.1500 C.3    90  THR90       0.0376
     32  N        -19.2580  -22.3180  -46.9360 N.am   91  THR91      -0.1952
     33  CA       -18.9850  -23.3230  -47.9600 C.3    91  THR91       0.1897
     34  C        -17.5990  -23.1200  -48.5410 C.2    91  THR91       0.2313
     35  O        -17.1950  -21.9820  -48.7970 O.2    91  THR91      -0.2863
     36  CB       -19.9700  -23.1730  -49.1290 C.3    91  THR91       0.1794
     37  OG1      -21.2560  -22.7600  -48.7110 O.3    91  THR91      -0.2208
     38  CG2      -20.1370  -24.4290  -49.9580 C.3    91  THR91       0.0378
     39  N        -13.6720  -22.7440  -53.1640 N.3    94  PHE94      -0.1241
     40  CA       -12.3930  -22.2400  -53.6580 C.3    94  PHE94       0.1605
     41  C        -11.2260  -23.2210  -53.7950 C.2    94  PHE94       0.2264
     42  O        -10.3060  -22.9610  -54.5660 O.2    94  PHE94      -0.2867
     43  CB       -11.9580  -21.0190  -52.8250 C.3    94  PHE94       0.0534
     44  CG       -11.9550  -21.2620  -51.3290 C.ar   94  PHE94      -0.0203
     45  CD1      -10.8870  -21.9020  -50.7120 C.ar   94  PHE94      -0.0042
     46  CD2      -13.0280  -20.8560  -50.5460 C.ar   94  PHE94      -0.0042
     47  CE1      -10.8850  -22.1330  -49.3450 C.ar   94  PHE94      -0.0003
     48  CE2      -13.0340  -21.0830  -49.1730 C.ar   94  PHE94      -0.0003
     49  CZ       -11.9640  -21.7220  -48.5730 C.ar   94  PHE94      -0.0000
     50  N        -21.9770  -17.6800  -43.8970 N.3   135  VAL135     -0.1245
     51  CA       -21.0490  -16.7910  -44.5860 C.3   135  VAL135      0.1561
     52  C        -20.7220  -17.2560  -45.9880 C.2   135  VAL135      0.2260
     53  O        -20.6170  -18.4510  -46.2520 O.2   135  VAL135     -0.2867
     54  CB       -19.7480  -16.6330  -43.7660 C.3   135  VAL135      0.0252
     55  CG1      -18.6320  -15.9840  -44.5850 C.3   135  VAL135      0.0019
     56  CG2      -20.0190  -15.8380  -42.4930 C.3   135  VAL135      0.0019
     57  N        -17.8130  -16.3650  -48.8970 N.3   137  TRP137     -0.1241
     58  CA       -16.6050  -15.6610  -49.3160 C.3   137  TRP137      0.1605
     59  C        -16.3380  -16.1150  -50.7480 C.2   137  TRP137      0.2264
     60  O        -15.9620  -17.2660  -50.9750 O.2   137  TRP137     -0.2867
     61  CB       -15.3980  -15.9780  -48.4280 C.3   137  TRP137      0.0550
     62  CG       -14.1090  -15.4070  -48.9890 C.ar  137  TRP137      0.0003
     63  CD1      -13.8350  -14.0900  -49.2320 C.ar  137  TRP137      0.0946
     64  CD2      -12.9400  -16.1390  -49.3950 C.ar  137  TRP137      0.0152
     65  NE1      -12.5650  -13.9550  -49.7500 N.ar  137  TRP137     -0.2442
     66  CE2      -11.9970  -15.1970  -49.8660 C.ar  137  TRP137      0.0810
     67  CE3      -12.5990  -17.4940  -49.4060 C.ar  137  TRP137      0.0012
     68  CZ2      -10.7400  -15.5680  -50.3420 C.ar  137  TRP137      0.0191
     69  CZ3      -11.3460  -17.8640  -49.8820 C.ar  137  TRP137      0.0001
     70  CH2      -10.4310  -16.9020  -50.3440 C.ar  137  TRP137      0.0015
     71  N        -18.6880  -11.8960  -47.2770 N.3   181  GLU181     -0.1245
     72  CA       -17.3590  -11.5100  -46.8180 C.3   181  GLU181      0.1567
     73  C        -16.5280  -10.9660  -47.9770 C.2   181  GLU181      0.2260
     74  O        -16.1150  -11.7220  -48.8530 O.2   181  GLU181     -0.2867
     75  CB       -16.6400  -12.7050  -46.2040 C.3   181  GLU181      0.0388
     76  CG       -15.2820  -12.3350  -45.6620 C.3   181  GLU181      0.1160
     77  CD       -14.6050  -13.4750  -44.9590 C.2   181  GLU181      0.3649
     78  OE1      -15.2510  -14.5230  -44.7540 O.co2 181  GLU181     -0.2457
     79  OE2      -13.4230  -13.3030  -44.5990 O.co2 181  GLU181     -0.2457
     80  N        -13.2750   -9.1680  -50.0680 N.3   183  LYS183     -0.1245
     81  CA       -11.8120   -9.2590  -50.1020 C.3   183  LYS183      0.1561
     82  C        -11.4290   -8.6630  -51.4450 C.2   183  LYS183      0.2260
     83  O        -12.0930   -8.9340  -52.4440 O.2   183  LYS183     -0.2867
     84  CB       -11.3250  -10.7080  -50.0010 C.3   183  LYS183      0.0271
     85  CG        -9.8270  -10.8170  -49.7920 C.3   183  LYS183      0.0035
     86  CD        -9.3790  -12.2640  -49.6870 C.3   183  LYS183      0.0206
     87  CE        -7.9020  -12.3780  -49.3400 C.3   183  LYS183      0.1093
     88  NZ        -7.4540  -13.8090  -49.3780 N.3   183  LYS183     -0.1314
     89  N        -19.8290   -9.7090  -43.5700 N.3   215  ASN215     -0.1240
     90  CA       -18.9050  -10.3170  -42.6250 C.3   215  ASN215      0.1653
     91  C        -17.5370   -9.7560  -42.9940 C.2   215  ASN215      0.2266
     92  O        -16.7630  -10.3980  -43.7040 O.2   215  ASN215     -0.2867
     93  CB       -18.8720  -11.8450  -42.7420 C.3   215  ASN215      0.1155
     94  CG       -17.8740  -12.4660  -41.7760 C.2   215  ASN215      0.2627
     95  OD1      -17.8320  -12.0970  -40.6070 O.2   215  ASN215     -0.2716
     96  ND2      -17.0680  -13.4070  -42.2540 N.am  215  ASN215     -0.0877
     97  N        -13.5980   -8.5020  -42.6740 N.3   217  GLU217     -0.1245
     98  CA       -12.3950   -9.0320  -42.0360 C.3   217  GLU217      0.1567
     99  C        -11.3680   -7.9050  -41.9790 C.2   217  GLU217      0.2260
    100  O        -11.1270   -7.2380  -42.9830 O.2   217  GLU217     -0.2867
    101  CB       -11.8210  -10.2120  -42.8240 C.3   217  GLU217      0.0388
    102  CG       -10.5330  -10.7590  -42.2130 C.3   217  GLU217      0.1160
    103  CD       -10.1030  -12.0710  -42.8350 C.2   217  GLU217      0.3649
    104  OE1      -10.9140  -13.0040  -42.8360 O.co2 217  GLU217     -0.2457
    105  OE2       -8.9570  -12.1680  -43.3000 O.co2 217  GLU217     -0.2457
    106  N         -8.6340   -7.8420  -44.7350 N.3   220  HIS220     -0.1241
    107  CA        -9.1230   -7.6440  -46.0960 C.3   220  HIS220      0.1621
    108  C         -9.2890   -6.1760  -46.4590 C.2   220  HIS220      0.2264
    109  O         -8.8650   -5.7530  -47.5290 O.2   220  HIS220     -0.2867
    110  CB       -10.4260   -8.3960  -46.3330 C.3   220  HIS220      0.0745
    111  CG       -10.2800   -9.8830  -46.2580 C.ar  220  HIS220      0.0817
    112  ND1      -11.3330  -10.7400  -46.4860 N.ar  220  HIS220     -0.2268
    113  CD2       -9.2120  -10.6640  -45.9700 C.ar  220  HIS220      0.1154
    114  CE1      -10.9240  -11.9870  -46.3380 C.ar  220  HIS220      0.1986
    115  NE2       -9.6400  -11.9690  -46.0280 N.ar  220  HIS220     -0.2212
    116  N        -14.8850  -10.9000  -38.8110 N.3   245  ASP245     -0.1239
    117  CA       -13.6690  -11.7230  -38.7910 C.3   245  ASP245      0.1674
    118  C        -12.5210  -10.8670  -38.2770 C.2   245  ASP245      0.2266
    119  O        -12.1590   -9.8650  -38.8880 O.2   245  ASP245     -0.2867
    120  CB       -13.3120  -12.2460  -40.1870 C.3   245  ASP245      0.1410
    121  CG       -14.0540  -13.5200  -40.5520 C.2   245  ASP245      0.3668
    122  OD1      -14.9900  -13.9130  -39.8270 O.co2 245  ASP245     -0.2456
    123  OD2      -13.7120  -14.1150  -41.5910 O.co2 245  ASP245     -0.2456
    124  N         -2.4390  -11.4190  -47.9290 N.3   255  ASP255     -0.1239
    125  CA        -3.2980  -11.6060  -46.7440 C.3   255  ASP255      0.1674
    126  C         -2.5220  -12.4280  -45.7000 C.2   255  ASP255      0.2266
    127  O         -2.2780  -13.6080  -45.8960 O.2   255  ASP255     -0.2867
    128  CB        -4.5680  -12.3450  -47.2090 C.3   255  ASP255      0.1410
    129  CG        -5.6140  -12.5040  -46.1160 C.2   255  ASP255      0.3668
    130  OD1       -5.8420  -11.5480  -45.3400 O.co2 255  ASP255     -0.2456
    131  OD2       -6.2550  -13.5820  -46.0710 O.co2 255  ASP255     -0.2456
    132  N         -3.2490  -12.7620  -42.2290 N.3   257  ASP257     -0.1239
    133  CA        -4.0750  -13.4080  -41.2200 C.3   257  ASP257      0.1674
    134  C         -3.2990  -13.6170  -39.9200 C.2   257  ASP257      0.2266
    135  O         -3.3240  -14.6990  -39.3420 O.2   257  ASP257     -0.2867
    136  CB        -4.6380  -14.7390  -41.7220 C.3   257  ASP257      0.1410
    137  CG        -5.6640  -14.5650  -42.8210 C.2   257  ASP257      0.3668
    138  OD1       -6.0420  -13.4150  -43.1520 O.co2 257  ASP257     -0.2456
    139  OD2       -6.1110  -15.6000  -43.3480 O.co2 257  ASP257     -0.2456
    140  N        -10.3800  -15.2060  -37.6300 N.3   287  ASP287     -0.1239
    141  CA       -10.0290  -15.8990  -38.8530 C.3   287  ASP287      0.1674
    142  C         -8.5710  -15.5570  -39.0290 C.2   287  ASP287      0.2266
    143  O         -8.2240  -14.5330  -39.6160 O.2   287  ASP287     -0.2867
    144  CB       -10.8490  -15.4050  -40.0430 C.3   287  ASP287      0.1410
    145  CG       -10.5920  -16.2140  -41.2960 C.2   287  ASP287      0.3668
    146  OD1       -9.7550  -17.1370  -41.2500 O.co2 287  ASP287     -0.2456
    147  OD2      -11.2030  -15.9090  -42.3420 O.co2 287  ASP287     -0.2456
    148  N         -4.2520  -17.2860  -39.0130 N.3   289  LYS289     -0.1245
    149  CA        -3.4030  -18.4320  -39.2800 C.3   289  LYS289      0.1561
    150  C         -2.1540  -18.3670  -38.4100 C.2   289  LYS289      0.2260
    151  O         -1.3340  -17.4590  -38.5540 O.2   289  LYS289     -0.2867
    152  CB        -2.9900  -18.4520  -40.7540 C.3   289  LYS289      0.0271
    153  CG        -4.1300  -18.7440  -41.7210 C.3   289  LYS289      0.0035
    154  CD        -3.6930  -18.5340  -43.1660 C.3   289  LYS289      0.0206
    155  CE        -4.7480  -19.0450  -44.1520 C.3   289  LYS289      0.1093
    156  NZ        -6.0720  -18.3170  -44.0750 N.3   289  LYS289     -0.1314
@<TRIPOS>BOND
     1    42    41    2
     2    41    40    1
     3    40    39    1
     4    40    43    1
     5    43    44    1
     6    83    82    2
     7    82    81    1
     8    44    45   ar
     9    44    46   ar
    10    60    59    2
    11    59    58    1
    12    45    47   ar
    13    46    48   ar
    14    70    68   ar
    15    70    69   ar
    16    68    66   ar
    17    81    80    1
    18    81    84    1
    19    84    85    1
    20    38    36    1
    21    69    67   ar
    22    66    65   ar
    23    66    64   ar
    24    85    86    1
    25    65    63   ar
    26    86    87    1
    27    67    64   ar
    28    64    62   ar
    29    88    87    1
    30    47    49   ar
    31    58    57    1
    32    58    61    1
    33    63    62   ar
    34    48    49   ar
    35    36    37    1
    36    36    33    1
    37    62    61    1
    38    74    73    2
    39    35    34    2
    40    34    33    1
    41    73    72    1
    42    33    32    1
    43   124   125    1
    44   109   108    2
    45    71    72    1
    46   128   125    1
    47   128   129    1
    48    32    27   am
    49    72    75    1
    50   125   126    1
    51   112   114   ar
    52   112   111   ar
    53   108   107    1
    54   114   115   ar
    55   110   111    1
    56   110   107    1
    57   111   113   ar
    58    53    52    2
    59    75    76    1
    60   129   131   ar
    61   129   130   ar
    62   107   106    1
    63   115   113   ar
    64    52    51    1
    65    30    29    1
    66   127   126    2
    67    22    24   ar
    68    22    20   ar
    69    76    77    1
    70    27    28    2
    71    27    26    1
    72    24    23   ar
    73    19    20    1
    74    19    16    1
    75    20    21   ar
    76    77    78   ar
    77    77    79   ar
    78    26    29    1
    79    26    25    1
    80    29    31    1
    81    51    50    1
    82    51    54    1
    83    55    54    1
    84    23    21   ar
    85    17    16    1
    86    17    18    2
    87   155   156    1
    88   155   154    1
    89    16    15    1
    90    54    56    1
    91    92    91    2
    92    89    90    1
    93   139   137   ar
    94   105   103   ar
    95   154   153    1
    96   138   137   ar
    97    91    90    1
    98   100    99    2
    99   104   103   ar
   100   103   102    1
   101   101   102    1
   102   101    98    1
   103   137   136    1
   104    93    90    1
   105    93    94    1
   106    97    98    1
   107   147   145   ar
   108    96    94   am
   109   132   133    1
   110    98    99    1
   111     7     9   ar
   112     7     6   ar
   113     5     6    1
   114     5     2    1
   115    94    95    2
   116     9    10   ar
   117     6     8   ar
   118   136   133    1
   119   153   152    1
   120   123   121   ar
   121    10     8   ar
   122    10    12   ar
   123     8    11   ar
   124   145   146   ar
   125   145   144    1
   126   133   134    1
   127    12    14   ar
   128    11    13   ar
   129    14    13   ar
   130   152   149    1
   131     4     3    2
   132   121   120    1
   133   121   122   ar
   134     2     3    1
   135     2     1    1
   136   120   117    1
   137   144   141    1
   138   134   135    2
   139   143   142    2
   140   149   148    1
   141   149   150    1
   142   142   141    1
   143   119   118    2
   144   141   140    1
   145   116   117    1
   146   117   118    1
   147   151   150    2
