@<TRIPOS>MOLECULE
tmp/4qe1A00.pdb
 157 149 0 0 0
SMALL
GASTEIGER

@<TRIPOS>ATOM
      1  N        -10.4000  -24.1300  -39.5020 N.3    16  TRP16      -0.1241
      2  CA        -9.3000  -23.9840  -40.4510 C.3    16  TRP16       0.1605
      3  C         -8.2200  -23.0600  -39.9300 C.2    16  TRP16       0.2264
      4  O         -7.2230  -22.8730  -40.6590 O.2    16  TRP16      -0.2867
      5  CB        -9.8590  -23.4110  -41.7700 C.3    16  TRP16       0.0550
      6  CG       -10.4110  -22.0100  -41.6460 C.ar   16  TRP16       0.0003
      7  CD1       -9.6880  -20.8440  -41.8440 C.ar   16  TRP16       0.0946
      8  CD2      -11.7210  -21.5800  -41.3150 C.ar   16  TRP16       0.0152
      9  NE1      -10.4690  -19.7390  -41.6520 N.ar   16  TRP16      -0.2442
     10  CE2      -11.7380  -20.1670  -41.3270 C.ar   16  TRP16       0.0810
     11  CE3      -12.9340  -22.2350  -41.0000 C.ar   16  TRP16       0.0012
     12  CZ2      -12.8760  -19.4250  -41.0440 C.ar   16  TRP16       0.0191
     13  CZ3      -14.0740  -21.4880  -40.7200 C.ar   16  TRP16       0.0001
     14  CH2      -14.0450  -20.0840  -40.7450 C.ar   16  TRP16       0.0015
     15  N        -15.9860  -24.5660  -42.6650 N.3    54  HIS54      -0.1241
     16  CA       -16.4300  -24.8230  -44.0270 C.3    54  HIS54       0.1621
     17  C        -16.8600  -26.2800  -44.1370 C.2    54  HIS54       0.2264
     18  O        -16.2840  -27.1000  -43.4040 O.2    54  HIS54      -0.2867
     19  CB       -15.2620  -24.6890  -45.0230 C.3    54  HIS54       0.0745
     20  CG       -14.6340  -23.3160  -45.0180 C.ar   54  HIS54       0.0817
     21  ND1      -13.6970  -22.9210  -44.1060 N.ar   54  HIS54      -0.2268
     22  CD2      -14.7870  -22.2680  -45.8720 C.ar   54  HIS54       0.1154
     23  CE1      -13.3110  -21.6760  -44.3690 C.ar   54  HIS54       0.1986
     24  NE2      -13.9650  -21.2450  -45.4380 N.ar   54  HIS54      -0.2212
     25  N        -19.9420  -22.0990  -43.3120 N.3    90  THR90      -0.1203
     26  CA       -19.7260  -21.5410  -44.6530 C.3    90  THR90       0.1994
     27  C        -19.3840  -22.6660  -45.5980 C.2    90  THR90       0.2618
     28  O        -19.2700  -23.8170  -45.1780 O.2    90  THR90      -0.2717
     29  CB       -18.6540  -20.4300  -44.5530 C.3    90  THR90       0.1784
     30  OG1      -18.4260  -19.8260  -45.8430 O.3    90  THR90      -0.2211
     31  CG2      -17.3070  -20.9280  -44.0730 C.3    90  THR90       0.0376
     32  N        -19.2530  -22.3750  -46.8890 N.am   91  THR91      -0.1952
     33  CA       -18.9720  -23.3860  -47.8950 C.3    91  THR91       0.1897
     34  C        -17.5690  -23.1990  -48.4670 C.2    91  THR91       0.2313
     35  O        -17.1890  -22.0260  -48.6500 O.2    91  THR91      -0.2863
     36  CB       -19.8830  -23.2220  -49.1200 C.3    91  THR91       0.1794
     37  OG1      -21.1850  -22.8090  -48.6890 O.3    91  THR91      -0.2208
     38  CG2      -20.0370  -24.5260  -49.8890 C.3    91  THR91       0.0378
     39  N        -13.6040  -22.6940  -53.0570 N.3    94  PHE94      -0.1241
     40  CA       -12.3390  -22.1260  -53.5770 C.3    94  PHE94       0.1605
     41  C        -11.2250  -23.1350  -53.6730 C.2    94  PHE94       0.2264
     42  O        -10.2730  -22.9430  -54.4480 O.2    94  PHE94      -0.2867
     43  CB       -11.8940  -20.9110  -52.7190 C.3    94  PHE94       0.0534
     44  CG       -11.8700  -21.1430  -51.2030 C.ar   94  PHE94      -0.0203
     45  CD1      -10.7600  -21.6510  -50.5680 C.ar   94  PHE94      -0.0042
     46  CD2      -12.9810  -20.8270  -50.4260 C.ar   94  PHE94      -0.0042
     47  CE1      -10.6820  -21.8630  -49.2020 C.ar   94  PHE94      -0.0003
     48  CE2      -12.9670  -21.0690  -49.0590 C.ar   94  PHE94      -0.0003
     49  CZ       -11.8400  -21.5910  -48.4730 C.ar   94  PHE94      -0.0000
     50  N        -21.8570  -17.6980  -43.8320 N.3   135  VAL135     -0.1245
     51  CA       -20.9470  -16.7500  -44.5230 C.3   135  VAL135      0.1561
     52  C        -20.6520  -17.1850  -45.9440 C.2   135  VAL135      0.2260
     53  O        -20.5860  -18.3770  -46.2440 O.2   135  VAL135     -0.2867
     54  CB       -19.6540  -16.6540  -43.7070 C.3   135  VAL135      0.0252
     55  CG1      -18.5150  -16.0820  -44.5460 C.3   135  VAL135      0.0019
     56  CG2      -19.8720  -15.7840  -42.4670 C.3   135  VAL135      0.0019
     57  N        -17.6660  -16.3270  -48.7750 N.3   137  TRP137     -0.1241
     58  CA       -16.4910  -15.5980  -49.2410 C.3   137  TRP137      0.1605
     59  C        -16.2460  -16.0500  -50.6950 C.2   137  TRP137      0.2264
     60  O        -15.8560  -17.2040  -50.8680 O.2   137  TRP137     -0.2867
     61  CB       -15.2740  -15.9090  -48.3940 C.3   137  TRP137      0.0550
     62  CG       -14.0170  -15.3390  -49.0160 C.ar  137  TRP137      0.0003
     63  CD1      -13.7750  -14.0390  -49.3230 C.ar  137  TRP137      0.0946
     64  CD2      -12.8330  -16.0640  -49.4110 C.ar  137  TRP137      0.0152
     65  NE1      -12.4980  -13.9060  -49.8850 N.ar  137  TRP137     -0.2442
     66  CE2      -11.9110  -15.1420  -49.9430 C.ar  137  TRP137      0.0810
     67  CE3      -12.4830  -17.4130  -49.3460 C.ar  137  TRP137      0.0012
     68  CZ2      -10.6530  -15.5060  -50.4210 C.ar  137  TRP137      0.0191
     69  CZ3      -11.2380  -17.7610  -49.8230 C.ar  137  TRP137      0.0001
     70  CH2      -10.3270  -16.8480  -50.3500 C.ar  137  TRP137      0.0015
     71  N        -18.5770  -11.8920  -47.2290 N.3   181  GLU181     -0.1245
     72  CA       -17.2650  -11.4630  -46.7550 C.3   181  GLU181      0.1567
     73  C        -16.4580  -10.8870  -47.9150 C.2   181  GLU181      0.2260
     74  O        -16.1220  -11.6610  -48.8210 O.2   181  GLU181     -0.2867
     75  CB       -16.4930  -12.6870  -46.2370 C.3   181  GLU181      0.0388
     76  CG       -15.1290  -12.2240  -45.6930 C.3   181  GLU181      0.1160
     77  CD       -14.4470  -13.3250  -44.9090 C.2   181  GLU181      0.3649
     78  OE1      -15.0190  -14.3820  -44.6010 O.co2 181  GLU181     -0.2457
     79  OE2      -13.2570  -13.0610  -44.6320 O.co2 181  GLU181     -0.2457
     80  N        -13.2290   -9.1950  -50.0660 N.3   183  LYS183     -0.1245
     81  CA       -11.7440   -9.2480  -50.0430 C.3   183  LYS183      0.1561
     82  C        -11.3040   -8.6210  -51.3430 C.2   183  LYS183      0.2260
     83  O        -11.9580   -8.9130  -52.3610 O.2   183  LYS183     -0.2867
     84  CB       -11.2440  -10.6980  -49.9640 C.3   183  LYS183      0.0271
     85  CG        -9.7010  -10.7490  -49.7900 C.3   183  LYS183      0.0035
     86  CD        -9.2420  -12.2210  -49.7340 C.3   183  LYS183      0.0206
     87  CE        -7.7480  -12.2570  -49.3310 C.3   183  LYS183      0.1093
     88  NZ        -7.3120  -13.7020  -49.3230 N.3   183  LYS183     -0.1314
     89  N        -19.7990   -9.7550  -43.5150 N.3   215  ASN215     -0.1240
     90  CA       -18.8690  -10.3430  -42.5660 C.3   215  ASN215      0.1653
     91  C        -17.4990   -9.7440  -42.9210 C.2   215  ASN215      0.2266
     92  O        -16.7080  -10.3600  -43.6320 O.2   215  ASN215     -0.2867
     93  CB       -18.8210  -11.8630  -42.7300 C.3   215  ASN215      0.1155
     94  CG       -17.8080  -12.4930  -41.7790 C.2   215  ASN215      0.2627
     95  OD1      -17.8170  -12.1630  -40.5870 O.2   215  ASN215     -0.2716
     96  ND2      -16.9180  -13.3630  -42.2520 N.am  215  ASN215     -0.0877
     97  N        -13.5900   -8.5180  -42.6820 N.3   217  GLU217     -0.1245
     98  CA       -12.4160   -9.0360  -41.9930 C.3   217  GLU217      0.1567
     99  C        -11.3730   -7.9310  -41.8740 C.2   217  GLU217      0.2260
    100  O        -11.1460   -7.2570  -42.9020 O.2   217  GLU217     -0.2867
    101  CB       -11.7660  -10.1800  -42.8250 C.3   217  GLU217      0.0388
    102  CG       -10.5250  -10.7650  -42.1260 C.3   217  GLU217      0.1160
    103  CD        -9.8150  -11.8160  -42.9620 C.2   217  GLU217      0.3649
    104  OE1      -10.3600  -12.8510  -43.3200 O.co2 217  GLU217     -0.2457
    105  OE2       -8.6320  -11.6080  -43.3080 O.co2 217  GLU217     -0.2457
    106  N         -8.6670   -7.8370  -44.6010 N.3   220  HIS220     -0.1241
    107  CA        -9.0430   -7.6770  -46.0030 C.3   220  HIS220      0.1621
    108  C         -9.2390   -6.2100  -46.3510 C.2   220  HIS220      0.2264
    109  O         -8.8140   -5.7500  -47.4300 O.2   220  HIS220     -0.2867
    110  CB       -10.3520   -8.4400  -46.2860 C.3   220  HIS220      0.0745
    111  CG       -10.0890   -9.9310  -46.2680 C.ar  220  HIS220      0.0817
    112  ND1      -11.1470  -10.8290  -46.4230 N.ar  220  HIS220     -0.2268
    113  CD2       -8.9670  -10.6630  -46.0890 C.ar  220  HIS220      0.1154
    114  CE1      -10.6630  -12.0610  -46.3610 C.ar  220  HIS220      0.1986
    115  NE2       -9.3400  -11.9910  -46.1580 N.ar  220  HIS220     -0.2212
    116  N        -14.8490  -10.8410  -38.7230 N.3   245  ASP245     -0.1239
    117  CA       -13.6670  -11.6800  -38.6440 C.3   245  ASP245      0.1674
    118  C        -12.5110  -10.8390  -38.1080 C.2   245  ASP245      0.2266
    119  O        -12.1420   -9.8380  -38.7610 O.2   245  ASP245     -0.2867
    120  CB       -13.2130  -12.2070  -40.0040 C.3   245  ASP245      0.1410
    121  CG       -13.8580  -13.4810  -40.4860 C.2   245  ASP245      0.3668
    122  OD1      -14.7500  -14.0070  -39.8070 O.co2 245  ASP245     -0.2456
    123  OD2      -13.4720  -13.9370  -41.5880 O.co2 245  ASP245     -0.2456
    124  N         -2.4850  -11.6240  -48.0220 N.3   255  ASP255     -0.1239
    125  CA        -3.3590  -11.7520  -46.8270 C.3   255  ASP255      0.1674
    126  C         -2.6370  -12.4820  -45.7140 C.2   255  ASP255      0.2266
    127  O         -2.4400  -13.6990  -45.8160 O.2   255  ASP255     -0.2867
    128  CB        -4.6170  -12.4840  -47.3470 C.3   255  ASP255      0.1410
    129  CG        -5.6940  -12.7090  -46.3040 C.2   255  ASP255      0.3668
    130  OD1       -5.9330  -11.9480  -45.3700 O.co2 255  ASP255     -0.2456
    131  OD2       -6.3970  -13.7150  -46.4470 O.co2 255  ASP255     -0.2456
    132  N         -3.4030  -12.7820  -42.2210 N.3   257  ASP257     -0.1239
    133  CA        -4.1660  -13.4720  -41.1990 C.3   257  ASP257      0.1674
    134  C         -3.3730  -13.6420  -39.9140 C.2   257  ASP257      0.2266
    135  O         -3.3200  -14.7310  -39.3410 O.2   257  ASP257     -0.2867
    136  CB        -4.6230  -14.8300  -41.7360 C.3   257  ASP257      0.1410
    137  CG        -5.7180  -14.6960  -42.7830 C.2   257  ASP257      0.3668
    138  OD1       -6.4360  -13.6890  -43.0070 O.co2 257  ASP257     -0.2456
    139  OD2       -5.9440  -15.7160  -43.4990 O.co2 257  ASP257     -0.2456
    140  N        -15.2850  -13.4720  -33.8190 N.3   285  HIS285     -0.1241
    141  CA       -14.6720  -14.5830  -34.5150 C.3   285  HIS285      0.1621
    142  C        -13.2710  -14.2520  -35.0230 C.2   285  HIS285      0.2264
    143  O        -13.0410  -13.1810  -35.5650 O.2   285  HIS285     -0.2867
    144  CB       -15.5740  -14.9070  -35.7090 C.3   285  HIS285      0.0745
    145  CG       -15.1550  -16.1040  -36.5120 C.ar  285  HIS285      0.0817
    146  ND1      -14.6860  -15.9840  -37.8040 N.ar  285  HIS285     -0.2268
    147  CD2      -15.1740  -17.4250  -36.2360 C.ar  285  HIS285      0.1154
    148  CE1      -14.4240  -17.2000  -38.2900 C.ar  285  HIS285      0.1986
    149  NE2      -14.6980  -18.0970  -37.3400 N.ar  285  HIS285     -0.2212
    150  N        -10.4170  -15.1960  -37.6390 N.3   287  ASP287     -0.1239
    151  CA       -10.0040  -15.8700  -38.8670 C.3   287  ASP287      0.1674
    152  C         -8.5010  -15.5830  -38.9450 C.2   287  ASP287      0.2266
    153  O         -8.1470  -14.5360  -39.4500 O.2   287  ASP287     -0.2867
    154  CB       -10.7460  -15.3370  -40.0790 C.3   287  ASP287      0.1410
    155  CG       -10.2660  -16.0220  -41.3460 C.2   287  ASP287      0.3668
    156  OD1       -9.5350  -17.0360  -41.1920 O.co2 287  ASP287     -0.2456
    157  OD2      -10.6230  -15.5730  -42.4600 O.co2 287  ASP287     -0.2456
@<TRIPOS>BOND
     1    42    41    2
     2    41    40    1
     3    40    39    1
     4    40    43    1
     5    43    44    1
     6    83    82    2
     7    82    81    1
     8    44    45   ar
     9    44    46   ar
    10    60    59    2
    11    59    58    1
    12    45    47   ar
    13    46    48   ar
    14    68    70   ar
    15    68    66   ar
    16    70    69   ar
    17    80    81    1
    18    81    84    1
    19    84    85    1
    20    66    65   ar
    21    66    64   ar
    22    38    36    1
    23    65    63   ar
    24    69    67   ar
    25    85    86    1
    26    86    87    1
    27    64    67   ar
    28    64    62   ar
    29    87    88    1
    30    63    62   ar
    31    58    57    1
    32    58    61    1
    33    47    49   ar
    34    36    37    1
    35    36    33    1
    36    48    49   ar
    37    62    61    1
    38    74    73    2
    39    35    34    2
    40    34    33    1
    41   124   125    1
    42    73    72    1
    43    33    32    1
    44   109   108    2
    45   128   125    1
    46   128   129    1
    47    71    72    1
    48    32    27   am
    49   125   126    1
    50    72    75    1
    51   131   129   ar
    52   112   114   ar
    53   112   111   ar
    54   114   115   ar
    55   108   107    1
    56   129   130   ar
    57   110   111    1
    58   110   107    1
    59   111   113   ar
    60    53    52    2
    61    75    76    1
    62   115   113   ar
    63   107   106    1
    64    52    51    1
    65    22    24   ar
    66    22    20   ar
    67    30    29    1
    68   127   126    2
    69    76    77    1
    70    27    28    2
    71    27    26    1
    72    24    23   ar
    73    19    20    1
    74    19    16    1
    75    20    21   ar
    76    77    79   ar
    77    77    78   ar
    78    26    29    1
    79    26    25    1
    80    29    31    1
    81    55    54    1
    82    51    50    1
    83    51    54    1
    84    23    21   ar
    85    17    16    1
    86    17    18    2
    87    16    15    1
    88    54    56    1
    89    92    91    2
    90    89    90    1
    91   139   137   ar
    92   104   103   ar
    93   105   103   ar
    94   138   137   ar
    95   103   102    1
    96    91    90    1
    97   100    99    2
    98   101   102    1
    99   101    98    1
   100   137   136    1
   101    93    90    1
   102    93    94    1
   103    97    98    1
   104   157   155   ar
   105    96    94   am
   106   132   133    1
   107    98    99    1
   108     7     9   ar
   109     7     6   ar
   110    94    95    2
   111     5     6    1
   112     5     2    1
   113   136   133    1
   114     9    10   ar
   115     6     8   ar
   116   123   121   ar
   117   155   156   ar
   118   155   154    1
   119    10     8   ar
   120    10    12   ar
   121     8    11   ar
   122   133   134    1
   123    12    14   ar
   124    11    13   ar
   125    14    13   ar
   126     4     3    2
   127   121   120    1
   128   121   122   ar
   129     2     3    1
   130     2     1    1
   131   154   151    1
   132   120   117    1
   133   134   135    2
   134   153   152    2
   135   152   151    1
   136   151   150    1
   137   119   118    2
   138   116   117    1
   139   117   118    1
   140   148   146   ar
   141   148   149   ar
   142   146   145   ar
   143   149   147   ar
   144   145   147   ar
   145   145   144    1
   146   144   141    1
   147   143   142    2
   148   142   141    1
   149   141   140    1
