@<TRIPOS>MOLECULE
tmp/4qe8B00.pdb
 240 232 0 0 0
SMALL
GASTEIGER

@<TRIPOS>ATOM
      1  N        -23.5870   21.2450   -8.9600 N.3    23  MET23      -0.1245
      2  CA       -22.8400   22.2780   -8.2690 C.3    23  MET23       0.1570
      3  C        -23.6090   22.6870   -7.0280 C.2    23  MET23       0.2261
      4  O        -24.7880   23.0450   -7.1110 O.2    23  MET23      -0.2867
      5  CB       -22.6150   23.4830   -9.1790 C.3    23  MET23       0.0387
      6  CG       -21.1880   24.0010   -9.1720 C.3    23  MET23       0.0595
      7  SD       -21.0080   25.5430  -10.0850 S.3    23  MET23      -0.1393
      8  CE       -22.6470   26.2440   -9.9100 C.3    23  MET23       0.0692
      9  N        -10.5150   34.0300   -5.9270 N.3    42  PHE42      -0.1241
     10  CA        -9.6330   32.8720   -5.9350 C.3    42  PHE42       0.1605
     11  C        -10.2200   31.7720   -5.0650 C.2    42  PHE42       0.2264
     12  O        -10.1650   30.5960   -5.4140 O.2    42  PHE42      -0.2867
     13  CB        -8.2450   33.2660   -5.4230 C.3    42  PHE42       0.0534
     14  CG        -7.2780   32.1200   -5.3300 C.ar   42  PHE42      -0.0203
     15  CD1       -6.5670   31.7020   -6.4410 C.ar   42  PHE42      -0.0042
     16  CD2       -7.0710   31.4690   -4.1290 C.ar   42  PHE42      -0.0042
     17  CE1       -5.6750   30.6520   -6.3570 C.ar   42  PHE42      -0.0003
     18  CE2       -6.1800   30.4180   -4.0380 C.ar   42  PHE42      -0.0003
     19  CZ        -5.4810   30.0080   -5.1540 C.ar   42  PHE42      -0.0000
     20  N        -13.1430   29.9130   -6.7800 N.3    45  LEU45      -0.1231
     21  CA       -12.6090   28.9880   -7.7680 C.3    45  LEU45       0.1693
     22  C        -12.0240   27.7450   -7.1060 C.2    45  LEU45       0.2592
     23  O        -12.1880   26.6310   -7.5990 O.2    45  LEU45      -0.2718
     24  CB       -11.5510   29.6800   -8.6260 C.3    45  LEU45       0.0284
     25  CG       -11.9810   30.9910   -9.2820 C.3    45  LEU45       0.0019
     26  CD1      -11.0330   31.3600  -10.4100 C.3    45  LEU45       0.0001
     27  CD2      -13.4100   30.8940   -9.7890 C.3    45  LEU45       0.0001
     28  N        -11.3240   27.9490   -5.9970 N.am   46  THR46      -0.1953
     29  CA       -10.7180   26.8490   -5.2590 C.3    46  THR46       0.1897
     30  C        -11.7980   25.9150   -4.7320 C.2    46  THR46       0.2313
     31  O        -11.6480   24.6970   -4.7650 O.2    46  THR46      -0.2863
     32  CB        -9.8500   27.3630   -4.0950 C.3    46  THR46       0.1794
     33  OG1       -8.6940   28.0280   -4.6180 O.3    46  THR46      -0.2208
     34  CG2       -9.4010   26.2170   -3.2100 C.3    46  THR46       0.0378
     35  N        -14.7610   25.4920   -6.0400 N.3    48  MET48      -0.1230
     36  CA       -15.3270   24.8030   -7.1920 C.3    48  MET48       0.1702
     37  C        -14.4490   23.6350   -7.6230 C.2    48  MET48       0.2592
     38  O        -14.9470   22.5590   -7.9410 O.2    48  MET48      -0.2718
     39  CB       -15.5210   25.7760   -8.3550 C.3    48  MET48       0.0401
     40  CG       -16.7190   26.6960   -8.1970 C.3    48  MET48       0.0596
     41  SD       -16.7010   28.0810   -9.3490 S.3    48  MET48      -0.1393
     42  CE       -17.4020   27.3180  -10.8070 C.3    48  MET48       0.0692
     43  N        -13.1410   23.8570   -7.6420 N.am   49  ALA49      -0.1980
     44  CA       -12.2050   22.8020   -7.9980 C.3    49  ALA49       0.1597
     45  C        -12.2560   21.6580   -6.9900 C.2    49  ALA49       0.2287
     46  O        -12.2110   20.4880   -7.3650 O.2    49  ALA49      -0.2864
     47  CB       -10.7940   23.3580   -8.1070 C.3    49  ALA49       0.0319
     48  N        -14.8270   20.8870   -5.0720 N.3    51  ASN51      -0.1225
     49  CA       -16.1010   20.2180   -5.2710 C.3    51  ASN51       0.1785
     50  C        -16.0150   19.2960   -6.4770 C.2    51  ASN51       0.2597
     51  O        -16.5500   18.1900   -6.4660 O.2    51  ASN51      -0.2718
     52  CB       -17.2270   21.2340   -5.4510 C.3    51  ASN51       0.1169
     53  CG       -17.7330   21.7830   -4.1310 C.2    51  ASN51       0.2627
     54  OD1      -18.3640   22.8370   -4.0860 O.2    51  ASN51      -0.2716
     55  ND2      -17.4570   21.0680   -3.0480 N.am   51  ASN51      -0.0877
     56  N        -15.3350   19.7650   -7.5190 N.am   52  HIS52      -0.1975
     57  CA       -15.1780   18.9970   -8.7450 C.3    52  HIS52       0.1656
     58  C        -14.4060   17.7070   -8.4910 C.2    52  HIS52       0.2291
     59  O        -14.7480   16.6590   -9.0310 O.2    52  HIS52      -0.2864
     60  CB       -14.4880   19.8420   -9.8240 C.3    52  HIS52       0.0771
     61  CG       -13.9450   19.0420  -10.9680 C.ar   52  HIS52       0.0820
     62  ND1      -12.7780   18.3160  -10.8770 N.ar   52  HIS52      -0.2267
     63  CD2      -14.4150   18.8430  -12.2210 C.ar   52  HIS52       0.1154
     64  CE1      -12.5500   17.7080  -12.0270 C.ar   52  HIS52       0.1986
     65  NE2      -13.5280   18.0120  -12.8590 N.ar   52  HIS52      -0.2212
     66  N        -11.0070   18.5000  -14.9040 N.3    86  MET86      -0.1230
     67  CA       -11.5380   19.7250  -14.3280 C.3    86  MET86       0.1702
     68  C        -11.8920   20.7370  -15.4090 C.2    86  MET86       0.2592
     69  O        -12.9420   21.3720  -15.3540 O.2    86  MET86      -0.2718
     70  CB       -10.5160   20.3290  -13.3600 C.3    86  MET86       0.0401
     71  CG       -10.8840   21.7020  -12.8230 C.3    86  MET86       0.0596
     72  SD        -9.4830   22.5740  -12.0960 S.3    86  MET86      -0.1393
     73  CE        -8.3130   22.5350  -13.4480 C.3    86  MET86       0.0692
     74  N        -10.9900   20.9130  -16.3670 N.am   87  PHE87      -0.1976
     75  CA       -11.2240   21.8320  -17.4730 C.3    87  PHE87       0.1639
     76  C        -12.3900   21.4100  -18.3610 C.2    87  PHE87       0.2290
     77  O        -13.1860   22.2450  -18.7850 O.2    87  PHE87      -0.2864
     78  CB        -9.9520   22.0100  -18.3000 C.3    87  PHE87       0.0560
     79  CG        -9.0110   23.0360  -17.7410 C.ar   87  PHE87      -0.0200
     80  CD1       -9.3490   24.3760  -17.7460 C.ar   87  PHE87      -0.0042
     81  CD2       -7.7960   22.6590  -17.2040 C.ar   87  PHE87      -0.0042
     82  CE1       -8.4890   25.3240  -17.2300 C.ar   87  PHE87      -0.0003
     83  CE2       -6.9310   23.6020  -16.6860 C.ar   87  PHE87      -0.0003
     84  CZ        -7.2780   24.9360  -16.6990 C.ar   87  PHE87      -0.0000
     85  N        -15.0130   19.5010  -17.5050 N.3    89  ARG89      -0.1231
     86  CA       -16.2440   19.6950  -16.7490 C.3    89  ARG89       0.1694
     87  C        -16.5610   21.1820  -16.6240 C.2    89  ARG89       0.2592
     88  O        -17.7260   21.5810  -16.5910 O.2    89  ARG89      -0.2718
     89  CB       -16.1290   19.0610  -15.3620 C.3    89  ARG89       0.0321
     90  CG       -17.2300   19.4730  -14.3980 C.3    89  ARG89       0.0489
     91  CD       -18.5900   18.9900  -14.8740 C.3    89  ARG89       0.2205
     92  NE       -19.6710   19.4640  -14.0140 N.pl3  89  ARG89      -0.0865
     93  CZ       -20.9520   19.1550  -14.1860 C.cat  89  ARG89       0.5346
     94  NH1      -21.3180   18.3700  -15.1890 N.pl3  89  ARG89       0.1354
     95  NH2      -21.8680   19.6310  -13.3540 N.pl3  89  ARG89       0.1354
     96  N        -15.5130   21.9970  -16.5560 N.am   90  SER90      -0.1952
     97  CA       -15.6570   23.4410  -16.4610 C.3    90  SER90       0.1924
     98  C        -16.2770   23.9990  -17.7340 C.2    90  SER90       0.2314
     99  O        -17.0550   24.9490  -17.6920 O.2    90  SER90      -0.2863
    100  CB       -14.3010   24.0960  -16.2010 C.3    90  SER90       0.2116
    101  OG       -14.3180   25.4590  -16.5750 O.3    90  SER90      -0.2180
    102  N        -19.8010   23.9850  -18.2330 N.3    93  ILE93      -0.1245
    103  CA       -20.3900   25.0850  -17.4770 C.3    93  ILE93       0.1561
    104  C        -21.3940   25.8850  -18.3030 C.2    93  ILE93       0.2260
    105  O        -22.4730   26.2150  -17.8140 O.2    93  ILE93      -0.2867
    106  CB       -19.3090   26.0240  -16.9020 C.3    93  ILE93       0.0252
    107  CG1      -18.4730   25.2860  -15.8580 C.3    93  ILE93       0.0019
    108  CG2      -19.9380   27.2580  -16.2690 C.3    93  ILE93       0.0019
    109  CD1      -19.2810   24.7840  -14.6810 C.3    93  ILE93       0.0001
    110  N        -13.0240   34.8110  -12.6860 N.3   108  ILE108     -0.1245
    111  CA       -11.8550   34.0830  -13.1590 C.3   108  ILE108      0.1561
    112  C        -10.7980   35.0040  -13.7590 C.2   108  ILE108      0.2260
    113  O         -9.6090   34.8540  -13.4850 O.2   108  ILE108     -0.2867
    114  CB       -12.2380   33.0190  -14.2000 C.3   108  ILE108      0.0252
    115  CG1      -13.1940   31.9970  -13.5860 C.3   108  ILE108      0.0019
    116  CG2      -10.9940   32.3270  -14.7340 C.3   108  ILE108      0.0019
    117  CD1      -14.3010   31.5540  -14.5160 C.3   108  ILE108      0.0001
    118  N         -9.4160   36.9210  -11.0580 N.3   111  SER111     -0.1202
    119  CA        -8.8990   35.9780  -10.0690 C.3   111  SER111      0.2020
    120  C         -7.4890   36.2990   -9.5970 C.2   111  SER111      0.2619
    121  O         -7.0750   35.8850   -8.5140 O.2   111  SER111     -0.2717
    122  CB        -8.9530   34.5500  -10.6110 C.3   111  SER111      0.2103
    123  OG        -8.9340   33.6100   -9.5540 O.3   111  SER111     -0.2182
    124  N         -6.8010   37.1260  -10.3760 N.am  112  GLY112     -0.1942
    125  CA        -5.3910   37.3980  -10.1870 C.3   112  GLY112      0.2014
    126  C         -4.5110   36.5020  -11.0370 C.2   112  GLY112      0.2639
    127  O         -3.2870   36.6070  -10.9930 O.2   112  GLY112     -0.2714
    128  N         -5.1530   35.6150  -11.7930 N.am  113  ILE113     -0.1963
    129  CA        -4.4650   34.7110  -12.7050 C.3   113  ILE113      0.1727
    130  C         -3.8630   35.4710  -13.8790 C.2   113  ILE113      0.2616
    131  O         -4.4100   36.4750  -14.3280 O.2   113  ILE113     -0.2715
    132  CB        -5.4160   33.6300  -13.2510 C.3   113  ILE113      0.0290
    133  CG1       -5.9390   32.7560  -12.1130 C.3   113  ILE113      0.0022
    134  CG2       -4.7130   32.7760  -14.2940 C.3   113  ILE113      0.0023
    135  CD1       -6.9700   31.7400  -12.5520 C.3   113  ILE113      0.0001
    136  N         -2.7670   34.9500  -14.4110 N.am  114  SER114     -0.1950
    137  CA        -2.1030   35.5720  -15.5460 C.3   114  SER114      0.1924
    138  C         -3.0080   35.5670  -16.7720 C.2   114  SER114      0.2314
    139  O         -3.7740   34.6310  -16.9880 O.2   114  SER114     -0.2863
    140  CB        -0.7950   34.8450  -15.8600 C.3   114  SER114      0.2116
    141  OG        -0.3790   35.0890  -17.1910 O.3   114  SER114     -0.2180
    142  N         -7.5440   28.8640  -22.1590 N.3   121  MET121     -0.1245
    143  CA        -8.6560   28.0940  -21.6120 C.3   121  MET121      0.1570
    144  C        -10.0190   28.5980  -22.0840 C.2   121  MET121      0.2261
    145  O        -10.8960   27.8080  -22.4290 O.2   121  MET121     -0.2867
    146  CB        -8.5880   28.0600  -20.0830 C.3   121  MET121      0.0387
    147  CG        -9.2960   29.2110  -19.3910 C.3   121  MET121      0.0595
    148  SD        -8.9950   29.2110  -17.6160 S.3   121  MET121     -0.1393
    149  CE       -10.5520   29.8450  -17.0050 C.3   121  MET121      0.0692
    150  N        -12.9820   26.8900  -24.3580 N.3   125  TYR125     -0.1241
    151  CA       -14.4200   26.7950  -24.1530 C.3   125  TYR125      0.1605
    152  C        -15.1610   27.0820  -25.4500 C.2   125  TYR125      0.2264
    153  O        -16.1210   26.3940  -25.7900 O.2   125  TYR125     -0.2867
    154  CB       -14.8750   27.7770  -23.0740 C.3   125  TYR125      0.0534
    155  CG       -14.2130   27.5740  -21.7310 C.ar  125  TYR125     -0.0201
    156  CD1      -13.7240   26.3320  -21.3570 C.ar  125  TYR125     -0.0009
    157  CD2      -14.0790   28.6250  -20.8380 C.ar  125  TYR125     -0.0009
    158  CE1      -13.1200   26.1430  -20.1300 C.ar  125  TYR125      0.0417
    159  CE2      -13.4770   28.4470  -19.6100 C.ar  125  TYR125      0.0417
    160  CZ       -12.9990   27.2040  -19.2620 C.ar  125  TYR125      0.1957
    161  OH       -12.3990   27.0240  -18.0400 O.3   125  TYR125     -0.2866
    162  N         -1.6850   24.1870  -16.0420 N.3   203  HIS203     -0.1241
    163  CA        -1.9780   24.0790  -14.6200 C.3   203  HIS203      0.1621
    164  C         -0.7030   24.0740  -13.7820 C.2   203  HIS203      0.2264
    165  O         -0.6360   24.7190  -12.7390 O.2   203  HIS203     -0.2867
    166  CB        -2.7940   22.8160  -14.3380 C.3   203  HIS203      0.0745
    167  CG        -3.3590   22.7610  -12.9540 C.ar  203  HIS203      0.0817
    168  ND1       -4.3980   23.5670  -12.5420 N.ar  203  HIS203     -0.2268
    169  CD2       -3.0270   22.0000  -11.8850 C.ar  203  HIS203      0.1154
    170  CE1       -4.6830   23.3050  -11.2800 C.ar  203  HIS203      0.1986
    171  NE2       -3.8650   22.3580  -10.8570 N.ar  203  HIS203     -0.2212
    172  N          0.5730   27.5720  -13.7590 N.3   206  MET206     -0.1230
    173  CA        -0.3240   28.3430  -12.8960 C.3   206  MET206      0.1702
    174  C         -0.1690   27.9720  -11.4210 C.2   206  MET206      0.2592
    175  O         -0.2060   28.8310  -10.5410 O.2   206  MET206     -0.2718
    176  CB        -1.7820   28.1610  -13.3190 C.3   206  MET206      0.0401
    177  CG        -1.9930   27.9960  -14.8110 C.3   206  MET206      0.0596
    178  SD        -3.7210   27.6870  -15.2120 S.3   206  MET206     -0.1393
    179  CE        -4.5480   28.5730  -13.8970 C.3   206  MET206      0.0692
    180  N          0.0140   26.6880  -11.1430 N.am  207  LEU207     -0.1980
    181  CA         0.2130   26.2500   -9.7690 C.3   207  LEU207      0.1596
    182  C          1.4860   26.8660   -9.2040 C.2   207  LEU207      0.2287
    183  O          1.6160   27.0570   -7.9950 O.2   207  LEU207     -0.2864
    184  CB         0.2840   24.7250   -9.6920 C.3   207  LEU207      0.0297
    185  CG        -1.0070   24.0140   -9.2880 C.3   207  LEU207      0.0022
    186  CD1       -0.7090   22.6270   -8.7430 C.3   207  LEU207      0.0001
    187  CD2       -1.7730   24.8410   -8.2710 C.3   207  LEU207      0.0001
    188  N          2.5220   29.8990   -9.8400 N.3   209  SER209     -0.1202
    189  CA         2.1410   31.2400   -9.4190 C.3   209  SER209      0.2020
    190  C          1.2830   31.1580   -8.1660 C.2   209  SER209      0.2618
    191  O          0.0890   31.4490   -8.1990 O.2   209  SER209     -0.2717
    192  CB         1.3790   31.9600  -10.5320 C.3   209  SER209      0.2103
    193  OG         2.1580   32.0440  -11.7120 O.3   209  SER209     -0.2182
    194  N          1.9040   30.7480   -7.0650 N.am  210  TRP210     -0.1975
    195  CA         1.2220   30.6150   -5.7860 C.3   210  TRP210      0.1640
    196  C          0.2970   31.7960   -5.5260 C.2   210  TRP210      0.2290
    197  O         -0.1330   32.0230   -4.3970 O.2   210  TRP210     -0.2864
    198  CB         2.2470   30.5080   -4.6590 C.3   210  TRP210      0.0576
    199  CG         3.2400   31.6240   -4.6730 C.ar  210  TRP210      0.0006
    200  CD1        4.5330   31.5650   -5.0980 C.ar  210  TRP210      0.0946
    201  CD2        3.0170   32.9750   -4.2530 C.ar  210  TRP210      0.0152
    202  NE1        5.1310   32.7940   -4.9650 N.ar  210  TRP210     -0.2442
    203  CE2        4.2200   33.6770   -4.4470 C.ar  210  TRP210      0.0810
    204  CE3        1.9150   33.6580   -3.7280 C.ar  210  TRP210      0.0012
    205  CZ2        4.3550   35.0270   -4.1360 C.ar  210  TRP210      0.0191
    206  CZ3        2.0500   34.9960   -3.4200 C.ar  210  TRP210      0.0001
    207  CH2        3.2600   35.6670   -3.6250 C.ar  210  TRP210      0.0015
    208  N         -4.8390   26.4160   -0.6820 N.3   212  PHE212     -0.1241
    209  CA        -5.6010   25.3200   -1.2690 C.3   212  PHE212      0.1605
    210  C         -6.1370   24.3820   -0.1920 C.2   212  PHE212      0.2264
    211  O         -5.6520   24.3790    0.9390 O.2   212  PHE212     -0.2867
    212  CB        -4.7400   24.5410   -2.2640 C.3   212  PHE212      0.0534
    213  CG        -4.3590   25.3300   -3.4840 C.ar  212  PHE212     -0.0203
    214  CD1       -5.3200   25.7190   -4.4020 C.ar  212  PHE212     -0.0042
    215  CD2       -3.0400   25.6840   -3.7130 C.ar  212  PHE212     -0.0042
    216  CE1       -4.9740   26.4450   -5.5260 C.ar  212  PHE212     -0.0003
    217  CE2       -2.6860   26.4110   -4.8340 C.ar  212  PHE212     -0.0003
    218  CZ        -3.6540   26.7920   -5.7420 C.ar  212  PHE212     -0.0000
    219  N         -7.3870   19.1610   -2.8830 N.3   216  LEU216     -0.1245
    220  CA        -6.6160   19.6820   -4.0060 C.3   216  LEU216      0.1561
    221  C         -5.1270   19.3730   -3.8810 C.2   216  LEU216      0.2260
    222  O         -4.4790   19.0070   -4.8580 O.2   216  LEU216     -0.2867
    223  CB        -6.8160   21.1920   -4.1370 C.3   216  LEU216      0.0270
    224  CG        -8.2530   21.6810   -4.3030 C.3   216  LEU216      0.0019
    225  CD1       -8.2850   23.1820   -4.5290 C.3   216  LEU216      0.0001
    226  CD2       -8.9370   20.9500   -5.4460 C.3   216  LEU216      0.0001
    227  N         -3.3420   17.1790   -6.6080 N.3   220  TRP220     -0.1241
    228  CA        -2.4360   17.9440   -7.4580 C.3   220  TRP220      0.1605
    229  C         -0.9680   17.7670   -7.0810 C.2   220  TRP220      0.2264
    230  O         -0.0850   18.3150   -7.7350 O.2   220  TRP220     -0.2867
    231  CB        -2.8110   19.4280   -7.4490 C.3   220  TRP220      0.0550
    232  CG        -4.0840   19.7270   -8.1710 C.ar  220  TRP220      0.0003
    233  CD1       -4.7720   18.8930   -9.0000 C.ar  220  TRP220      0.0946
    234  CD2       -4.8270   20.9490   -8.1260 C.ar  220  TRP220      0.0152
    235  NE1       -5.8960   19.5180   -9.4750 N.ar  220  TRP220     -0.2442
    236  CE2       -5.9540   20.7830   -8.9530 C.ar  220  TRP220      0.0810
    237  CE3       -4.6490   22.1670   -7.4650 C.ar  220  TRP220      0.0012
    238  CZ2       -6.8970   21.7870   -9.1370 C.ar  220  TRP220      0.0191
    239  CZ3       -5.5860   23.1630   -7.6500 C.ar  220  TRP220      0.0001
    240  CH2       -6.6960   22.9670   -8.4790 C.ar  220  TRP220      0.0015
@<TRIPOS>BOND
     1   153   152    2
     2   152   151    1
     3   150   151    1
     4   151   154    1
     5   154   155    1
     6   145   144    2
     7   142   143    1
     8   144   143    1
     9   155   156   ar
    10   155   157   ar
    11   143   146    1
    12   156   158   ar
    13   157   159   ar
    14   158   160   ar
    15   146   147    1
    16   159   160   ar
    17   147   148    1
    18   160   161    1
    19    77    76    2
    20    76    75    1
    21   104   105    2
    22   104   103    1
    23    78    79    1
    24    78    75    1
    25   102   103    1
    26    80    79   ar
    27    80    82   ar
    28    79    81   ar
    29    98    99    2
    30    98    97    1
    31   148   149    1
    32    85    86    1
    33   103   106    1
    34    75    74    1
    35    82    84   ar
    36    81    83   ar
    37   141   140    1
    38   139   138    2
    39   106   108    1
    40   106   107    1
    41   138   137    1
    42    86    87    1
    43    86    89    1
    44    84    83   ar
    45    87    88    2
    46    87    96   am
    47   101   100    1
    48    96    97    1
    49    97   100    1
    50    74    68   am
    51   162   163    1
    52   140   137    1
    53   107   109    1
    54   137   136    1
    55    68    69    2
    56    68    67    1
    57    89    90    1
    58   178   177    1
    59   178   179    1
    60    94    93    1
    61    66    67    1
    62    91    90    1
    63    91    92    1
    64   177   176    1
    65   116   114    1
    66   163   166    1
    67   163   164    1
    68   117   115    1
    69   136   130   am
    70   166   167    1
    71    67    70    1
    72   131   130    2
    73   134   132    1
    74   114   115    1
    75   114   111    1
    76    93    92    2
    77    93    95    1
    78   130   129    1
    79   164   165    2
    80   112   113    2
    81   112   111    1
    82   172   173    1
    83    73    72    1
    84    70    71    1
    85   176   173    1
    86   132   129    1
    87   132   133    1
    88   111   110    1
    89   167   168   ar
    90   167   169   ar
    91   173   174    1
    92    65    63   ar
    93    65    64   ar
    94    71    72    1
    95   129   128    1
    96   135   133    1
    97   168   170   ar
    98    63    61   ar
    99    64    62   ar
   100   169   171   ar
   101   128   126   am
   102   193   192    1
   103   174   180   am
   104   174   175    2
   105   170   171   ar
   106   180   181    1
   107   118   119    1
   108   126   127    2
   109   126   125    1
   110    61    62   ar
   111    61    60    1
   112    42    41    1
   113   122   119    1
   114   122   123    1
   115   192   189    1
   116    26    25    1
   117   124   125    1
   118   124   120   am
   119     7     8    1
   120     7     6    1
   121   119   120    1
   122   188   189    1
   123    60    57    1
   124    27    25    1
   125   181   184    1
   126   181   182    1
   127   184   185    1
   128   120   121    2
   129   235   233   ar
   130   235   236   ar
   131   189   190    1
   132    41    40    1
   133   185   186    1
   134   185   187    1
   135    25    24    1
   136   182   183    2
   137     5     6    1
   138     5     2    1
   139   238   236   ar
   140   238   240   ar
   141    59    58    2
   142   233   232   ar
   143     1     2    1
   144   236   234   ar
   145    57    58    1
   146    57    56    1
   147    24    21    1
   148   240   239   ar
   149    39    40    1
   150    39    36    1
   151     2     3    1
   152   191   190    2
   153   232   234   ar
   154   232   231    1
   155   190   194   am
   156   234   237   ar
   157    47    44    1
   158    44    43    1
   159    44    45    1
   160    38    37    2
   161    21    22    1
   162    21    20    1
   163   230   229    2
   164   239   237   ar
   165    43    37   am
   166    37    36    1
   167    23    22    2
   168    56    50   am
   169   228   231    1
   170   228   229    1
   171   228   227    1
   172    46    45    2
   173    36    35    1
   174     4     3    2
   175    22    28   am
   176   194   195    1
   177    50    51    2
   178    50    49    1
   179    15    17   ar
   180    15    14   ar
   181    17    19   ar
   182    28    29    1
   183    10     9    1
   184    10    13    1
   185    10    11    1
   186   195   196    1
   187   195   198    1
   188   218   216   ar
   189   218   217   ar
   190   216   214   ar
   191   196   197    2
   192    52    49    1
   193    52    53    1
   194   226   224    1
   195    13    14    1
   196    12    11    2
   197    14    16   ar
   198    49    48    1
   199    29    30    1
   200    29    32    1
   201    19    18   ar
   202   200   202   ar
   203   200   199   ar
   204   202   203   ar
   205   222   221    2
   206   217   215   ar
   207    31    30    2
   208   199   198    1
   209   199   201   ar
   210    33    32    1
   211   225   224    1
   212   203   201   ar
   213   203   205   ar
   214   214   213   ar
   215   224   223    1
   216   201   204   ar
   217   223   220    1
   218   205   207   ar
   219    53    54    2
   220    53    55   am
   221    16    18   ar
   222    32    34    1
   223   220   221    1
   224   220   219    1
   225   204   206   ar
   226   215   213   ar
   227   207   206   ar
   228   213   212    1
   229   212   209    1
   230   209   208    1
   231   209   210    1
   232   210   211    2
