@<TRIPOS>MOLECULE
tmp/4qebA00.pdb
 143 139 0 0 0
SMALL
GASTEIGER

@<TRIPOS>ATOM
      1  N         40.5820   38.5100    3.0800 N.3    83  VAL83      -0.1245
      2  CA        40.6340   39.8950    3.5650 C.3    83  VAL83       0.1561
      3  C         41.2450   40.7130    2.4260 C.2    83  VAL83       0.2260
      4  O         42.4520   40.6470    2.1970 O.2    83  VAL83      -0.2867
      5  CB        41.3960   40.0740    4.9210 C.3    83  VAL83       0.0252
      6  CG1       41.4350   41.5370    5.3570 C.3    83  VAL83       0.0019
      7  CG2       40.7870   39.2140    6.0240 C.3    83  VAL83       0.0019
      8  N         47.0870   44.1750    9.3360 N.3    90  HIS90      -0.1241
      9  CA        46.5240   42.8310    9.1720 C.3    90  HIS90       0.1621
     10  C         47.6780   41.8610    9.0840 C.2    90  HIS90       0.2264
     11  O         47.6890   40.8140    9.7350 O.2    90  HIS90      -0.2867
     12  CB        45.7200   42.7400    7.8630 C.3    90  HIS90       0.0745
     13  CG        44.3970   43.4310    7.9070 C.ar   90  HIS90       0.0817
     14  ND1       44.2630   44.7590    7.5410 N.ar   90  HIS90      -0.2268
     15  CD2       43.1780   42.9430    8.2420 C.ar   90  HIS90       0.1154
     16  CE1       42.9760   45.0410    7.6850 C.ar   90  HIS90       0.1986
     17  NE2       42.2830   43.9770    8.0970 N.ar   90  HIS90      -0.2212
     18  N         49.2240   41.0990   12.7540 N.3    93  LYS93      -0.1231
     19  CA        48.3470   40.4100   13.6850 C.3    93  LYS93       0.1693
     20  C         48.4290   38.9010   13.4530 C.2    93  LYS93       0.2592
     21  O         48.3110   38.1410   14.4150 O.2    93  LYS93      -0.2718
     22  CB        46.8920   40.8780   13.4620 C.3    93  LYS93       0.0285
     23  CG        45.8920   40.4130   14.5370 C.3    93  LYS93       0.0035
     24  CD        44.4300   40.4500   14.0840 C.3    93  LYS93       0.0206
     25  CE        43.4960   40.1030   15.2140 C.3    93  LYS93       0.1093
     26  NZ        42.3250   39.3190   14.7450 N.3    93  LYS93      -0.1314
     27  N         48.6420   38.4690   12.1860 N.am   94  TYR94      -0.1976
     28  CA        48.6110   37.0550   11.8200 C.3    94  TYR94       0.1639
     29  C         49.9650   36.3370   11.8270 C.2    94  TYR94       0.2290
     30  O         49.9790   35.1060   11.7480 O.2    94  TYR94      -0.2864
     31  CB        47.8690   36.8690   10.4920 C.3    94  TYR94       0.0560
     32  CG        46.3800   37.1020   10.6720 C.ar   94  TYR94      -0.0198
     33  CD1       45.8050   37.1460   11.9450 C.ar   94  TYR94      -0.0009
     34  CD2       45.5400   37.2650    9.5750 C.ar   94  TYR94      -0.0009
     35  CE1       44.4380   37.3710   12.1220 C.ar   94  TYR94       0.0417
     36  CE2       44.1640   37.4820    9.7410 C.ar   94  TYR94       0.0417
     37  CZ        43.6200   37.5350   11.0180 C.ar   94  TYR94       0.1957
     38  OH        42.2770   37.7370   11.2040 O.3    94  TYR94      -0.2866
     39  N         42.4010   49.1350   15.7430 N.3   122  LEU122     -0.1245
     40  CA        41.8630   48.6690   14.4670 C.3   122  LEU122      0.1561
     41  C         40.5700   49.3790   14.0390 C.2   122  LEU122      0.2260
     42  O         39.8590   49.9630   14.8710 O.2   122  LEU122     -0.2867
     43  CB        41.6340   47.1270   14.5150 C.3   122  LEU122      0.0270
     44  CG        42.8520   46.1850   14.3790 C.3   122  LEU122      0.0019
     45  CD1       42.4420   44.7410   14.5590 C.3   122  LEU122      0.0001
     46  CD2       43.5330   46.3320   13.0120 C.3   122  LEU122      0.0001
     47  N         33.4400   46.9410   10.2470 N.3   126  TRP126     -0.1241
     48  CA        32.7650   45.6660   10.0070 C.3   126  TRP126      0.1605
     49  C         31.6870   45.3850   11.0670 C.2   126  TRP126      0.2264
     50  O         30.5930   44.9550   10.7130 O.2   126  TRP126     -0.2867
     51  CB        33.7740   44.5060    9.8840 C.3   126  TRP126      0.0550
     52  CG        34.5310   44.1470   11.1340 C.ar  126  TRP126      0.0003
     53  CD1       35.7630   44.6010   11.4940 C.ar  126  TRP126      0.0946
     54  CD2       34.1420   43.1920   12.1460 C.ar  126  TRP126      0.0152
     55  NE1       36.1560   44.0190   12.6800 N.ar  126  TRP126     -0.2442
     56  CE2       35.1890   43.1380   13.0910 C.ar  126  TRP126      0.0810
     57  CE3       32.9950   42.3930   12.3590 C.ar  126  TRP126      0.0012
     58  CZ2       35.1290   42.3260   14.2250 C.ar  126  TRP126      0.0191
     59  CZ3       32.9400   41.5800   13.4830 C.ar  126  TRP126      0.0001
     60  CH2       33.9970   41.5550   14.4030 C.ar  126  TRP126      0.0015
     61  N         27.5560   45.3750   10.8930 N.3   130  ILE130     -0.1245
     62  CA        26.7460   44.2590   11.3960 C.3   130  ILE130      0.1561
     63  C         25.6360   44.8010   12.2900 C.2   130  ILE130      0.2260
     64  O         24.4790   44.4460   12.0700 O.2   130  ILE130     -0.2867
     65  CB        27.6040   43.1770   12.0860 C.3   130  ILE130      0.0252
     66  CG1       28.4590   42.4130   11.0430 C.3   130  ILE130      0.0019
     67  CG2       26.7460   42.2070   12.9070 C.3   130  ILE130      0.0019
     68  CD1       29.6690   41.5940   11.6430 C.3   130  ILE130      0.0001
     69  N         25.8890   41.1450    6.9490 N.3   136  GLU136     -0.1245
     70  CA        25.5870   39.8530    7.5740 C.3   136  GLU136      0.1567
     71  C         24.2160   39.8210    8.2320 C.2   136  GLU136      0.2260
     72  O         23.9750   38.9990    9.1040 O.2   136  GLU136     -0.2867
     73  CB        26.6730   39.5190    8.6190 C.3   136  GLU136      0.0388
     74  CG        27.5950   38.3940    8.2170 C.3   136  GLU136      0.1160
     75  CD        28.7420   38.2000    9.1840 C.2   136  GLU136      0.3649
     76  OE1       28.5680   37.4200   10.1490 O.co2 136  GLU136     -0.2457
     77  OE2       29.7700   38.9080    9.0390 O.co2 136  GLU136     -0.2457
     78  N         25.2380   37.0410   16.6660 N.3   154  ILE154     -0.1231
     79  CA        25.5310   36.5460   15.3220 C.3   154  ILE154      0.1678
     80  C         26.6060   35.4220   15.4580 C.2   154  ILE154      0.2434
     81  O         27.4640   35.5370   16.3560 O.2   154  ILE154     -0.2733
     82  CB        25.9710   37.7370   14.3900 C.3   154  ILE154      0.0265
     83  CG1       26.3070   37.2940   12.9210 C.3   154  ILE154      0.0019
     84  CG2       27.1380   38.5460   15.0060 C.3   154  ILE154      0.0020
     85  CD1       25.9920   38.2930   11.9140 C.3   154  ILE154      0.0001
     86  N         26.5860   34.3280   14.6210 N.am  155  PRO155     -0.2718
     87  CA        27.6320   33.3010   14.7640 C.3   155  PRO155      0.1535
     88  C         28.9150   33.7980   14.1180 C.2   155  PRO155      0.2599
     89  O         28.8630   34.5280   13.1110 O.2   155  PRO155     -0.2715
     90  CB        27.0410   32.0830   14.0420 C.3   155  PRO155      0.0310
     91  CG        26.1140   32.6460   13.0510 C.3   155  PRO155      0.0237
     92  CD        25.6880   34.0120   13.4860 C.3   155  PRO155      0.0939
     93  N         30.0560   33.4300   14.7160 N.am  156  ASP156     -0.1958
     94  CA        31.4080   33.7710   14.2780 C.3   156  ASP156      0.1840
     95  C         31.7840   33.2750   12.8780 C.2   156  ASP156      0.2622
     96  O         31.4630   32.1510   12.4880 O.2   156  ASP156     -0.2715
     97  CB        32.4370   33.2200   15.2750 C.3   156  ASP156      0.1450
     98  CG        33.7350   33.9800   15.2470 C.2   156  ASP156      0.3671
     99  OD1       34.3560   34.0410   14.1900 O.co2 156  ASP156     -0.2456
    100  OD2       34.0510   34.6450   16.2400 O.co2 156  ASP156     -0.2456
    101  N         32.5440   34.1140   12.1660 N.am  157  LEU157     -0.1963
    102  CA        33.2290   33.9130   10.8870 C.3   157  LEU157      0.1728
    103  C         33.9640   32.5250   10.9410 C.2   157  LEU157      0.2616
    104  O         33.8820   31.7220   10.0000 O.2   157  LEU157     -0.2715
    105  CB        34.2370   35.0760   10.8810 C.3   157  LEU157      0.0311
    106  CG        35.1670   35.3690    9.7210 C.3   157  LEU157      0.0022
    107  CD1       34.5800   36.4500    8.8280 C.3   157  LEU157      0.0001
    108  CD2       36.5220   35.8990   10.2650 C.3   157  LEU157      0.0001
    109  N         34.5910   32.2460   12.1240 N.am  158  LYS158     -0.1977
    110  CA        35.3310   31.0500   12.5860 C.3   158  LYS158      0.1596
    111  C         34.3430   29.8620   12.9280 C.2   158  LYS158      0.2287
    112  O         34.5850   29.0390   13.8340 O.2   158  LYS158     -0.2864
    113  CB        36.2550   31.4170   13.8060 C.3   158  LYS158      0.0298
    114  CG        37.1900   32.6730   13.6320 C.3   158  LYS158      0.0038
    115  CD        37.4700   33.4730   14.9700 C.3   158  LYS158      0.0206
    116  CE        37.5400   35.0010   14.8530 C.3   158  LYS158      0.1093
    117  NZ        37.4660   35.7010   16.1830 N.3   158  LYS158     -0.1314
    118  N         28.7930   35.1690   18.8700 N.3   170  ILE170     -0.1245
    119  CA        29.1530   36.4370   19.5390 C.3   170  ILE170      0.1561
    120  C         27.9210   37.2750   19.9920 C.2   170  ILE170      0.2260
    121  O         26.7970   37.0680   19.5280 O.2   170  ILE170     -0.2867
    122  CB        30.1700   37.3520   18.7900 C.3   170  ILE170      0.0252
    123  CG1       30.6070   36.7780   17.4070 C.3   170  ILE170      0.0019
    124  CG2       31.3650   37.6580   19.7190 C.3   170  ILE170      0.0019
    125  CD1       31.5310   37.7310   16.5330 C.3   170  ILE170      0.0001
    126  N         40.8540   41.5750   20.1390 N.3   223  SER223     -0.1202
    127  CA        41.2720   41.7200   18.7350 C.3   223  SER223      0.2020
    128  C         40.8200   43.0800   18.2140 C.2   223  SER223      0.2618
    129  O         41.4810   43.6460   17.3580 O.2   223  SER223     -0.2717
    130  CB        40.6760   40.6320   17.8310 C.3   223  SER223      0.2103
    131  OG        40.8940   39.2620   18.1310 O.3   223  SER223     -0.2182
    132  N         39.6730   43.5740   18.6990 N.am  224  TYR224     -0.1975
    133  CA        39.0670   44.8550   18.3340 C.3   224  TYR224      0.1639
    134  C         38.4680   45.4710   19.5860 C.2   224  TYR224      0.2290
    135  O         37.9650   44.7660   20.4690 O.2   224  TYR224     -0.2864
    136  CB        38.0590   44.7330   17.1570 C.3   224  TYR224      0.0560
    137  CG        36.9400   43.7290   17.3670 C.ar  224  TYR224     -0.0198
    138  CD1       37.1510   42.3680   17.1730 C.ar  224  TYR224     -0.0009
    139  CD2       35.6480   44.1470   17.6950 C.ar  224  TYR224     -0.0009
    140  CE1       36.1260   41.4390   17.3590 C.ar  224  TYR224      0.0417
    141  CE2       34.6110   43.2270   17.8790 C.ar  224  TYR224      0.0417
    142  CZ        34.8540   41.8740   17.7010 C.ar  224  TYR224      0.1957
    143  OH        33.8360   40.9650   17.8710 O.3   224  TYR224     -0.2866
@<TRIPOS>BOND
     1     4     3    2
     2     3     2    1
     3     1     2    1
     4     2     5    1
     5     5     6    1
     6     5     7    1
     7    69    70    1
     8    14    16   ar
     9    14    13   ar
    10    70    71    1
    11    70    73    1
    12    16    17   ar
    13    12    13    1
    14    12     9    1
    15    13    15   ar
    16    17    15   ar
    17    74    73    1
    18    74    75    1
    19    71    72    2
    20   107   106    1
    21    77    75   ar
    22    10     9    1
    23    10    11    2
    24     9     8    1
    25    75    76   ar
    26    34    36   ar
    27    34    32   ar
    28   106   108    1
    29   106   105    1
    30    36    37   ar
    31    51    48    1
    32    51    52    1
    33   104   103    2
    34    48    47    1
    35    48    49    1
    36    31    32    1
    37    31    28    1
    38    32    33   ar
    39    50    49    2
    40   105   102    1
    41   102   103    1
    42   102   101    1
    43    61    62    1
    44   103   109   am
    45    37    38    1
    46    37    35   ar
    47    66    68    1
    48    66    65    1
    49    52    53   ar
    50    52    54   ar
    51    62    65    1
    52    62    63    1
    53    53    55   ar
    54    30    29    2
    55    28    29    1
    56    28    27    1
    57    85    83    1
    58    33    35   ar
    59    64    63    2
    60    65    67    1
    61   109   110    1
    62    54    57   ar
    63    54    56   ar
    64   101    95   am
    65    27    20   am
    66    57    59   ar
    67    96    95    2
    68   110   111    1
    69   110   113    1
    70    55    56   ar
    71    18    19    1
    72    95    94    1
    73    83    82    1
    74   111   112    2
    75    46    44    1
    76    91    92    1
    77    91    90    1
    78    56    58   ar
    79    89    88    2
    80    20    19    1
    81    20    21    2
    82    22    19    1
    83    22    23    1
    84    59    60   ar
    85    92    86    1
    86   114   113    1
    87   114   115    1
    88    41    40    1
    89    41    42    2
    90    90    87    1
    91    24    23    1
    92    24    25    1
    93    88    93   am
    94    88    87    1
    95    99    98   ar
    96    58    60   ar
    97    94    93    1
    98    94    97    1
    99    44    43    1
   100    44    45    1
   101    82    84    1
   102    82    79    1
   103    40    43    1
   104    40    39    1
   105    86    87    1
   106    86    80   am
   107    26    25    1
   108   116   115    1
   109   116   117    1
   110    98    97    1
   111    98   100   ar
   112    79    80    1
   113    79    78    1
   114    80    81    2
   115   125   123    1
   116   136   137    1
   117   136   133    1
   118   138   140   ar
   119   138   137   ar
   120   129   128    2
   121   140   142   ar
   122   137   139   ar
   123   123   122    1
   124   139   141   ar
   125   142   143    1
   126   142   141   ar
   127   130   131    1
   128   130   127    1
   129   128   132   am
   130   128   127    1
   131   133   132    1
   132   133   134    1
   133   127   126    1
   134   122   119    1
   135   122   124    1
   136   118   119    1
   137   121   120    2
   138   119   120    1
   139   134   135    2
