@<TRIPOS>MOLECULE
tmp/4qeeA00.pdb
 150 142 0 0 0
SMALL
GASTEIGER

@<TRIPOS>ATOM
      1  N        -10.4290  -24.1570  -39.6210 N.3    16  TRP16      -0.1241
      2  CA        -9.3370  -23.9680  -40.5700 C.3    16  TRP16       0.1605
      3  C         -8.2690  -23.0250  -40.0460 C.2    16  TRP16       0.2264
      4  O         -7.2750  -22.8380  -40.7790 O.2    16  TRP16      -0.2867
      5  CB        -9.9090  -23.4170  -41.8930 C.3    16  TRP16       0.0550
      6  CG       -10.4300  -22.0130  -41.7790 C.ar   16  TRP16       0.0003
      7  CD1       -9.7220  -20.8330  -41.9850 C.ar   16  TRP16       0.0946
      8  CD2      -11.7560  -21.6070  -41.4280 C.ar   16  TRP16       0.0152
      9  NE1      -10.5350  -19.7450  -41.7790 N.ar   16  TRP16      -0.2442
     10  CE2      -11.7910  -20.2100  -41.4470 C.ar   16  TRP16       0.0810
     11  CE3      -12.9440  -22.3150  -41.1150 C.ar   16  TRP16       0.0012
     12  CZ2      -12.9340  -19.4490  -41.1630 C.ar   16  TRP16       0.0191
     13  CZ3      -14.0680  -21.5670  -40.8330 C.ar   16  TRP16       0.0001
     14  CH2      -14.0640  -20.1720  -40.8580 C.ar   16  TRP16       0.0015
     15  N        -15.9960  -24.6410  -42.7210 N.3    54  HIS54      -0.1241
     16  CA       -16.4430  -24.9320  -44.0720 C.3    54  HIS54       0.1621
     17  C        -16.9070  -26.3980  -44.1560 C.2    54  HIS54       0.2264
     18  O        -16.3640  -27.2310  -43.4070 O.2    54  HIS54      -0.2867
     19  CB       -15.3140  -24.8180  -45.1070 C.3    54  HIS54       0.0745
     20  CG       -14.6460  -23.4880  -45.1740 C.ar   54  HIS54       0.0817
     21  ND1      -13.6490  -23.1460  -44.2880 N.ar   54  HIS54      -0.2268
     22  CD2      -14.7860  -22.4260  -46.0240 C.ar   54  HIS54       0.1154
     23  CE1      -13.2470  -21.9280  -44.6040 C.ar   54  HIS54       0.1986
     24  NE2      -13.9030  -21.4430  -45.6330 N.ar   54  HIS54      -0.2212
     25  N        -19.9090  -22.0390  -43.3890 N.3    90  THR90      -0.1218
     26  CA       -19.6530  -21.4940  -44.7370 C.3    90  THR90       0.1862
     27  C        -19.3240  -22.6290  -45.6760 C.2    90  THR90       0.2287
     28  O        -19.2770  -23.8030  -45.2570 O.2    90  THR90      -0.2866
     29  CB       -18.5410  -20.4370  -44.6240 C.3    90  THR90       0.1770
     30  OG1      -18.3110  -19.8630  -45.9210 O.3    90  THR90      -0.2211
     31  CG2      -17.2020  -20.9630  -44.1520 C.3    90  THR90       0.0375
     32  N        -13.5730  -22.7900  -53.2000 N.3    94  PHE94      -0.1241
     33  CA       -12.3130  -22.2030  -53.6990 C.3    94  PHE94       0.1605
     34  C        -11.1770  -23.2020  -53.7940 C.2    94  PHE94       0.2264
     35  O        -10.2180  -23.0020  -54.5570 O.2    94  PHE94      -0.2867
     36  CB       -11.8620  -21.0010  -52.8030 C.3    94  PHE94       0.0534
     37  CG       -11.8570  -21.2520  -51.3100 C.ar   94  PHE94      -0.0203
     38  CD1      -10.7550  -21.7900  -50.6800 C.ar   94  PHE94      -0.0042
     39  CD2      -12.9690  -20.9400  -50.5430 C.ar   94  PHE94      -0.0042
     40  CE1      -10.7510  -22.0160  -49.3290 C.ar   94  PHE94      -0.0003
     41  CE2      -13.0020  -21.2030  -49.1740 C.ar   94  PHE94      -0.0003
     42  CZ       -11.8960  -21.7760  -48.5820 C.ar   94  PHE94      -0.0000
     43  N        -21.8650  -17.7290  -43.9860 N.3   135  VAL135     -0.1245
     44  CA       -20.9710  -16.7560  -44.6540 C.3   135  VAL135      0.1561
     45  C        -20.6520  -17.2200  -46.0620 C.2   135  VAL135      0.2260
     46  O        -20.5520  -18.4260  -46.3190 O.2   135  VAL135     -0.2867
     47  CB       -19.6740  -16.6170  -43.8370 C.3   135  VAL135      0.0252
     48  CG1      -18.5720  -15.9570  -44.6640 C.3   135  VAL135      0.0019
     49  CG2      -19.9080  -15.8330  -42.5490 C.3   135  VAL135      0.0019
     50  N        -17.6140  -16.3530  -48.8330 N.3   137  TRP137     -0.1241
     51  CA       -16.4440  -15.6080  -49.2930 C.3   137  TRP137      0.1605
     52  C        -16.1890  -16.0640  -50.7390 C.2   137  TRP137      0.2264
     53  O        -15.8080  -17.2200  -50.9270 O.2   137  TRP137     -0.2867
     54  CB       -15.2330  -15.9100  -48.4180 C.3   137  TRP137      0.0550
     55  CG       -13.9440  -15.4000  -49.0170 C.ar  137  TRP137      0.0003
     56  CD1      -13.6750  -14.0760  -49.2790 C.ar  137  TRP137      0.0946
     57  CD2      -12.7910  -16.1460  -49.4280 C.ar  137  TRP137      0.0152
     58  NE1      -12.4180  -13.9840  -49.8260 N.ar  137  TRP137     -0.2442
     59  CE2      -11.8420  -15.2240  -49.9300 C.ar  137  TRP137      0.0810
     60  CE3      -12.4510  -17.4980  -49.4240 C.ar  137  TRP137      0.0012
     61  CZ2      -10.6000  -15.5720  -50.4140 C.ar  137  TRP137      0.0191
     62  CZ3      -11.2070  -17.8420  -49.9140 C.ar  137  TRP137      0.0001
     63  CH2      -10.2870  -16.9150  -50.4030 C.ar  137  TRP137      0.0015
     64  N        -18.4940  -11.8920  -47.2480 N.3   181  GLU181     -0.1301
     65  CA       -17.1910  -11.4980  -46.7730 C.3   181  GLU181      0.1252
     66  C        -16.3960  -10.9040  -47.9230 C.3   181  GLU181      0.2009
     67  O        -16.0280  -11.7190  -48.7760 O.3   181  GLU181     -0.2188
     68  CB       -16.4140  -12.7410  -46.2860 C.3   181  GLU181      0.0335
     69  CG       -15.0990  -12.2580  -45.6300 C.3   181  GLU181      0.1156
     70  CD       -14.4230  -13.4580  -44.9610 C.2   181  GLU181      0.3649
     71  OE1      -15.0840  -14.3270  -44.3650 O.co2 181  GLU181     -0.2457
     72  OE2      -13.1980  -13.5000  -45.1260 O.co2 181  GLU181     -0.2457
     73  N        -19.7980   -9.6970  -43.5600 N.3   215  ASN215     -0.1240
     74  CA       -18.8720  -10.3170  -42.6510 C.3   215  ASN215      0.1653
     75  C        -17.4880   -9.7300  -42.9840 C.2   215  ASN215      0.2266
     76  O        -16.7210  -10.3900  -43.6840 O.2   215  ASN215     -0.2867
     77  CB       -18.8090  -11.8340  -42.8200 C.3   215  ASN215      0.1155
     78  CG       -17.8470  -12.4760  -41.8330 C.2   215  ASN215      0.2627
     79  OD1      -17.8940  -12.1740  -40.6380 O.2   215  ASN215     -0.2716
     80  ND2      -16.9400  -13.3280  -42.2790 N.am  215  ASN215     -0.0877
     81  N        -13.5730   -8.5660  -42.7430 N.3   217  GLU217     -0.1245
     82  CA       -12.3710   -9.0820  -42.0820 C.3   217  GLU217      0.1567
     83  C        -11.3310   -7.9740  -41.9400 C.2   217  GLU217      0.2260
     84  O        -11.1120   -7.3000  -42.9720 O.2   217  GLU217     -0.2867
     85  CB       -11.7350  -10.2100  -42.9480 C.3   217  GLU217      0.0388
     86  CG       -10.4890  -10.7570  -42.2580 C.3   217  GLU217      0.1160
     87  CD        -9.8600  -11.9250  -42.9810 C.2   217  GLU217      0.3649
     88  OE1      -10.5570  -12.9040  -43.1830 O.co2 217  GLU217     -0.2457
     89  OE2       -8.6540  -11.9030  -43.3140 O.co2 217  GLU217     -0.2457
     90  N         -8.6260   -7.7280  -44.6810 N.3   220  HIS220     -0.1241
     91  CA        -9.0120   -7.5950  -46.0900 C.3   220  HIS220      0.1621
     92  C         -9.2650   -6.1440  -46.4550 C.2   220  HIS220      0.2264
     93  O         -8.8580   -5.6670  -47.5320 O.2   220  HIS220     -0.2867
     94  CB       -10.2700   -8.4290  -46.4030 C.3   220  HIS220      0.0745
     95  CG        -9.9800   -9.8970  -46.2810 C.ar  220  HIS220      0.0817
     96  ND1      -10.9420  -10.8830  -46.4320 N.ar  220  HIS220     -0.2268
     97  CD2       -8.8100  -10.5470  -45.9790 C.ar  220  HIS220      0.1154
     98  CE1      -10.3740  -12.0730  -46.2370 C.ar  220  HIS220      0.1986
     99  NE2       -9.0800  -11.8850  -45.9760 N.ar  220  HIS220     -0.2212
    100  N        -14.8370  -10.8630  -38.8290 N.3   245  ASP245     -0.1239
    101  CA       -13.6540  -11.6990  -38.7580 C.3   245  ASP245      0.1674
    102  C        -12.4880  -10.8640  -38.2460 C.2   245  ASP245      0.2266
    103  O        -12.1410   -9.8580  -38.8770 O.2   245  ASP245     -0.2867
    104  CB       -13.2560  -12.2180  -40.1290 C.3   245  ASP245      0.1410
    105  CG       -13.9650  -13.4830  -40.5310 C.2   245  ASP245      0.3668
    106  OD1      -14.9140  -13.9040  -39.8680 O.co2 245  ASP245     -0.2456
    107  OD2      -13.6040  -14.0870  -41.5320 O.co2 245  ASP245     -0.2456
    108  N         -2.4770  -11.5540  -48.0170 N.3   255  ASP255     -0.1239
    109  CA        -3.3290  -11.6500  -46.8040 C.3   255  ASP255      0.1674
    110  C         -2.6070  -12.4160  -45.7210 C.2   255  ASP255      0.2266
    111  O         -2.4190  -13.6440  -45.8590 O.2   255  ASP255     -0.2867
    112  CB        -4.6150  -12.3600  -47.2470 C.3   255  ASP255      0.1410
    113  CG        -5.7070  -12.4920  -46.1810 C.2   255  ASP255      0.3668
    114  OD1       -5.9500  -11.5650  -45.4010 O.co2 255  ASP255     -0.2456
    115  OD2       -6.3530  -13.5620  -46.1650 O.co2 255  ASP255     -0.2456
    116  N         -3.3870  -12.7300  -42.3030 N.3   257  ASP257     -0.1239
    117  CA        -4.2170  -13.3790  -41.3050 C.3   257  ASP257      0.1674
    118  C         -3.4370  -13.5570  -40.0080 C.2   257  ASP257      0.2266
    119  O         -3.4280  -14.6670  -39.4350 O.2   257  ASP257     -0.2867
    120  CB        -4.7210  -14.7280  -41.8320 C.3   257  ASP257      0.1410
    121  CG        -5.8610  -14.5230  -42.8200 C.2   257  ASP257      0.3668
    122  OD1       -6.2950  -13.3920  -43.1570 O.co2 257  ASP257     -0.2456
    123  OD2       -6.3790  -15.5580  -43.3060 O.co2 257  ASP257     -0.2456
    124  N        -15.2990  -13.4890  -33.9130 N.3   285  HIS285     -0.1241
    125  CA       -14.7040  -14.6010  -34.6110 C.3   285  HIS285      0.1621
    126  C        -13.2800  -14.2970  -35.0880 C.2   285  HIS285      0.2264
    127  O        -13.0480  -13.2420  -35.6890 O.2   285  HIS285     -0.2867
    128  CB       -15.5530  -14.8840  -35.8510 C.3   285  HIS285      0.0745
    129  CG       -15.1320  -16.0810  -36.6550 C.ar  285  HIS285      0.0817
    130  ND1      -14.7280  -15.9750  -37.9820 N.ar  285  HIS285     -0.2268
    131  CD2      -15.1030  -17.4070  -36.3900 C.ar  285  HIS285      0.1154
    132  CE1      -14.4440  -17.1810  -38.4710 C.ar  285  HIS285      0.1986
    133  NE2      -14.6600  -18.0700  -37.5060 N.ar  285  HIS285     -0.2212
    134  N        -10.4020  -15.1640  -37.6350 N.3   287  ASP287     -0.1239
    135  CA       -10.0330  -15.8610  -38.8700 C.3   287  ASP287      0.1674
    136  C         -8.5370  -15.5940  -39.0240 C.2   287  ASP287      0.2266
    137  O         -8.1880  -14.5390  -39.5490 O.2   287  ASP287     -0.2867
    138  CB       -10.8170  -15.3430  -40.0500 C.3   287  ASP287      0.1410
    139  CG       -10.4740  -16.1330  -41.2960 C.2   287  ASP287      0.3668
    140  OD1       -9.6920  -17.0950  -41.2570 O.co2 287  ASP287     -0.2456
    141  OD2      -10.9930  -15.7720  -42.3680 O.co2 287  ASP287     -0.2456
    142  N         -4.2220  -17.2530  -39.1070 N.3   289  LYS289     -0.1245
    143  CA        -3.4040  -18.4390  -39.3630 C.3   289  LYS289      0.1561
    144  C         -2.1890  -18.4030  -38.4560 C.2   289  LYS289      0.2260
    145  O         -1.3640  -17.4970  -38.5900 O.2   289  LYS289     -0.2867
    146  CB        -3.0050  -18.4860  -40.8400 C.3   289  LYS289      0.0271
    147  CG        -4.1870  -18.8780  -41.7320 C.3   289  LYS289      0.0035
    148  CD        -3.7800  -18.9230  -43.1940 C.3   289  LYS289      0.0206
    149  CE        -5.0100  -19.1520  -44.0650 C.3   289  LYS289      0.1093
    150  NZ        -5.7980  -17.8930  -44.1650 N.3   289  LYS289     -0.1314
@<TRIPOS>BOND
     1    35    34    2
     2    34    33    1
     3    33    32    1
     4    33    36    1
     5    36    37    1
     6    37    38   ar
     7    37    39   ar
     8    53    52    2
     9    52    51    1
    10    38    40   ar
    11    39    41   ar
    12    61    63   ar
    13    61    59   ar
    14    63    62   ar
    15    59    58   ar
    16    59    57   ar
    17    62    60   ar
    18    58    56   ar
    19    57    60   ar
    20    57    55   ar
    21    40    42   ar
    22    51    50    1
    23    51    54    1
    24    56    55   ar
    25    41    42   ar
    26    55    54    1
    27    67    66    1
    28   108   109    1
    29    66    65    1
    30    93    92    2
    31    64    65    1
    32   112   109    1
    33   112   113    1
    34   109   110    1
    35    65    68    1
    36    92    91    1
    37    96    95   ar
    38    96    98   ar
    39    94    95    1
    40    94    91    1
    41    46    45    2
    42    68    69    1
    43    95    97   ar
    44    98    99   ar
    45   113   115   ar
    46   113   114   ar
    47    91    90    1
    48    45    44    1
    49    22    24   ar
    50    22    20   ar
    51    97    99   ar
    52    30    29    1
    53   111   110    2
    54    27    28    2
    55    27    26    1
    56    24    23   ar
    57    69    70    1
    58    20    19    1
    59    20    21   ar
    60    72    70   ar
    61    19    16    1
    62    70    71   ar
    63    26    29    1
    64    26    25    1
    65    48    47    1
    66    44    43    1
    67    44    47    1
    68    29    31    1
    69    23    21   ar
    70   150   149    1
    71    17    16    1
    72    17    18    2
    73    16    15    1
    74   149   148    1
    75    47    49    1
    76    76    75    2
    77    73    74    1
    78    89    87   ar
    79   123   121   ar
    80   148   147    1
    81    88    87   ar
    82   122   121   ar
    83    75    74    1
    84    87    86    1
    85    84    83    2
    86    85    86    1
    87    85    82    1
    88   121   120    1
    89    77    74    1
    90    77    78    1
    91    81    82    1
    92   141   139   ar
    93   116   117    1
    94    80    78   am
    95    82    83    1
    96     7     9   ar
    97     7     6   ar
    98     5     6    1
    99     5     2    1
   100    78    79    2
   101   120   117    1
   102     9    10   ar
   103     6     8   ar
   104   147   146    1
   105   107   105   ar
   106    10     8   ar
   107    10    12   ar
   108     8    11   ar
   109   117   118    1
   110   139   140   ar
   111   139   138    1
   112    12    14   ar
   113    11    13   ar
   114    14    13   ar
   115   146   143    1
   116     4     3    2
   117     2     3    1
   118     2     1    1
   119   105   104    1
   120   105   106   ar
   121   104   101    1
   122   138   135    1
   123   118   119    2
   124   137   136    2
   125   143   142    1
   126   143   144    1
   127   136   135    1
   128   103   102    2
   129   135   134    1
   130   100   101    1
   131   101   102    1
   132   145   144    2
   133   132   130   ar
   134   132   133   ar
   135   130   129   ar
   136   133   131   ar
   137   129   131   ar
   138   129   128    1
   139   128   125    1
   140   127   126    2
   141   126   125    1
   142   125   124    1
