@<TRIPOS>MOLECULE
tmp/4qeiA00.pdb
 137 126 0 0 0
SMALL
GASTEIGER

@<TRIPOS>ATOM
      1  N         -5.5240   -9.0750  -11.8090 N.3   140  GLU140     -0.1245
      2  CA        -5.6890   -9.6380  -10.4690 C.3   140  GLU140      0.1567
      3  C         -4.2940   -9.7900   -9.8330 C.2   140  GLU140      0.2260
      4  O         -3.2740   -9.6710  -10.5150 O.2   140  GLU140     -0.2867
      5  CB        -6.4650  -10.9490  -10.5230 C.3   140  GLU140      0.0388
      6  CG        -5.6750  -12.0730  -11.1300 C.3   140  GLU140      0.1160
      7  CD        -6.4160  -13.3920  -11.1460 C.2   140  GLU140      0.3649
      8  OE1       -5.7420  -14.4280  -11.2750 O.co2 140  GLU140     -0.2457
      9  OE2       -7.6460  -13.3970  -10.9580 O.co2 140  GLU140     -0.2457
     10  N         -8.7170   -3.3700  -15.1220 N.3   172  ARG172     -0.1245
     11  CA        -9.7410   -3.9940  -15.9170 C.3   172  ARG172      0.1563
     12  C        -10.3060   -2.9750  -16.8680 C.2   172  ARG172      0.2260
     13  O        -10.8920   -2.0250  -16.4090 O.2   172  ARG172     -0.2867
     14  CB       -10.8840   -4.5250  -15.0430 C.3   172  ARG172      0.0307
     15  CG       -10.5030   -5.4380  -13.9220 C.3   172  ARG172      0.0489
     16  CD       -10.7360   -6.8740  -14.2600 C.3   172  ARG172      0.2205
     17  NE       -10.2510   -7.6670  -13.1460 N.pl3 172  ARG172     -0.0865
     18  CZ       -10.9540   -8.5850  -12.5140 C.cat 172  ARG172      0.5346
     19  NH1      -12.2020   -8.8280  -12.8820 N.pl3 172  ARG172      0.1354
     20  NH2      -10.4060   -9.2380  -11.5040 N.pl3 172  ARG172      0.1354
     21  N        -12.6410   -1.8640  -18.5170 N.3   174  GLU174     -0.1245
     22  CA       -14.1030   -1.9500  -18.6050 C.3   174  GLU174      0.1567
     23  C        -14.8410   -1.2210  -19.7340 C.2   174  GLU174      0.2260
     24  O        -14.5350   -0.0800  -20.0710 O.2   174  GLU174     -0.2867
     25  CB       -14.7170   -1.5070  -17.2820 C.3   174  GLU174      0.0388
     26  CG       -14.3520   -2.3820  -16.1040 C.3   174  GLU174      0.1160
     27  CD       -14.7980   -3.8290  -16.2520 C.2   174  GLU174      0.3649
     28  OE1      -15.3270   -4.1980  -17.3280 O.co2 174  GLU174     -0.2457
     29  OE2      -14.6170   -4.6060  -15.2790 O.co2 174  GLU174     -0.2457
     30  N        -18.1210    3.4960   -7.5120 N.3   181  LEU181     -0.1231
     31  CA       -16.9710    2.6610   -7.1320 C.3   181  LEU181      0.1693
     32  C        -17.1720    1.1380   -7.4360 C.2   181  LEU181      0.2592
     33  O        -16.2300    0.3460   -7.3510 O.2   181  LEU181     -0.2718
     34  CB       -16.6730    2.8280   -5.6390 C.3   181  LEU181      0.0284
     35  CG       -15.9220    4.0170   -5.0440 C.3   181  LEU181      0.0019
     36  CD1      -15.8590    3.8530   -3.5340 C.3   181  LEU181      0.0001
     37  CD2      -14.5290    4.2620   -5.6190 C.3   181  LEU181      0.0001
     38  N        -18.3990    0.7210   -7.7110 N.am  182  ILE182     -0.1966
     39  CA       -18.6520   -0.6810   -7.8450 C.3   182  ILE182      0.1727
     40  C        -18.0690   -1.2950   -9.1120 C.2   182  ILE182      0.2616
     41  O        -17.5680   -2.4280   -9.0760 O.2   182  ILE182     -0.2715
     42  CB       -20.1800   -0.9140   -7.8410 C.3   182  ILE182      0.0290
     43  CG1      -20.7540   -0.5180   -6.4880 C.3   182  ILE182      0.0022
     44  CG2      -20.5320   -2.3630   -8.1410 C.3   182  ILE182      0.0023
     45  CD1      -22.2250   -0.7350   -6.3880 C.3   182  ILE182      0.0001
     46  N        -18.1530   -0.5990  -10.2380 N.am  183  ARG183     -0.1963
     47  CA       -17.5520   -1.1480  -11.4490 C.3   183  ARG183      0.1729
     48  C        -16.5850   -0.0820  -11.9710 C.2   183  ARG183      0.2616
     49  O        -17.0000    0.8180  -12.7050 O.2   183  ARG183     -0.2715
     50  CB       -18.5940   -1.5900  -12.4600 C.3   183  ARG183      0.0348
     51  CG       -18.0280   -2.6440  -13.3850 C.3   183  ARG183      0.0492
     52  CD       -19.1330   -3.4260  -14.0820 C.3   183  ARG183      0.2205
     53  NE       -18.6180   -4.2000  -15.2080 N.pl3 183  ARG183     -0.0865
     54  CZ       -18.1160   -5.4350  -15.0810 C.cat 183  ARG183      0.5346
     55  NH1      -17.6490   -6.1010  -16.1360 N.pl3 183  ARG183      0.1354
     56  NH2      -18.0780   -6.0130  -13.8820 N.pl3 183  ARG183      0.1354
     57  N        -15.3160   -0.2000  -11.5970 N.am  184  VAL184     -0.1977
     58  CA       -14.2380    0.7650  -11.8790 C.3   184  VAL184      0.1596
     59  C        -13.1630    0.0670  -12.6880 C.2   184  VAL184      0.2287
     60  O        -13.2600   -1.1310  -12.9080 O.2   184  VAL184     -0.2864
     61  CB       -13.5780    1.3890  -10.6260 C.3   184  VAL184      0.0276
     62  CG1      -14.6020    2.1830   -9.8230 C.3   184  VAL184      0.0022
     63  CG2      -12.9360    0.3470   -9.7580 C.3   184  VAL184      0.0022
     64  N         -8.6480   -0.8260   -9.1670 N.3   187  PHE187     -0.1241
     65  CA        -9.2690   -0.9900   -7.8390 C.3   187  PHE187      0.1605
     66  C         -8.2710   -1.7600   -7.0240 C.2   187  PHE187      0.2264
     67  O         -7.4280   -2.4530   -7.5780 O.2   187  PHE187     -0.2867
     68  CB       -10.6590   -1.6470   -7.8570 C.3   187  PHE187      0.0534
     69  CG       -10.7620   -2.8780   -8.6770 C.ar  187  PHE187     -0.0203
     70  CD1      -10.5110   -4.1170   -8.1150 C.ar  187  PHE187     -0.0042
     71  CD2      -10.9420   -2.7840  -10.0410 C.ar  187  PHE187     -0.0042
     72  CE1      -10.5900   -5.2410   -8.8770 C.ar  187  PHE187     -0.0003
     73  CE2      -10.9800   -3.8910  -10.8200 C.ar  187  PHE187     -0.0003
     74  CZ       -10.8080   -5.1320  -10.2450 C.ar  187  PHE187     -0.0000
     75  N         -7.2460   -4.6200   -4.5520 N.3   189  MET189     -0.1245
     76  CA        -7.6670   -5.9630   -4.1610 C.3   189  MET189      0.1570
     77  C         -6.8070   -6.4940   -3.0480 C.2   189  MET189      0.2261
     78  O         -5.6080   -6.2630   -3.0050 O.2   189  MET189     -0.2867
     79  CB        -7.5080   -6.9080   -5.3580 C.3   189  MET189      0.0387
     80  CG        -8.3090   -6.4700   -6.5400 C.3   189  MET189      0.0595
     81  SD       -10.0190   -6.6590   -6.0080 S.3   189  MET189     -0.1393
     82  CE        -9.8380   -8.4450   -5.8240 C.3   189  MET189      0.0692
     83  N         -6.0340  -10.2790   -1.9200 N.3   191  GLU191     -0.1245
     84  CA        -6.2490  -11.6680   -2.3300 C.3   191  GLU191      0.1567
     85  C         -5.4470  -12.6630   -1.4940 C.2   191  GLU191      0.2260
     86  O         -4.2560  -12.4950   -1.2440 O.2   191  GLU191     -0.2867
     87  CB        -5.9210  -11.8570   -3.8180 C.3   191  GLU191      0.0388
     88  CG        -6.9350  -11.2110   -4.7770 C.3   191  GLU191      0.1160
     89  CD        -6.6620  -11.5720   -6.2340 C.2   191  GLU191      0.3649
     90  OE1       -5.4940  -11.4940   -6.6610 O.co2 191  GLU191     -0.2457
     91  OE2       -7.5800  -12.1100   -6.9060 O.co2 191  GLU191     -0.2457
     92  N        -21.3700   -8.2870   -4.9340 N.3   290  GLU290     -0.1231
     93  CA       -20.2830   -9.1360   -4.4450 C.3   290  GLU290      0.1699
     94  C        -19.0880   -8.2610   -3.9780 C.2   290  GLU290      0.2592
     95  O        -18.5490   -7.4050   -4.7070 O.2   290  GLU290     -0.2718
     96  CB       -19.9350  -10.1750   -5.5170 C.3   290  GLU290      0.0402
     97  CG       -18.8200  -11.1450   -5.1940 C.3   290  GLU290      0.1161
     98  CD       -17.9280  -11.4410   -6.4080 C.2   290  GLU290      0.3649
     99  OE1      -18.4730  -11.3970   -7.5360 O.co2 290  GLU290     -0.2457
    100  OE2      -16.7120  -11.7550   -6.2470 O.co2 290  GLU290     -0.2457
    101  N        -18.6400   -8.5390   -2.7590 N.am  291  ILE291     -0.1980
    102  CA       -17.5600   -7.7720   -2.1530 C.3   291  ILE291      0.1595
    103  C        -16.3900   -8.7270   -1.8910 C.2   291  ILE291      0.2287
    104  O        -15.2140   -8.3260   -1.8530 O.2   291  ILE291     -0.2864
    105  CB       -17.9900   -7.0060   -0.8920 C.3   291  ILE291      0.0276
    106  CG1      -18.6180   -7.9010    0.1610 C.3   291  ILE291      0.0022
    107  CG2      -18.9310   -5.9220   -1.2890 C.3   291  ILE291      0.0022
    108  CD1      -19.1020   -7.1270    1.3650 C.3   291  ILE291      0.0001
    109  N        -15.0880  -12.3770   -3.3310 N.3   293  GLY293     -0.1225
    110  CA       -15.1390  -13.4770   -4.2570 C.3   293  GLY293      0.1811
    111  C        -14.4670  -14.6860   -3.6890 C.2   293  GLY293      0.2280
    112  O        -13.5530  -14.5860   -2.8790 O.2   293  GLY293     -0.2866
    113  N        -11.0400  -13.2990   -2.4440 N.3   406  SER406     -0.1217
    114  CA       -10.6870  -12.0960   -3.1870 C.3   406  SER406      0.1889
    115  C        -11.5420  -10.9120   -2.7360 C.2   406  SER406      0.2288
    116  O        -12.7080  -10.8090   -3.0800 O.2   406  SER406     -0.2866
    117  CB       -10.9110  -12.3900   -4.6710 C.3   406  SER406      0.2089
    118  OG       -10.4630  -11.3720   -5.5090 O.3   406  SER406     -0.2183
    119  N        -12.6630   -7.0060   -2.6300 N.3   408  GLY408     -0.1225
    120  CA       -12.7200   -5.7320   -3.3360 C.3   408  GLY408      0.1811
    121  C        -12.8800   -4.5320   -2.4030 C.2   408  GLY408      0.2280
    122  O        -13.9930   -4.1250   -2.0720 O.2   408  GLY408     -0.2866
    123  N        -12.7180   -1.4340   -2.6310 N.3   410  GLY410     -0.1210
    124  CA       -13.5800   -0.3280   -3.0530 C.3   410  GLY410      0.1956
    125  C        -15.0600   -0.5870   -2.7340 C.2   410  GLY410      0.2611
    126  O        -15.7870    0.2690   -2.1960 O.2   410  GLY410     -0.2717
    127  N        -15.5100   -1.7900   -3.0700 N.am  411  ARG411     -0.1979
    128  CA       -16.8730   -2.1770   -2.8330 C.3   411  ARG411      0.1597
    129  C        -17.1090   -2.3050   -1.3330 C.2   411  ARG411      0.2287
    130  O        -18.1630   -1.9500   -0.8300 O.2   411  ARG411     -0.2864
    131  CB       -17.1720   -3.4720   -3.5590 C.3   411  ARG411      0.0334
    132  CG       -17.1310   -3.3070   -5.0610 C.3   411  ARG411      0.0492
    133  CD       -17.4160   -4.5910   -5.7710 C.3   411  ARG411      0.2205
    134  NE       -17.6440   -4.3760   -7.1880 N.pl3 411  ARG411     -0.0865
    135  CZ       -18.1130   -5.3040   -7.9960 C.cat 411  ARG411      0.5346
    136  NH1      -18.3870   -6.4860   -7.5020 N.pl3 411  ARG411      0.1354
    137  NH2      -18.2820   -5.0480   -9.2850 N.pl3 411  ARG411      0.1354
@<TRIPOS>BOND
     1    24    23    2
     2    23    22    1
     3    22    21    1
     4    22    25    1
     5    28    27   ar
     6    25    26    1
     7    12    13    2
     8    12    11    1
     9    27    26    1
    10    27    29   ar
    11    55    54    1
    12    11    10    1
    13    11    14    1
    14    53    54    2
    15    53    52    1
    16    54    56    1
    17    14    15    1
    18    16    15    1
    19    16    17    1
    20    52    51    1
    21    51    50    1
    22    17    18    2
    23    60    59    2
    24    19    18    1
    25    49    48    2
    26    59    58    1
    27    18    20    1
    28    50    47    1
    29    48    57   am
    30    48    47    1
    31    58    57    1
    32    58    61    1
    33     1     2    1
    34    47    46    1
    35     8     7   ar
    36     7     6    1
    37     7     9   ar
    38     6     5    1
    39    73    74   ar
    40    73    71   ar
    41    61    62    1
    42    61    63    1
    43     5     2    1
    44     4     3    2
    45     2     3    1
    46    74    72   ar
    47    46    40   am
    48    71    69   ar
    49   137   135    1
    50    64    65    1
    51    40    41    2
    52    40    39    1
    53    72    70   ar
    54    69    70   ar
    55    69    68    1
    56    44    42    1
    57   135   136    1
    58   135   134    2
    59    68    65    1
    60    39    42    1
    61    39    38    1
    62    42    43    1
    63    65    66    1
    64    38    32   am
    65    67    66    2
    66    99    98   ar
    67    30    31    1
    68    32    33    2
    69    32    31    1
    70   134   133    1
    71    31    34    1
    72    91    89   ar
    73    90    89   ar
    74    80    81    1
    75    80    79    1
    76    43    45    1
    77    98   100   ar
    78    98    97    1
    79    89    88    1
    80    81    82    1
    81   133   132    1
    82    34    35    1
    83    37    35    1
    84    96    97    1
    85    96    93    1
    86   118   117    1
    87    79    76    1
    88   132   131    1
    89    35    36    1
    90    92    93    1
    91    88    87    1
    92    95    94    2
    93   117   114    1
    94    75    76    1
    95    93    94    1
    96   110   111    1
    97   110   109    1
    98    76    77    1
    99    94   101   am
   100    87    84    1
   101   111   112    2
   102   131   128    1
   103   120   119    1
   104   120   121    1
   105   114   115    1
   106   114   113    1
   107   116   115    2
   108   127   128    1
   109   127   125   am
   110   124   125    1
   111   124   123    1
   112    77    78    2
   113   128   129    1
   114   101   102    1
   115   125   126    2
   116   121   122    2
   117    84    83    1
   118    84    85    1
   119   102   103    1
   120   102   105    1
   121   103   104    2
   122    85    86    2
   123   129   130    2
   124   107   105    1
   125   105   106    1
   126   106   108    1
