@<TRIPOS>MOLECULE
tmp/4qemA00.pdb
 125 120 0 0 0
SMALL
GASTEIGER

@<TRIPOS>ATOM
      1  N          9.8050  -15.6300   -6.1040 N.3     2  LEU2       -0.1245
      2  CA         9.1130  -16.9540   -5.9740 C.3     2  LEU2        0.1561
      3  C          9.9460  -18.0350   -5.2820 C.2     2  LEU2        0.2260
      4  O          9.4450  -18.7960   -4.4300 O.2     2  LEU2       -0.2867
      5  CB         8.8240  -17.4730   -7.3750 C.3     2  LEU2        0.0270
      6  CG         7.9410  -17.1420   -8.5380 C.3     2  LEU2        0.0019
      7  CD1        8.2820  -17.9040   -9.7780 C.3     2  LEU2        0.0001
      8  CD2        6.5210  -17.3490   -8.1440 C.3     2  LEU2        0.0001
      9  N         10.1040  -17.1680   -1.5770 N.3     5  PHE5       -0.1227
     10  CA         8.8580  -17.5800   -1.0280 C.3     5  PHE5        0.1736
     11  C          8.8610  -19.1170   -0.7870 C.2     5  PHE5        0.2596
     12  O          8.4120  -19.6140    0.2580 O.2     5  PHE5       -0.2718
     13  CB         7.7030  -17.1420   -1.9570 C.3     5  PHE5        0.0547
     14  CG         6.3300  -17.3900   -1.4450 C.ar    5  PHE5       -0.0202
     15  CD1        5.9660  -17.2920   -0.0880 C.ar    5  PHE5       -0.0042
     16  CD2        5.3320  -17.6890   -2.3560 C.ar    5  PHE5       -0.0042
     17  CE1        4.6580  -17.5090    0.2970 C.ar    5  PHE5       -0.0003
     18  CE2        4.0350  -17.9010   -1.9750 C.ar    5  PHE5       -0.0003
     19  CZ         3.7050  -17.8090   -0.6010 C.ar    5  PHE5       -0.0000
     20  N          9.2830  -19.8800   -1.7900 N.am    6  GLY6       -0.1957
     21  CA         9.3510  -21.3440   -1.6590 C.3     6  GLY6        0.1869
     22  C         10.2530  -21.7100   -0.4760 C.2     6  GLY6        0.2309
     23  O          9.8680  -22.6750    0.2790 O.2     6  GLY6       -0.2863
     24  N          8.3320  -20.9590    2.7270 N.3     9  ILE9       -0.1245
     25  CA         7.3150  -21.9440    2.9460 C.3     9  ILE9        0.1561
     26  C          7.9350  -23.2440    3.5270 C.2     9  ILE9        0.2260
     27  O          7.4110  -23.7930    4.4420 O.2     9  ILE9       -0.2867
     28  CB         6.6120  -22.2540    1.6210 C.3     9  ILE9        0.0252
     29  CG1        5.7820  -21.0370    1.1440 C.3     9  ILE9        0.0019
     30  CG2        5.6780  -23.4630    1.7880 C.3     9  ILE9        0.0019
     31  CD1        5.3320  -21.1490   -0.3070 C.3     9  ILE9        0.0001
     32  N          7.5360  -26.3080   -1.3190 N.3    17  ALA17      -0.1231
     33  CA         6.5860  -25.4540   -1.9460 C.3    17  ALA17       0.1694
     34  C          6.0290  -26.0610   -3.2150 C.2    17  ALA17       0.2591
     35  O          4.8370  -26.0300   -3.4780 O.2    17  ALA17      -0.2718
     36  CB         7.1530  -24.0430   -2.1320 C.3    17  ALA17       0.0304
     37  N          6.9260  -26.5840   -4.0710 N.am   18  ILE18      -0.1980
     38  CA         6.6020  -27.4680   -5.2030 C.3    18  ILE18       0.1595
     39  C          6.9500  -28.9050   -4.7130 C.2    18  ILE18       0.2287
     40  O          8.0940  -29.1950   -4.4260 O.2    18  ILE18      -0.2864
     41  CB         7.4940  -27.1190   -6.4020 C.3    18  ILE18       0.0276
     42  CG1        7.5700  -25.6420   -6.7660 C.3    18  ILE18       0.0022
     43  CG2        7.0400  -27.9280   -7.6560 C.3    18  ILE18       0.0022
     44  CD1        8.7940  -25.1750   -7.5190 C.3    18  ILE18       0.0001
     45  N          2.3910  -26.7110   -2.5030 N.3    21  TYR21      -0.1227
     46  CA         1.6390  -25.4420   -2.4950 C.3    21  TYR21       0.1736
     47  C          1.6070  -24.7910   -3.8880 C.2    21  TYR21       0.2596
     48  O          1.1150  -23.6550   -4.0850 O.2    21  TYR21      -0.2718
     49  CB         2.1730  -24.4380   -1.4990 C.3    21  TYR21       0.0548
     50  CG         1.9950  -24.8920   -0.1050 C.ar   21  TYR21      -0.0200
     51  CD1        0.7580  -24.7530    0.5360 C.ar   21  TYR21      -0.0009
     52  CD2        3.0510  -25.4620    0.6280 C.ar   21  TYR21      -0.0009
     53  CE1        0.6130  -25.1600    1.8680 C.ar   21  TYR21       0.0417
     54  CE2        2.8690  -25.8680    1.9280 C.ar   21  TYR21       0.0417
     55  CZ         1.6700  -25.6920    2.5630 C.ar   21  TYR21       0.1957
     56  OH         1.5100  -26.0960    3.8470 O.3    21  TYR21      -0.2866
     57  N          2.2020  -25.4390   -4.8830 N.am   22  SER22      -0.1952
     58  CA         2.3030  -24.8900   -6.2660 C.3    22  SER22       0.1924
     59  C          1.0610  -25.1110   -7.1160 C.2    22  SER22       0.2314
     60  O          0.8750  -24.5140   -8.1100 O.2    22  SER22      -0.2863
     61  CB         3.5290  -25.4940   -7.0330 C.3    22  SER22       0.2116
     62  OG         3.5880  -26.8980   -6.8800 O.3    22  SER22      -0.2180
     63  N         -6.5000  -21.6370   -5.6140 N.3    27  TYR27      -0.1241
     64  CA        -5.6920  -20.4320   -5.5870 C.3    27  TYR27       0.1605
     65  C         -4.1920  -20.6240   -5.4220 C.2    27  TYR27       0.2264
     66  O         -3.4220  -19.6650   -5.6710 O.2    27  TYR27      -0.2867
     67  CB        -6.2020  -19.4330   -4.5400 C.3    27  TYR27       0.0534
     68  CG        -7.5260  -18.8820   -4.9410 C.ar   27  TYR27      -0.0201
     69  CD1       -7.5750  -17.7490   -5.7270 C.ar   27  TYR27      -0.0009
     70  CD2       -8.7190  -19.4960   -4.5870 C.ar   27  TYR27      -0.0009
     71  CE1       -8.7850  -17.2370   -6.2010 C.ar   27  TYR27       0.0417
     72  CE2       -9.9320  -18.9870   -5.0120 C.ar   27  TYR27       0.0417
     73  CZ        -9.9540  -17.8630   -5.7960 C.ar   27  TYR27       0.1957
     74  OH       -11.1520  -17.2890   -6.2740 O.3    27  TYR27      -0.2866
     75  N         -0.8630  -21.3320   -6.4970 N.3    29  GLY29      -0.1225
     76  CA        -0.1600  -21.6290   -7.7960 C.3    29  GLY29       0.1811
     77  C         -0.7070  -20.7010   -8.8210 C.2    29  GLY29       0.2280
     78  O         -1.3240  -19.7040   -8.4840 O.2    29  GLY29      -0.2866
     79  N         -3.7390  -18.8490    0.0650 N.3    44  CYS44      -0.1235
     80  CA        -3.3440  -18.5060   -1.2710 C.3    44  CYS44       0.1677
     81  C         -4.2360  -17.4560   -1.9020 C.2    44  CYS44       0.2270
     82  O         -3.7110  -16.5850   -2.5930 O.2    44  CYS44      -0.2867
     83  CB        -3.3750  -19.7550   -2.1480 C.3    44  CYS44       0.0956
     84  SG        -2.0970  -20.9140   -1.5710 S.3    44  CYS44      -0.0801
     85  N         -2.9990  -14.2690   -0.4130 N.3    47  HIS47      -0.1226
     86  CA        -1.6700  -13.9890   -1.0170 C.3    47  HIS47       0.1752
     87  C         -1.7850  -13.4200   -2.3970 C.2    47  HIS47       0.2596
     88  O         -1.1160  -12.4680   -2.7250 O.2    47  HIS47      -0.2718
     89  CB        -0.8590  -15.2620   -0.9640 C.3    47  HIS47       0.0759
     90  CG         0.5800  -15.0350   -1.3910 C.ar   47  HIS47       0.0818
     91  ND1        1.0550  -15.4650   -2.5690 N.ar   47  HIS47      -0.2268
     92  CD2        1.6420  -14.4920   -0.7270 C.ar   47  HIS47       0.1154
     93  CE1        2.3450  -15.1400   -2.6590 C.ar   47  HIS47       0.1986
     94  NE2        2.7150  -14.5410   -1.5390 N.ar   47  HIS47      -0.2212
     95  N         -2.6690  -13.9600   -3.2030 N.am   48  ASP48      -0.1974
     96  CA        -2.9510  -13.4370   -4.5370 C.3    48  ASP48       0.1709
     97  C         -3.4670  -12.0050   -4.4310 C.2    48  ASP48       0.2293
     98  O         -3.0220  -11.1200   -5.1720 O.2    48  ASP48      -0.2864
     99  CB        -4.0030  -14.2870   -5.2920 C.3    48  ASP48       0.1436
    100  CG        -3.5050  -15.6270   -5.7130 C.2    48  ASP48       0.3671
    101  OD1       -2.3740  -15.9820   -5.4810 O.co2  48  ASP48      -0.2456
    102  OD2       -4.3190  -16.3440   -6.3410 O.co2  48  ASP48      -0.2456
    103  N         -0.5040   -9.6980   -3.4900 N.3    51  TYR51      -0.1241
    104  CA         0.2760   -9.3600   -4.6620 C.3    51  TYR51       0.1605
    105  C         -0.5130   -8.4170   -5.5440 C.2    51  TYR51       0.2264
    106  O          0.0550   -7.4790   -6.1780 O.2    51  TYR51      -0.2867
    107  CB         0.6470  -10.5700   -5.4830 C.3    51  TYR51       0.0534
    108  CG         1.8200  -11.3750   -4.9720 C.ar   51  TYR51      -0.0201
    109  CD1        2.4760  -11.0890   -3.7730 C.ar   51  TYR51      -0.0009
    110  CD2        2.3270  -12.4170   -5.7350 C.ar   51  TYR51      -0.0009
    111  CE1        3.5720  -11.8530   -3.3620 C.ar   51  TYR51       0.0417
    112  CE2        3.4490  -13.1500   -5.3570 C.ar   51  TYR51       0.0417
    113  CZ         4.0190  -12.8520   -4.1690 C.ar   51  TYR51       0.1957
    114  OH         5.1280  -13.6280   -3.7580 O.3    51  TYR51      -0.2866
    115  N          0.0800  -20.7540    6.0820 N.3    96  PHE96      -0.1241
    116  CA         0.2440  -22.1700    5.7820 C.3    96  PHE96       0.1605
    117  C          0.5920  -22.9440    7.0360 C.2    96  PHE96       0.2264
    118  O          0.0050  -24.0260    7.2920 O.2    96  PHE96      -0.2867
    119  CB         1.3270  -22.4140    4.7500 C.3    96  PHE96       0.0534
    120  CG         1.0440  -21.8650    3.3570 C.ar   96  PHE96      -0.0203
    121  CD1       -0.2270  -21.8370    2.8370 C.ar   96  PHE96      -0.0042
    122  CD2        2.1160  -21.4750    2.5620 C.ar   96  PHE96      -0.0042
    123  CE1       -0.4360  -21.4090    1.5280 C.ar   96  PHE96      -0.0003
    124  CE2        1.9220  -21.0060    1.2600 C.ar   96  PHE96      -0.0003
    125  CZ         0.6600  -20.9940    0.7460 C.ar   96  PHE96      -0.0000
@<TRIPOS>BOND
     1     7     6    1
     2    77    78    2
     3    77    76    1
     4     6     8    1
     5     6     5    1
     6    60    59    2
     7    76    75    1
     8    43    41    1
     9    44    42    1
    10     5     2    1
    11    59    58    1
    12    61    62    1
    13    61    58    1
    14    42    41    1
    15    41    38    1
    16   102   100   ar
    17    74    73    1
    18    58    57    1
    19    71    73   ar
    20    71    69   ar
    21   106   105    2
    22     1     2    1
    23     2     3    1
    24    73    72   ar
    25   110   112   ar
    26   110   108   ar
    27    69    68   ar
    28   100   101   ar
    29   100    99    1
    30    66    65    2
    31    63    64    1
    32    64    65    1
    33    64    67    1
    34   105   104    1
    35   107   108    1
    36   107   104    1
    37   112   113   ar
    38    99    96    1
    39     3     4    2
    40    38    39    1
    41    38    37    1
    42    98    97    2
    43    72    70   ar
    44   108   109   ar
    45    68    70   ar
    46    68    67    1
    47    57    47   am
    48    39    40    2
    49   104   103    1
    50    96    97    1
    51    96    95    1
    52   113   114    1
    53   113   111   ar
    54    48    47    2
    55    37    34   am
    56    47    46    1
    57   109   111   ar
    58    35    34    2
    59    34    33    1
    60    95    87   am
    61    88    87    2
    62    93    91   ar
    63    93    94   ar
    64    82    81    2
    65    91    90   ar
    66    45    46    1
    67    46    49    1
    68    87    86    1
    69    16    18   ar
    70    16    14   ar
    71    83    84    1
    72    83    80    1
    73    36    33    1
    74    18    19   ar
    75    13    14    1
    76    13    10    1
    77    33    32    1
    78    81    80    1
    79    20    21    1
    80    20    11   am
    81    21    22    1
    82     9    10    1
    83    94    92   ar
    84    49    50    1
    85    14    15   ar
    86    90    89    1
    87    90    92   ar
    88    80    79    1
    89    10    11    1
    90    86    89    1
    91    86    85    1
    92    11    12    2
    93    19    17   ar
    94    22    23    2
    95    31    29    1
    96    50    51   ar
    97    50    52   ar
    98    15    17   ar
    99    51    53   ar
   100    52    54   ar
   101   125   124   ar
   102   125   123   ar
   103    29    28    1
   104   124   122   ar
   105   123   121   ar
   106    28    30    1
   107    28    25    1
   108    53    55   ar
   109    54    55   ar
   110   122   120   ar
   111    55    56    1
   112    24    25    1
   113   121   120   ar
   114    25    26    1
   115   120   119    1
   116    26    27    2
   117   119   116    1
   118   116   115    1
   119   116   117    1
   120   117   118    2
