@<TRIPOS>MOLECULE
tmp/4qeoA01.pdb
 173 173 0 0 0
SMALL
GASTEIGER

@<TRIPOS>ATOM
      1  N         10.8670   -0.8720   29.7530 N.3   339  ARG339     -0.1245
      2  CA        12.1310   -0.1640   29.8570 C.3   339  ARG339      0.1563
      3  C         12.0730    1.0720   28.9800 C.2   339  ARG339      0.2260
      4  O         11.8050    0.9870   27.7790 O.2   339  ARG339     -0.2867
      5  CB        13.2990   -1.0620   29.4380 C.3   339  ARG339      0.0307
      6  CG        14.6830   -0.5140   29.7900 C.3   339  ARG339      0.0489
      7  CD        15.0200   -0.7150   31.2720 C.3   339  ARG339      0.2205
      8  NE        16.1660    0.0960   31.6890 N.pl3 339  ARG339     -0.0865
      9  CZ        16.5740    0.2360   32.9490 C.cat 339  ARG339      0.5346
     10  NH1       15.9350   -0.3790   33.9350 N.pl3 339  ARG339      0.1354
     11  NH2       17.6240    1.0000   33.2270 N.pl3 339  ARG339      0.1354
     12  N         15.9110    6.3630   29.0790 N.3   342  LYS342     -0.1231
     13  CA        16.8270    6.7610   30.1430 C.3   342  LYS342      0.1693
     14  C         16.1190    7.1440   31.4530 C.2   342  LYS342      0.2592
     15  O         16.6330    7.9380   32.2390 O.2   342  LYS342     -0.2718
     16  CB        17.6960    7.8980   29.6420 C.3   342  LYS342      0.0285
     17  CG        16.8410    8.9710   29.0880 C.3   342  LYS342      0.0035
     18  CD        17.2090    9.1910   27.5930 C.3   342  LYS342      0.0206
     19  CE        18.3750   10.1550   27.4990 C.3   342  LYS342      0.1093
     20  NZ        18.4020   10.8660   26.2430 N.3   342  LYS342     -0.1314
     21  N         14.9500    6.5690   31.7080 N.am  343  LYS343     -0.1966
     22  CA        14.3100    6.7660   33.0050 C.3   343  LYS343      0.1728
     23  C         14.2630    5.4220   33.6980 C.2   343  LYS343      0.2617
     24  O         13.7720    5.2960   34.8220 O.2   343  LYS343     -0.2715
     25  CB        12.9050    7.3660   32.8620 C.3   343  LYS343      0.0311
     26  CG        12.8810    8.6970   32.1330 C.3   343  LYS343      0.0038
     27  CD        11.5200    9.3650   32.2020 C.3   343  LYS343      0.0206
     28  CE        10.4710    8.6200   31.3880 C.3   343  LYS343      0.1093
     29  NZ         9.1830    9.3880   31.3460 N.3   343  LYS343     -0.1314
     30  N         14.7980    4.4130   33.0200 N.am  344  GLY344     -0.1940
     31  CA        14.7310    3.0560   33.5280 C.3   344  GLY344      0.2014
     32  C         13.3460    2.4800   33.3050 C.2   344  GLY344      0.2638
     33  O         12.8170    2.5250   32.1910 O.2   344  GLY344     -0.2714
     34  N         12.7400    1.9540   34.3630 N.am  345  TRP345     -0.1973
     35  CA        11.4110    1.3680   34.2400 C.3   345  TRP345      0.1640
     36  C         10.3020    2.4250   34.1820 C.2   345  TRP345      0.2290
     37  O         10.4000    3.4870   34.8010 O.2   345  TRP345     -0.2864
     38  CB        11.1690    0.3380   35.3490 C.3   345  TRP345      0.0576
     39  CG        12.1310   -0.8010   35.2770 C.ar  345  TRP345      0.0006
     40  CD1       13.1490   -1.0780   36.1450 C.ar  345  TRP345      0.0946
     41  CD2       12.1900   -1.8080   34.2570 C.ar  345  TRP345      0.0152
     42  NE1       13.8270   -2.2040   35.7380 N.ar  345  TRP345     -0.2442
     43  CE2       13.2580   -2.6720   34.5820 C.ar  345  TRP345      0.0810
     44  CE3       11.4360   -2.0700   33.1070 C.ar  345  TRP345      0.0012
     45  CZ2       13.5940   -3.7740   33.7940 C.ar  345  TRP345      0.0191
     46  CZ3       11.7690   -3.1660   32.3270 C.ar  345  TRP345      0.0001
     47  CH2       12.8410   -4.0020   32.6730 C.ar  345  TRP345      0.0015
     48  N         15.6910    5.7350   45.8500 N.3   374  GLU374     -0.1231
     49  CA        14.8490    6.2880   44.7900 C.3   374  GLU374      0.1699
     50  C         13.3570    5.9810   44.9360 C.2   374  GLU374      0.2592
     51  O         12.5250    6.6250   44.3000 O.2   374  GLU374     -0.2718
     52  CB        15.3410    5.8090   43.4190 C.3   374  GLU374      0.0402
     53  CG        16.7820    6.2020   43.0950 C.3   374  GLU374      0.1161
     54  CD        17.2410    5.6830   41.7400 C.2   374  GLU374      0.3649
     55  OE1       16.7210    4.6350   41.2970 O.co2 374  GLU374     -0.2457
     56  OE2       18.1150    6.3240   41.1160 O.co2 374  GLU374     -0.2457
     57  N         13.0130    5.0050   45.7700 N.am  375  TYR375     -0.1976
     58  CA        11.6370    4.5160   45.8070 C.3   375  TYR375      0.1639
     59  C         10.9460    4.7840   47.1320 C.2   375  TYR375      0.2290
     60  O         10.1150    3.9910   47.5880 O.2   375  TYR375     -0.2864
     61  CB        11.5920    3.0260   45.4750 C.3   375  TYR375      0.0560
     62  CG        12.2610    2.6770   44.1650 C.ar  375  TYR375     -0.0198
     63  CD1       11.5280    2.5750   42.9920 C.ar  375  TYR375     -0.0009
     64  CD2       13.6310    2.4490   44.1040 C.ar  375  TYR375     -0.0009
     65  CE1       12.1350    2.2470   41.8000 C.ar  375  TYR375      0.0417
     66  CE2       14.2460    2.1280   42.9170 C.ar  375  TYR375      0.0417
     67  CZ        13.4950    2.0290   41.7670 C.ar  375  TYR375      0.1957
     68  OH        14.1110    1.7080   40.5800 O.3   375  TYR375     -0.2866
     69  N          5.6400    1.7760   42.3710 N.3   396  ARG396     -0.1231
     70  CA         7.0250    2.2500   42.4100 C.3   396  ARG396      0.1694
     71  C          7.6900    2.3750   41.0290 C.2   396  ARG396      0.2592
     72  O          8.7320    3.0230   40.8950 O.2   396  ARG396     -0.2718
     73  CB         7.8710    1.3550   43.3310 C.3   396  ARG396      0.0321
     74  CG         7.8390   -0.1190   42.9570 C.3   396  ARG396      0.0489
     75  CD         9.1070   -0.5470   42.2440 C.3   396  ARG396      0.2205
     76  NE        10.2120   -0.7130   43.1820 N.pl3 396  ARG396     -0.0865
     77  CZ        11.4700   -0.9620   42.8290 C.cat 396  ARG396      0.5346
     78  NH1       12.3990   -1.0960   43.7610 N.pl3 396  ARG396      0.1354
     79  NH2       11.7990   -1.0700   41.5490 N.pl3 396  ARG396      0.1354
     80  N          7.0990    1.7520   40.0130 N.am  397  PHE397     -0.1962
     81  CA         7.6670    1.7820   38.6670 C.3   397  PHE397      0.1771
     82  C          7.2010    2.9940   37.8630 C.2   397  PHE397      0.2619
     83  O          7.6490    3.2140   36.7310 O.2   397  PHE397     -0.2715
     84  CB         7.3190    0.4980   37.9050 C.3   397  PHE397      0.0574
     85  CG         8.0100   -0.7230   38.4350 C.ar  397  PHE397     -0.0200
     86  CD1        9.3670   -0.9040   38.2310 C.ar  397  PHE397     -0.0042
     87  CD2        7.3070   -1.6860   39.1450 C.ar  397  PHE397     -0.0042
     88  CE1       10.0160   -2.0220   38.7250 C.ar  397  PHE397     -0.0003
     89  CE2        7.9470   -2.8110   39.6370 C.ar  397  PHE397     -0.0003
     90  CZ         9.3050   -2.9770   39.4240 C.ar  397  PHE397     -0.0000
     91  N          6.3020    3.7780   38.4480 N.am  398  ILE398     -0.1963
     92  CA         5.7430    4.9300   37.7460 C.3   398  ILE398      0.1727
     93  C          6.6490    6.1550   37.8220 C.2   398  ILE398      0.2616
     94  O          7.0120    6.6000   38.9060 O.2   398  ILE398     -0.2715
     95  CB         4.3330    5.2670   38.2580 C.3   398  ILE398      0.0290
     96  CG1        3.3960    4.0760   38.0100 C.3   398  ILE398      0.0022
     97  CG2        3.8250    6.5430   37.5940 C.3   398  ILE398      0.0023
     98  CD1        2.0270    4.1420   38.7480 C.3   398  ILE398      0.0001
     99  N          7.0090    6.7020   36.6630 N.am  399  ASN399     -0.1958
    100  CA         7.9600    7.8040   36.6060 C.3   399  ASN399      0.1819
    101  C          7.3690    9.1690   36.8990 C.2   399  ASN399      0.2621
    102  O          6.1510    9.3420   36.9060 O.2   399  ASN399     -0.2715
    103  CB         8.6640    7.8340   35.2450 C.3   399  ASN399      0.1195
    104  CG         9.5790    6.6510   35.0560 C.2   399  ASN399      0.2630
    105  OD1       10.3020    6.2590   35.9810 O.2   399  ASN399     -0.2716
    106  ND2        9.5380    6.0530   33.8710 N.am  399  ASN399     -0.0877
    107  N          8.2620   10.1290   37.1350 N.am  400  HIS400     -0.1973
    108  CA         7.9100   11.5330   37.2970 C.3   400  HIS400      0.1656
    109  C          7.7290   12.2040   35.9380 C.2   400  HIS400      0.2291
    110  O          8.4010   11.8560   34.9660 O.2   400  HIS400     -0.2864
    111  CB         9.0160   12.2650   38.0720 C.3   400  HIS400      0.0771
    112  CG         9.0000   13.7590   37.9090 C.ar  400  HIS400      0.0820
    113  ND1        8.4050   14.6020   38.8230 N.ar  400  HIS400     -0.2267
    114  CD2        9.5110   14.5580   36.9390 C.ar  400  HIS400      0.1154
    115  CE1        8.5410   15.8550   38.4190 C.ar  400  HIS400      0.1986
    116  NE2        9.2110   15.8560   37.2800 N.ar  400  HIS400     -0.2212
    117  N          6.5550   14.3590   41.0730 N.3   441  TYR441     -0.1241
    118  CA         7.1780   14.0410   42.3630 C.3   441  TYR441      0.1605
    119  C          7.1840   15.2660   43.2720 C.2   441  TYR441      0.2264
    120  O          6.9940   15.1630   44.4870 O.2   441  TYR441     -0.2867
    121  CB         8.6140   13.5410   42.1840 C.3   441  TYR441      0.0534
    122  CG         8.7460   12.1600   41.5810 C.ar  441  TYR441     -0.0201
    123  CD1        7.6230   11.3970   41.2610 C.ar  441  TYR441     -0.0009
    124  CD2       10.0030   11.6120   41.3400 C.ar  441  TYR441     -0.0009
    125  CE1        7.7520   10.1290   40.7080 C.ar  441  TYR441      0.0417
    126  CE2       10.1460   10.3510   40.7910 C.ar  441  TYR441      0.0417
    127  CZ         9.0200    9.6110   40.4730 C.ar  441  TYR441      0.1957
    128  OH         9.1790    8.3490   39.9320 O.3   441  TYR441     -0.2866
    129  N         19.6560   16.0070   39.9970 N.3   458  LEU458     -0.1231
    130  CA        19.2170   14.9530   39.0930 C.3   458  LEU458      0.1693
    131  C         18.5550   15.5810   37.8730 C.2   458  LEU458      0.2592
    132  O         17.6640   16.4230   38.0070 O.2   458  LEU458     -0.2718
    133  CB        18.2210   14.0200   39.7920 C.3   458  LEU458      0.0284
    134  CG        18.5420   12.5240   39.8060 C.3   458  LEU458      0.0019
    135  CD1       17.3220   11.6990   40.1840 C.3   458  LEU458      0.0001
    136  CD2       19.1050   12.0720   38.4690 C.3   458  LEU458      0.0001
    137  N         18.9910   15.1730   36.6860 N.am  459  ALA459     -0.1966
    138  CA        18.4070   15.6800   35.4490 C.3   459  ALA459      0.1728
    139  C         17.0740   14.9980   35.1400 C.2   459  ALA459      0.2616
    140  O         16.8980   13.7950   35.3800 O.2   459  ALA459     -0.2715
    141  CB        19.3800   15.5230   34.2870 C.3   459  ALA459      0.0334
    142  N         16.1390   15.7860   34.6160 N.am  460  CYS460     -0.1954
    143  CA        14.8210   15.2930   34.2750 C.3   460  CYS460      0.1843
    144  C         14.6620   15.0960   32.8010 C.2   460  CYS460      0.2625
    145  O         15.0910   15.8890   31.9540 O.2   460  CYS460     -0.2714
    146  CB        13.7170   16.2260   34.7530 C.3   460  CYS460      0.0997
    147  SG        12.0550   15.5890   34.4090 S.3   460  CYS460     -0.0797
    148  N         13.9630   14.0250   32.5110 N.am  461  TYR461     -0.1960
    149  CA        13.8470   13.5960   31.1540 C.3   461  TYR461      0.1771
    150  C         12.3780   13.2350   30.8100 C.2   461  TYR461      0.2619
    151  O         12.0830   12.3850   29.9590 O.2   461  TYR461     -0.2715
    152  CB        14.8770   12.4780   30.8810 C.3   461  TYR461      0.0574
    153  CG        14.2700   11.4360   29.9920 C.ar  461  TYR461     -0.0198
    154  CD1       14.1870   11.6050   28.6170 C.ar  461  TYR461     -0.0009
    155  CD2       13.6620   10.3240   30.5510 C.ar  461  TYR461     -0.0009
    156  CE1       13.5630   10.6810   27.8590 C.ar  461  TYR461      0.0417
    157  CE2       13.0210    9.3720   29.7860 C.ar  461  TYR461      0.0417
    158  CZ        12.9890    9.5240   28.4640 C.ar  461  TYR461      0.1957
    159  OH        12.2960    8.4880   27.8770 O.3   461  TYR461     -0.2866
    160  N         11.4290   13.9330   31.4220 N.am  462  CYS462     -0.1968
    161  CA        10.0410   13.5790   31.1240 C.3   462  CYS462      0.1712
    162  C          9.6910   13.9230   29.6680 C.2   462  CYS462      0.2296
    163  O          8.7350   13.3890   29.1040 O.2   462  CYS462     -0.2864
    164  CB         9.0580   14.2020   32.1100 C.3   462  CYS462      0.0983
    165  SG         9.0230   15.9710   31.9770 S.3   462  CYS462     -0.0798
    166  N         14.8310   17.0390   38.2920 N.3   471  LEU471     -0.1245
    167  CA        14.0470   16.3660   39.3250 C.3   471  LEU471      0.1561
    168  C         14.2380   17.1330   40.6280 C.2   471  LEU471      0.2260
    169  O         13.2750   17.4580   41.3230 O.2   471  LEU471     -0.2867
    170  CB        14.4950   14.9080   39.5090 C.3   471  LEU471      0.0270
    171  CG        13.9080   13.8130   38.6080 C.3   471  LEU471      0.0019
    172  CD1       13.6460   12.5260   39.3930 C.3   471  LEU471      0.0001
    173  CD2       12.6410   14.2900   37.9340 C.3   471  LEU471      0.0001
@<TRIPOS>BOND
     1    20    19    1
     2    19    18    1
     3    18    17    1
     4     4     3    2
     5   156   158   ar
     6   156   154   ar
     7   159   158    1
     8   158   157   ar
     9   154   153   ar
    10     3     2    1
    11    12    13    1
    12    17    16    1
    13   163   162    2
    14     5     6    1
    15     5     2    1
    16    16    13    1
    17   162   161    1
    18     1     2    1
    19   157   155   ar
    20     6     7    1
    21   151   150    2
    22   153   155   ar
    23   153   152    1
    24    13    14    1
    25   150   149    1
    26   150   160   am
    27   152   149    1
    28   161   160    1
    29   161   164    1
    30   149   148    1
    31     7     8    1
    32    29    28    1
    33    28    27    1
    34    14    21   am
    35    14    15    2
    36     8     9    2
    37    21    22    1
    38   145   144    2
    39   165   164    1
    40    26    27    1
    41    26    25    1
    42    33    32    2
    43    46    47   ar
    44    46    44   ar
    45   148   144   am
    46    47    45   ar
    47   144   143    1
    48    25    22    1
    49     9    11    1
    50     9    10    1
    51    22    23    1
    52    30    31    1
    53    30    23   am
    54    44    41   ar
    55    32    31    1
    56    32    34   am
    57    23    24    2
    58    45    43   ar
    59   106   104   am
    60    36    35    1
    61    36    37    2
    62    35    34    1
    63    35    38    1
    64    41    43   ar
    65    41    39   ar
    66   143   142    1
    67   143   146    1
    68   141   138    1
    69   147   146    1
    70    43    42   ar
    71   142   139   am
    72   110   109    2
    73   104   103    1
    74   104   105    2
    75   139   140    2
    76   139   138    1
    77   103   100    1
    78    39    38    1
    79    39    40   ar
    80   138   137    1
    81    42    40   ar
    82   109   108    1
    83   100    99    1
    84   100   101    1
    85    99    93   am
    86   137   131   am
    87    83    82    2
    88   101   102    2
    89   101   107   am
    90   114   116   ar
    91   114   112   ar
    92   107   108    1
    93   116   115   ar
    94   108   111    1
    95    97    95    1
    96    92    93    1
    97    92    95    1
    98    92    91    1
    99    93    94    2
   100    82    91   am
   101    82    81    1
   102   131   132    2
   103   131   130    1
   104    84    85    1
   105    84    81    1
   106   112   111    1
   107   112   113   ar
   108   173   171    1
   109    96    95    1
   110    96    98    1
   111    86    85   ar
   112    86    88   ar
   113   166   167    1
   114   115   113   ar
   115    85    87   ar
   116   136   134    1
   117   171   172    1
   118   171   170    1
   119    81    80    1
   120    88    90   ar
   121   130   133    1
   122   130   129    1
   123    87    89   ar
   124   167   170    1
   125   167   168    1
   126    90    89   ar
   127   133   134    1
   128   134   135    1
   129   128   127    1
   130    80    71   am
   131   127   125   ar
   132   127   126   ar
   133    68    67    1
   134   168   169    2
   135   125   123   ar
   136   126   124   ar
   137    72    71    2
   138    71    70    1
   139   117   118    1
   140    56    54   ar
   141   123   122   ar
   142    55    54   ar
   143   124   122   ar
   144    79    77    1
   145   122   121    1
   146    54    53    1
   147    67    65   ar
   148    67    66   ar
   149    65    63   ar
   150   121   118    1
   151    75    74    1
   152    75    76    1
   153   118   119    1
   154    69    70    1
   155    70    73    1
   156    77    76    2
   157    77    78    1
   158    66    64   ar
   159    74    73    1
   160    63    62   ar
   161    53    52    1
   162   119   120    2
   163    52    49    1
   164    64    62   ar
   165    62    61    1
   166    51    50    2
   167    49    50    1
   168    49    48    1
   169    50    57   am
   170    61    58    1
   171    57    58    1
   172    58    59    1
   173    59    60    2
