@<TRIPOS>MOLECULE
tmp/4qeoA00.pdb
 202 199 0 0 0
SMALL
GASTEIGER

@<TRIPOS>ATOM
      1  N         -9.8500   19.2540   32.3760 N.3    12  ARG12      -0.1245
      2  CA       -10.0290   18.8190   33.7760 C.3    12  ARG12       0.1563
      3  C        -11.2390   19.5020   34.4030 C.2    12  ARG12       0.2260
      4  O        -12.0270   18.8680   35.1180 O.2    12  ARG12      -0.2867
      5  CB        -8.7730   19.0570   34.6320 C.3    12  ARG12       0.0307
      6  CG        -7.5640   18.2500   34.1880 C.3    12  ARG12       0.0489
      7  CD        -6.3120   18.5940   34.9810 C.3    12  ARG12       0.2205
      8  NE        -5.2130   17.6960   34.6310 N.pl3  12  ARG12      -0.0865
      9  CZ        -3.9850   17.7760   35.1370 C.cat  12  ARG12       0.5346
     10  NH1       -3.6950   18.7110   36.0310 N.pl3  12  ARG12       0.1354
     11  NH2       -3.0550   16.9120   34.7620 N.pl3  12  ARG12       0.1354
     12  N         -9.9580   16.3540   43.4100 N.3   305  SER305     -0.1202
     13  CA        -8.9180   16.2110   44.4010 C.3   305  SER305      0.2020
     14  C         -9.3250   16.9180   45.6810 C.2   305  SER305      0.2619
     15  O        -10.0640   17.9050   45.6500 O.2   305  SER305     -0.2717
     16  CB        -7.6130   16.7970   43.8730 C.3   305  SER305      0.2103
     17  OG        -6.5530   16.5470   44.7760 O.3   305  SER305     -0.2182
     18  N         -8.8480   16.3850   46.7990 N.am  306  ARG306     -0.1965
     19  CA        -9.1210   16.9280   48.1290 C.3   306  ARG306      0.1729
     20  C         -7.8710   16.8250   48.9780 C.2   306  ARG306      0.2616
     21  O         -6.9400   16.0960   48.6280 O.2   306  ARG306     -0.2715
     22  CB       -10.2180   16.1180   48.8230 C.3   306  ARG306      0.0348
     23  CG       -11.4960   15.9830   48.0290 C.3   306  ARG306      0.0492
     24  CD       -12.6890   16.1200   48.9340 C.3   306  ARG306      0.2205
     25  NE       -13.9320   15.7880   48.2520 N.pl3 306  ARG306     -0.0865
     26  CZ       -15.1110   15.7190   48.8610 C.cat 306  ARG306      0.5346
     27  NH1      -15.1990   15.9600   50.1610 N.pl3 306  ARG306      0.1354
     28  NH2      -16.2010   15.4090   48.1710 N.pl3 306  ARG306      0.1354
     29  N         -7.8640   17.5260   50.1110 N.am  307  ASP307     -0.1971
     30  CA        -6.8190   17.3570   51.1110 C.3   307  ASP307      0.1709
     31  C         -6.7790   15.8990   51.5430 C.2   307  ASP307      0.2293
     32  O         -5.7080   15.2910   51.6260 O.2   307  ASP307     -0.2864
     33  CB        -7.0680   18.2530   52.3270 C.3   307  ASP307      0.1436
     34  CG        -6.6330   19.6850   52.0940 C.2   307  ASP307      0.3671
     35  OD1       -5.9180   19.9320   51.0990 O.co2 307  ASP307     -0.2456
     36  OD2       -6.9970   20.5620   52.9080 O.co2 307  ASP307     -0.2456
     37  N          0.0970    3.5270   46.4730 N.3   362  TYR362     -0.1241
     38  CA         1.5300    3.3220   46.5880 C.3   362  TYR362      0.1605
     39  C          1.7940    2.3740   47.7670 C.2   362  TYR362      0.2264
     40  O          1.6880    2.7720   48.9240 O.2   362  TYR362     -0.2867
     41  CB         2.2460    4.6560   46.7790 C.3   362  TYR362      0.0534
     42  CG         3.7300    4.5960   46.4970 C.ar  362  TYR362     -0.0201
     43  CD1        4.6260    4.2230   47.4900 C.ar  362  TYR362     -0.0009
     44  CD2        4.2350    4.9090   45.2430 C.ar  362  TYR362     -0.0009
     45  CE1        5.9840    4.1610   47.2470 C.ar  362  TYR362      0.0417
     46  CE2        5.5980    4.8500   44.9880 C.ar  362  TYR362      0.0417
     47  CZ         6.4670    4.4770   46.0020 C.ar  362  TYR362      0.1957
     48  OH         7.8250    4.4140   45.7750 O.3   362  TYR362     -0.2866
     49  N         15.6910    5.7350   45.8500 N.3   374  GLU374     -0.1231
     50  CA        14.8490    6.2880   44.7900 C.3   374  GLU374      0.1699
     51  C         13.3570    5.9810   44.9360 C.2   374  GLU374      0.2592
     52  O         12.5250    6.6250   44.3000 O.2   374  GLU374     -0.2718
     53  CB        15.3410    5.8090   43.4190 C.3   374  GLU374      0.0402
     54  CG        16.7820    6.2020   43.0950 C.3   374  GLU374      0.1161
     55  CD        17.2410    5.6830   41.7400 C.2   374  GLU374      0.3649
     56  OE1       16.7210    4.6350   41.2970 O.co2 374  GLU374     -0.2457
     57  OE2       18.1150    6.3240   41.1160 O.co2 374  GLU374     -0.2457
     58  N         13.0130    5.0050   45.7700 N.am  375  TYR375     -0.1962
     59  CA        11.6370    4.5160   45.8070 C.3   375  TYR375      0.1771
     60  C         10.9460    4.7840   47.1320 C.2   375  TYR375      0.2619
     61  O         10.1150    3.9910   47.5880 O.2   375  TYR375     -0.2715
     62  CB        11.5920    3.0260   45.4750 C.3   375  TYR375      0.0574
     63  CG        12.2610    2.6770   44.1650 C.ar  375  TYR375     -0.0198
     64  CD1       11.5280    2.5750   42.9920 C.ar  375  TYR375     -0.0009
     65  CD2       13.6310    2.4490   44.1040 C.ar  375  TYR375     -0.0009
     66  CE1       12.1350    2.2470   41.8000 C.ar  375  TYR375      0.0417
     67  CE2       14.2460    2.1280   42.9170 C.ar  375  TYR375      0.0417
     68  CZ        13.4950    2.0290   41.7670 C.ar  375  TYR375      0.1957
     69  OH        14.1110    1.7080   40.5800 O.3   375  TYR375     -0.2866
     70  N         11.2820    5.9110   47.7460 N.am  376  ILE376     -0.1963
     71  CA        10.6490    6.3070   48.9970 C.3   376  ILE376      0.1727
     72  C          9.6280    7.4170   48.7880 C.2   376  ILE376      0.2616
     73  O          9.9420    8.4800   48.2490 O.2   376  ILE376     -0.2715
     74  CB        11.6850    6.7670   50.0170 C.3   376  ILE376      0.0290
     75  CG1       12.6430    5.6250   50.3270 C.3   376  ILE376      0.0022
     76  CG2       11.0070    7.2530   51.2860 C.3   376  ILE376      0.0023
     77  CD1       13.6440    5.9830   51.3550 C.3   376  ILE376      0.0001
     78  N          8.4000    7.1580   49.2120 N.am  377  PHE377     -0.1960
     79  CA         7.3310    8.1390   49.1050 C.3   377  PHE377      0.1771
     80  C          7.0110    8.6910   50.4940 C.2   377  PHE377      0.2619
     81  O          6.4780    7.9800   51.3390 O.2   377  PHE377     -0.2715
     82  CB         6.0810    7.4890   48.4940 C.3   377  PHE377      0.0574
     83  CG         5.1190    8.4710   47.8720 C.ar  377  PHE377     -0.0200
     84  CD1        4.4470    9.3990   48.6570 C.ar  377  PHE377     -0.0042
     85  CD2        4.8740    8.4500   46.5080 C.ar  377  PHE377     -0.0042
     86  CE1        3.5620   10.3020   48.0980 C.ar  377  PHE377     -0.0003
     87  CE2        3.9890    9.3540   45.9350 C.ar  377  PHE377     -0.0003
     88  CZ         3.3290   10.2820   46.7370 C.ar  377  PHE377     -0.0000
     89  N          7.3270    9.9580   50.7340 N.am  378  GLU378     -0.1977
     90  CA         6.9860   10.5650   52.0170 C.3   378  GLU378      0.1602
     91  C          5.4950   10.8610   52.1130 C.2   378  GLU378      0.2287
     92  O          4.8920   11.3720   51.1760 O.2   378  GLU378     -0.2864
     93  CB         7.7980   11.8380   52.2560 C.3   378  GLU378      0.0415
     94  CG         9.2350   11.5730   52.6630 C.3   378  GLU378      0.1163
     95  CD        10.0270   12.8460   52.8630 C.2   378  GLU378      0.3649
     96  OE1        9.4870   13.9350   52.5710 O.co2 378  GLU378     -0.2457
     97  OE2       11.1880   12.7570   53.3110 O.co2 378  GLU378     -0.2457
     98  N          2.6940   13.0780   53.3520 N.3   380  ASP380     -0.1239
     99  CA         2.3660   14.4020   53.8790 C.3   380  ASP380      0.1674
    100  C          1.0340   14.9170   53.3370 C.2   380  ASP380      0.2266
    101  O          0.8740   15.1210   52.1330 O.2   380  ASP380     -0.2867
    102  CB         3.4910   15.4040   53.5840 C.3   380  ASP380      0.1410
    103  CG         3.2450   16.7690   54.2140 C.2   380  ASP380      0.3668
    104  OD1        3.9980   17.7130   53.8940 O.co2 380  ASP380     -0.2456
    105  OD2        2.3030   16.9040   55.0280 O.co2 380  ASP380     -0.2456
    106  N          7.9730   15.3550   57.7090 N.3   382  PRO382     -0.2116
    107  CA         7.0830   14.1910   57.5960 C.3   382  PRO382      0.1372
    108  C          7.6200   13.0270   58.4150 C.2   382  PRO382      0.2244
    109  O          8.7610   12.6180   58.2120 O.2   382  PRO382     -0.2868
    110  CB         7.1280   13.8520   56.0990 C.3   382  PRO382      0.0268
    111  CG         7.6300   15.0990   55.4280 C.3   382  PRO382      0.0207
    112  CD         8.5520   15.7440   56.4130 C.3   382  PRO382      0.0892
    113  N          5.6400    1.7760   42.3710 N.3   396  ARG396     -0.1245
    114  CA         7.0250    2.2500   42.4100 C.3   396  ARG396      0.1563
    115  C          7.6900    2.3750   41.0290 C.2   396  ARG396      0.2260
    116  O          8.7320    3.0230   40.8950 O.2   396  ARG396     -0.2867
    117  CB         7.8710    1.3550   43.3310 C.3   396  ARG396      0.0307
    118  CG         7.8390   -0.1190   42.9570 C.3   396  ARG396      0.0489
    119  CD         9.1070   -0.5470   42.2440 C.3   396  ARG396      0.2205
    120  NE        10.2120   -0.7130   43.1820 N.pl3 396  ARG396     -0.0865
    121  CZ        11.4700   -0.9620   42.8290 C.cat 396  ARG396      0.5346
    122  NH1       12.3990   -1.0960   43.7610 N.pl3 396  ARG396      0.1354
    123  NH2       11.7990   -1.0700   41.5490 N.pl3 396  ARG396      0.1354
    124  N          6.3020    3.7780   38.4480 N.3   398  ILE398     -0.1245
    125  CA         5.7430    4.9300   37.7460 C.3   398  ILE398      0.1561
    126  C          6.6490    6.1550   37.8220 C.2   398  ILE398      0.2260
    127  O          7.0120    6.6000   38.9060 O.2   398  ILE398     -0.2867
    128  CB         4.3330    5.2670   38.2580 C.3   398  ILE398      0.0252
    129  CG1        3.3960    4.0760   38.0100 C.3   398  ILE398      0.0019
    130  CG2        3.8250    6.5430   37.5940 C.3   398  ILE398      0.0019
    131  CD1        2.0270    4.1420   38.7480 C.3   398  ILE398      0.0001
    132  N         -2.3790   12.0800   39.5750 N.3   407  PHE407     -0.1227
    133  CA        -2.1230   12.8680   40.7640 C.3   407  PHE407      0.1736
    134  C         -2.2570   12.0080   42.0200 C.2   407  PHE407      0.2595
    135  O         -2.9040   10.9470   42.0030 O.2   407  PHE407     -0.2718
    136  CB        -3.0290   14.0970   40.8260 C.3   407  PHE407      0.0547
    137  CG        -4.4680   13.7920   41.1490 C.ar  407  PHE407     -0.0202
    138  CD1       -5.3530   13.4180   40.1530 C.ar  407  PHE407     -0.0042
    139  CD2       -4.9400   13.9120   42.4530 C.ar  407  PHE407     -0.0042
    140  CE1       -6.6830   13.1580   40.4480 C.ar  407  PHE407     -0.0003
    141  CE2       -6.2620   13.6530   42.7570 C.ar  407  PHE407     -0.0003
    142  CZ        -7.1390   13.2750   41.7520 C.ar  407  PHE407     -0.0000
    143  N         -1.6130   12.4790   43.0840 N.am  408  VAL408     -0.1980
    144  CA        -1.5820   11.8250   44.3800 C.3   408  VAL408      0.1595
    145  C         -2.7270   12.2990   45.2530 C.2   408  VAL408      0.2287
    146  O         -2.9050   13.5000   45.4610 O.2   408  VAL408     -0.2864
    147  CB        -0.2670   12.1420   45.1180 C.3   408  VAL408      0.0276
    148  CG1       -0.3760   11.7690   46.5890 C.3   408  VAL408      0.0022
    149  CG2        0.8930   11.4250   44.4590 C.3   408  VAL408      0.0022
    150  N         -5.6010   11.9770   36.4940 N.3   428  ALA428     -0.1245
    151  CA        -5.9820   13.3880   36.4390 C.3   428  ALA428      0.1562
    152  C         -6.6820   13.7120   35.1210 C.2   428  ALA428      0.2260
    153  O         -7.4160   14.6980   35.0000 O.2   428  ALA428     -0.2867
    154  CB        -4.7490   14.2720   36.5890 C.3   428  ALA428      0.0290
    155  N          3.2970   10.9940   37.4030 N.3   439  TYR439     -0.1227
    156  CA         2.8220   12.0030   38.3420 C.3   439  TYR439      0.1736
    157  C          3.9770   12.9390   38.6670 C.2   439  TYR439      0.2595
    158  O          5.1330   12.6200   38.3880 O.2   439  TYR439     -0.2718
    159  CB         2.1980   11.3740   39.6050 C.3   439  TYR439      0.0548
    160  CG         3.1260   10.4990   40.4140 C.ar  439  TYR439     -0.0200
    161  CD1        3.4150    9.2050   40.0070 C.ar  439  TYR439     -0.0009
    162  CD2        3.6940   10.9540   41.6040 C.ar  439  TYR439     -0.0009
    163  CE1        4.2510    8.3870   40.7440 C.ar  439  TYR439      0.0417
    164  CE2        4.5370   10.1350   42.3570 C.ar  439  TYR439      0.0417
    165  CZ         4.8090    8.8490   41.9120 C.ar  439  TYR439      0.1957
    166  OH         5.6450    8.0070   42.6090 O.3   439  TYR439     -0.2866
    167  N          3.6720   14.1020   39.2300 N.am  440  ASP440     -0.1960
    168  CA         4.7240   15.0530   39.6100 C.3   440  ASP440      0.1840
    169  C          5.2760   14.7160   40.9990 C.2   440  ASP440      0.2622
    170  O          4.5500   14.7710   41.9880 O.2   440  ASP440     -0.2715
    171  CB         4.1810   16.4870   39.5600 C.3   440  ASP440      0.1450
    172  CG         5.2270   17.5350   39.9280 C.2   440  ASP440      0.3671
    173  OD1        6.4050   17.1800   40.1490 O.co2 440  ASP440     -0.2456
    174  OD2        4.8670   18.7290   39.9870 O.co2 440  ASP440     -0.2456
    175  N          6.5550   14.3590   41.0730 N.am  441  TYR441     -0.1960
    176  CA         7.1780   14.0410   42.3630 C.3   441  TYR441      0.1771
    177  C          7.1840   15.2660   43.2720 C.2   441  TYR441      0.2620
    178  O          6.9940   15.1630   44.4870 O.2   441  TYR441     -0.2715
    179  CB         8.6140   13.5410   42.1840 C.3   441  TYR441      0.0574
    180  CG         8.7460   12.1600   41.5810 C.ar  441  TYR441     -0.0198
    181  CD1        7.6230   11.3970   41.2610 C.ar  441  TYR441     -0.0009
    182  CD2       10.0030   11.6120   41.3400 C.ar  441  TYR441     -0.0009
    183  CE1        7.7520   10.1290   40.7080 C.ar  441  TYR441      0.0417
    184  CE2       10.1460   10.3510   40.7910 C.ar  441  TYR441      0.0417
    185  CZ         9.0200    9.6110   40.4730 C.ar  441  TYR441      0.1957
    186  OH         9.1790    8.3490   39.9320 O.3   441  TYR441     -0.2866
    187  N          7.4170   16.4230   42.6630 N.am  442  GLY442     -0.1940
    188  CA         7.3750   17.6890   43.3660 C.3   442  GLY442      0.2014
    189  C          8.5520   17.9880   44.2790 C.2   442  GLY442      0.2638
    190  O          8.4030   18.7280   45.2520 O.2   442  GLY442     -0.2714
    191  N          9.7180   17.4200   43.9820 N.am  443  TYR443     -0.1973
    192  CA        10.9360   17.8210   44.6800 C.3   443  TYR443      0.1639
    193  C         11.2110   19.2790   44.3380 C.2   443  TYR443      0.2290
    194  O         11.1680   19.6660   43.1680 O.2   443  TYR443     -0.2864
    195  CB        12.1400   16.9760   44.2520 C.3   443  TYR443      0.0560
    196  CG        12.0460   15.5020   44.5720 C.ar  443  TYR443     -0.0198
    197  CD1       11.5760   15.0640   45.8040 C.ar  443  TYR443     -0.0009
    198  CD2       12.4350   14.5470   43.6390 C.ar  443  TYR443     -0.0009
    199  CE1       11.4930   13.7190   46.0970 C.ar  443  TYR443      0.0417
    200  CE2       12.3530   13.1940   43.9210 C.ar  443  TYR443      0.0417
    201  CZ        11.8780   12.7850   45.1540 C.ar  443  TYR443      0.1957
    202  OH        11.7880   11.4420   45.4500 O.3   443  TYR443     -0.2866
@<TRIPOS>BOND
     1     1     2    1
     2     2     3    1
     3     2     5    1
     4     6     5    1
     5     6     7    1
     6     3     4    2
     7     8     7    1
     8     8     9    2
     9    11     9    1
    10   153   152    2
    11   152   151    1
    12     9    10    1
    13   151   150    1
    14   151   154    1
    15   155   156    1
    16   130   128    1
    17   125   126    1
    18   125   128    1
    19   125   124    1
    20   126   127    2
    21   129   128    1
    22   129   131    1
    23   156   157    1
    24   156   159    1
    25   158   157    2
    26   157   167   am
    27   167   168    1
    28   171   168    1
    29   171   172    1
    30   132   133    1
    31   159   160    1
    32   168   169    1
    33   172   174   ar
    34   172   173   ar
    35   186   185    1
    36   161   160   ar
    37   161   163   ar
    38   138   140   ar
    39   138   137   ar
    40   160   162   ar
    41   140   142   ar
    42   185   183   ar
    43   185   184   ar
    44    69    68    1
    45   183   181   ar
    46   163   165   ar
    47   133   136    1
    48   133   134    1
    49   184   182   ar
    50   136   137    1
    51   116   115    2
    52   169   175   am
    53   169   170    2
    54   115   114    1
    55   175   176    1
    56    57    55   ar
    57   137   139   ar
    58   181   180   ar
    59    56    55   ar
    60   182   180   ar
    61   123   121    1
    62   180   179    1
    63   162   164   ar
    64    55    54    1
    65   142   141   ar
    66    68    66   ar
    67    68    67   ar
    68    66    64   ar
    69   165   164   ar
    70   165   166    1
    71   135   134    2
    72   134   143   am
    73   179   176    1
    74   119   118    1
    75   119   120    1
    76   176   177    1
    77   113   114    1
    78   114   117    1
    79   139   141   ar
    80   187   177   am
    81   187   188    1
    82   121   120    2
    83   121   122    1
    84    67    65   ar
    85   118   117    1
    86    64    63   ar
    87   143   144    1
    88    54    53    1
    89   194   193    2
    90   177   178    2
    91   188   189    1
    92    12    13    1
    93    53    50    1
    94   198   200   ar
    95   198   196   ar
    96    16    13    1
    97    16    17    1
    98   200   201   ar
    99   191   189   am
   100   191   192    1
   101    65    63   ar
   102    63    62    1
   103   195   196    1
   104   195   192    1
   105   189   190    2
   106    52    51    2
   107   193   192    1
   108   144   147    1
   109   144   145    1
   110    13    14    1
   111   149   147    1
   112   196   197   ar
   113    50    51    1
   114    50    49    1
   115    51    58   am
   116    46    44   ar
   117    46    47   ar
   118   147   148    1
   119   201   202    1
   120   201   199   ar
   121    44    42   ar
   122   145   146    2
   123    62    59    1
   124    15    14    2
   125    14    18   am
   126    58    59    1
   127    48    47    1
   128   197   199   ar
   129    59    60    1
   130    87    85   ar
   131    87    88   ar
   132    47    45   ar
   133    37    38    1
   134    42    41    1
   135    42    43   ar
   136    85    83   ar
   137    38    41    1
   138    38    39    1
   139    88    86   ar
   140    18    19    1
   141    60    61    2
   142    60    70   am
   143    45    43   ar
   144    70    71    1
   145    39    40    2
   146    83    82    1
   147    83    84   ar
   148    23    22    1
   149    23    24    1
   150    86    84   ar
   151    19    22    1
   152    19    20    1
   153    28    26    1
   154    73    72    2
   155    25    26    2
   156    25    24    1
   157    82    79    1
   158    21    20    2
   159    72    71    1
   160    72    78   am
   161    26    27    1
   162    20    29   am
   163    71    74    1
   164    79    78    1
   165    79    80    1
   166    74    75    1
   167    74    76    1
   168    29    30    1
   169    75    77    1
   170    80    89   am
   171    80    81    2
   172    89    90    1
   173    35    34   ar
   174    30    31    1
   175    30    33    1
   176    92    91    2
   177    31    32    2
   178    90    91    1
   179    90    93    1
   180    34    33    1
   181    34    36   ar
   182   101   100    2
   183    93    94    1
   184    96    95   ar
   185    94    95    1
   186    95    97   ar
   187   100    99    1
   188    98    99    1
   189   102    99    1
   190   102   103    1
   191   104   103   ar
   192   103   105   ar
   193   111   110    1
   194   111   112    1
   195   110   107    1
   196   112   106    1
   197   107   106    1
   198   107   108    1
   199   109   108    2
