@<TRIPOS>MOLECULE
tmp/4qerA00.pdb
 133 128 0 0 0
SMALL
GASTEIGER

@<TRIPOS>ATOM
      1  N        -10.5090   16.3360    5.8240 N.3     2  LEU2       -0.1231
      2  CA        -9.2140   17.0470    5.6820 C.3     2  LEU2        0.1693
      3  C         -8.1430   16.2120    4.9890 C.2     2  LEU2        0.2591
      4  O         -7.3460   16.6890    4.2060 O.2     2  LEU2       -0.2718
      5  CB        -8.6750   17.3300    7.0750 C.3     2  LEU2        0.0284
      6  CG        -8.7870   18.2650    8.2640 C.3     2  LEU2        0.0019
      7  CD1       -7.5530   18.0870    9.0920 C.3     2  LEU2        0.0001
      8  CD2       -8.8350   19.7090    7.8620 C.3     2  LEU2        0.0001
      9  N         -8.1390   14.9500    5.3080 N.am    3  LEU3       -0.1980
     10  CA        -7.1460   13.9920    4.6990 C.3     3  LEU3        0.1596
     11  C         -7.4200   13.8230    3.2330 C.2     3  LEU3        0.2287
     12  O         -6.4820   13.8030    2.4010 O.2     3  LEU3       -0.2864
     13  CB        -7.1830   12.5940    5.3190 C.3     3  LEU3        0.0297
     14  CG        -6.3840   12.3640    6.6250 C.3     3  LEU3        0.0022
     15  CD1       -6.6090   10.9520    7.1840 C.3     3  LEU3        0.0001
     16  CD2       -4.9130   12.6540    6.4510 C.3     3  LEU3        0.0001
     17  N         -8.9670   16.0690    1.2890 N.3     5  PHE5       -0.1227
     18  CA        -8.5760   17.3090    0.7280 C.3     5  PHE5        0.1736
     19  C         -7.0370   17.3010    0.4840 C.2     5  PHE5        0.2596
     20  O         -6.5600   17.7390   -0.5400 O.2     5  PHE5       -0.2718
     21  CB        -9.0220   18.4640    1.6760 C.3     5  PHE5        0.0547
     22  CG        -8.7640   19.8480    1.1720 C.ar    5  PHE5       -0.0202
     23  CD1       -8.8460   20.1980   -0.1900 C.ar    5  PHE5       -0.0042
     24  CD2       -8.4470   20.8560    2.0760 C.ar    5  PHE5       -0.0042
     25  CE1       -8.6470   21.4910   -0.5860 C.ar    5  PHE5       -0.0003
     26  CE2       -8.2550   22.1610    1.6670 C.ar    5  PHE5       -0.0003
     27  CZ        -8.3370   22.4720    0.3130 C.ar    5  PHE5       -0.0000
     28  N         -6.2800   16.8700    1.4990 N.am    6  GLY6       -0.1957
     29  CA        -4.8130   16.8070    1.3740 C.3     6  GLY6        0.1869
     30  C         -4.4390   15.9100    0.1910 C.2     6  GLY6        0.2309
     31  O         -3.4860   16.2820   -0.5660 O.2     6  GLY6       -0.2863
     32  N         -5.2060   17.8350   -3.0050 N.3     9  ILE9       -0.1245
     33  CA        -4.1930   18.8510   -3.2120 C.3     9  ILE9        0.1561
     34  C         -2.8980   18.2420   -3.8120 C.2     9  ILE9        0.2260
     35  O         -2.3340   18.8160   -4.7530 O.2     9  ILE9       -0.2867
     36  CB        -3.8850   19.5640   -1.8900 C.3     9  ILE9        0.0252
     37  CG1       -5.1090   20.3990   -1.4340 C.3     9  ILE9        0.0019
     38  CG2       -2.6420   20.4760   -2.0300 C.3     9  ILE9        0.0019
     39  CD1       -5.0020   20.8260    0.0270 C.3     9  ILE9        0.0001
     40  N          0.1780   18.6060    1.0340 N.3    17  ALA17      -0.1231
     41  CA        -0.6930   19.5680    1.6540 C.3    17  ALA17       0.1694
     42  C         -0.0930   20.1260    2.9260 C.2    17  ALA17       0.2591
     43  O         -0.1210   21.3210    3.1950 O.2    17  ALA17      -0.2718
     44  CB        -2.1160   19.0080    1.8170 C.3    17  ALA17       0.0304
     45  N          0.4090   19.2120    3.7910 N.am   18  ILE18      -0.1980
     46  CA         1.3250   19.5210    4.9280 C.3    18  ILE18       0.1595
     47  C          2.7650   19.2240    4.4370 C.2    18  ILE18       0.2287
     48  O          3.0700   18.0940    4.1450 O.2    18  ILE18      -0.2864
     49  CB         1.0030   18.6260    6.1380 C.3    18  ILE18       0.0276
     50  CG1       -0.4640   18.5610    6.5170 C.3    18  ILE18       0.0022
     51  CG2        1.8440   19.0670    7.3730 C.3    18  ILE18       0.0022
     52  CD1       -0.9360   17.3560    7.3270 C.3    18  ILE18       0.0001
     53  N          0.5810   23.7870    2.2040 N.3    21  TYR21      -0.1227
     54  CA        -0.7100   24.5270    2.2300 C.3    21  TYR21       0.1736
     55  C         -1.3450   24.5840    3.6290 C.2    21  TYR21       0.2596
     56  O         -2.4720   25.0650    3.8210 O.2    21  TYR21      -0.2718
     57  CB        -1.7100   24.0130    1.2170 C.3    21  TYR21       0.0548
     58  CG        -1.2650   24.1750   -0.1810 C.ar   21  TYR21      -0.0200
     59  CD1       -1.3640   25.4230   -0.8370 C.ar   21  TYR21      -0.0009
     60  CD2       -0.7100   23.1210   -0.9120 C.ar   21  TYR21      -0.0009
     61  CE1       -0.9830   25.5620   -2.1670 C.ar   21  TYR21       0.0417
     62  CE2       -0.3040   23.2950   -2.2130 C.ar   21  TYR21       0.0417
     63  CZ        -0.4540   24.4940   -2.8560 C.ar   21  TYR21       0.1957
     64  OH        -0.0630   24.6570   -4.1570 O.3    21  TYR21      -0.2866
     65  N         -0.7040   23.9540    4.6270 N.am   22  SER22      -0.1952
     66  CA        -1.2690   23.8580    5.9850 C.3    22  SER22       0.1924
     67  C         -1.0720   25.1070    6.8290 C.2    22  SER22       0.2314
     68  O         -1.6790   25.2520    7.8640 O.2    22  SER22      -0.2863
     69  CB        -0.6550   22.5980    6.7480 C.3    22  SER22       0.2116
     70  OG         0.7590   22.5390    6.5710 O.3    22  SER22      -0.2180
     71  N         -4.4960   32.6760    5.3120 N.3    27  TYR27      -0.1241
     72  CA        -5.7160   31.8720    5.2980 C.3    27  TYR27       0.1605
     73  C         -5.5360   30.3810    5.1200 C.2    27  TYR27       0.2264
     74  O         -6.4820   29.6050    5.3960 O.2    27  TYR27      -0.2867
     75  CB        -6.7290   32.3840    4.2490 C.3    27  TYR27       0.0534
     76  CG        -7.2960   33.7040    4.6480 C.ar   27  TYR27      -0.0201
     77  CD1       -8.4300   33.7330    5.4360 C.ar   27  TYR27      -0.0009
     78  CD2       -6.6970   34.9060    4.2930 C.ar   27  TYR27      -0.0009
     79  CE1       -8.9280   34.9380    5.9000 C.ar   27  TYR27       0.0417
     80  CE2       -7.1640   36.0940    4.7290 C.ar   27  TYR27       0.0417
     81  CZ        -8.3040   36.1170    5.5070 C.ar   27  TYR27       0.1957
     82  OH        -8.8680   37.3410    6.0000 O.3    27  TYR27      -0.2866
     83  N         -4.8130   27.0290    6.2140 N.3    29  GLY29      -0.1225
     84  CA        -4.5140   26.3220    7.5070 C.3    29  GLY29       0.1811
     85  C         -5.4050   26.9110    8.5270 C.2    29  GLY29       0.2280
     86  O         -6.4400   27.4750    8.1860 O.2    29  GLY29      -0.2866
     87  N         -7.3150   29.9050   -0.3520 N.3    44  CYS44      -0.1235
     88  CA        -7.6520   29.5200    0.9990 C.3    44  CYS44       0.1677
     89  C         -8.7050   30.4070    1.6210 C.2    44  CYS44       0.2270
     90  O         -9.5720   29.8750    2.3030 O.2    44  CYS44      -0.2867
     91  CB        -6.3770   29.5610    1.8710 C.3    44  CYS44       0.0956
     92  SG        -5.2440   28.2660    1.2810 S.3    44  CYS44      -0.0801
     93  N        -11.9060   29.1780    0.1250 N.3    47  HIS47      -0.1226
     94  CA       -12.1700   27.8360    0.7190 C.3    47  HIS47       0.1752
     95  C        -12.7320   27.9620    2.1010 C.2    47  HIS47       0.2596
     96  O        -13.6920   27.2880    2.4450 O.2    47  HIS47      -0.2718
     97  CB       -10.9110   27.0270    0.6820 C.3    47  HIS47       0.0759
     98  CG       -11.1290   25.5860    1.0940 C.ar   47  HIS47       0.0818
     99  ND1      -10.7100   25.1120    2.2900 N.ar   47  HIS47      -0.2268
    100  CD2      -11.6770   24.5420    0.4470 C.ar   47  HIS47       0.1154
    101  CE1      -11.0240   23.8300    2.3670 C.ar   47  HIS47       0.1986
    102  NE2      -11.6260   23.4660    1.2340 N.ar   47  HIS47      -0.2212
    103  N        -12.2040   28.8570    2.9140 N.am   48  ASP48      -0.1974
    104  CA       -12.7220   29.1240    4.2350 C.3    48  ASP48       0.1709
    105  C        -14.1560   29.6400    4.1460 C.2    48  ASP48       0.2293
    106  O        -15.0460   29.1960    4.8770 O.2    48  ASP48      -0.2864
    107  CB       -11.8820   30.1790    4.9930 C.3    48  ASP48       0.1436
    108  CG       -10.5320   29.6660    5.4300 C.2    48  ASP48       0.3671
    109  OD1      -10.1830   28.5370    5.1980 O.co2  48  ASP48      -0.2456
    110  OD2       -9.8090   30.5000    6.0270 O.co2  48  ASP48      -0.2456
    111  N        -16.4590   26.6700    3.1890 N.3    51  TYR51      -0.1241
    112  CA       -16.8010   25.9060    4.3710 C.3    51  TYR51       0.1605
    113  C        -17.7430   26.6850    5.2630 C.2    51  TYR51       0.2264
    114  O        -18.6730   26.1010    5.9070 O.2    51  TYR51      -0.2867
    115  CB       -15.5750   25.5280    5.1920 C.3    51  TYR51       0.0534
    116  CG       -14.7830   24.3390    4.6870 C.ar   51  TYR51      -0.0201
    117  CD1      -15.0710   23.6920    3.4760 C.ar   51  TYR51      -0.0009
    118  CD2      -13.7420   23.8480    5.4610 C.ar   51  TYR51      -0.0009
    119  CE1      -14.3110   22.5650    3.0580 C.ar   51  TYR51       0.0417
    120  CE2      -13.0250   22.7170    5.0890 C.ar   51  TYR51       0.0417
    121  CZ       -13.3280   22.1410    3.8730 C.ar   51  TYR51       0.1957
    122  OH       -12.5490   21.0310    3.4720 O.3    51  TYR51      -0.2866
    123  N         -5.4000   26.0990   -6.3620 N.3    96  PHE96      -0.1241
    124  CA        -3.9750   25.9180   -6.0570 C.3    96  PHE96       0.1605
    125  C         -3.2140   25.5910   -7.3330 C.2    96  PHE96       0.2264
    126  O         -2.1240   26.1660   -7.5810 O.2    96  PHE96      -0.2867
    127  CB        -3.7580   24.8220   -5.0480 C.3    96  PHE96       0.0534
    128  CG        -4.2970   25.1140   -3.6340 C.ar   96  PHE96      -0.0203
    129  CD1       -4.3120   26.3910   -3.1170 C.ar   96  PHE96      -0.0042
    130  CD2       -4.6910   24.0470   -2.8390 C.ar   96  PHE96      -0.0042
    131  CE1       -4.7510   26.5860   -1.8010 C.ar   96  PHE96      -0.0003
    132  CE2       -5.1540   24.2510   -1.5430 C.ar   96  PHE96      -0.0003
    133  CZ        -5.1500   25.5010   -1.0100 C.ar   96  PHE96      -0.0000
@<TRIPOS>BOND
     1   126   125    2
     2   125   124    1
     3   123   124    1
     4   124   127    1
     5   127   128    1
     6    35    34    2
     7    64    63    1
     8    34    33    1
     9   128   129   ar
    10   128   130   ar
    11    33    32    1
    12    33    36    1
    13   129   131   ar
    14    63    62   ar
    15    63    61   ar
    16   130   132   ar
    17    62    60   ar
    18    61    59   ar
    19    38    36    1
    20    36    37    1
    21   131   133   ar
    22   132   133   ar
    23    37    39    1
    24    60    58   ar
    25    59    58   ar
    26    25    23   ar
    27    25    27   ar
    28    31    30    2
    29    20    19    2
    30    87    88    1
    31    23    22   ar
    32    58    57    1
    33    93    94    1
    34    30    29    1
    35    27    26   ar
    36   100    98   ar
    37   100   102   ar
    38    19    18    1
    39    19    28   am
    40    97    94    1
    41    97    98    1
    42    94    95    1
    43    18    17    1
    44    18    21    1
    45    88    89    1
    46    88    91    1
    47    40    41    1
    48    98    99   ar
    49    22    21    1
    50    22    24   ar
    51    57    54    1
    52   102   101   ar
    53    92    91    1
    54    29    28    1
    55    89    90    2
    56    41    44    1
    57    41    42    1
    58    26    24   ar
    59    95    96    2
    60    95   103   am
    61    53    54    1
    62    54    55    1
    63    99   101   ar
    64    12    11    2
    65   103   104    1
    66    42    43    2
    67    42    45   am
    68   119   117   ar
    69   119   121   ar
    70   111   112    1
    71    11    10    1
    72   122   121    1
    73   117   116   ar
    74    55    56    2
    75    55    65   am
    76    45    46    1
    77   121   120   ar
    78    48    47    2
    79   105   104    1
    80   105   106    2
    81     4     3    2
    82   104   107    1
    83    75    76    1
    84    75    72    1
    85    78    76   ar
    86    78    80   ar
    87   112   115    1
    88   112   113    1
    89    47    46    1
    90    65    66    1
    91    76    77   ar
    92   116   115    1
    93   116   118   ar
    94    10     9    1
    95    10    13    1
    96    80    81   ar
    97    46    49    1
    98     3     9   am
    99     3     2    1
   100   107   108    1
   101   120   118   ar
   102    73    72    1
   103    73    74    2
   104   109   108   ar
   105   113   114    2
   106    72    71    1
   107    13    14    1
   108   108   110   ar
   109    77    79   ar
   110    81    79   ar
   111    81    82    1
   112     2     1    1
   113     2     5    1
   114    66    69    1
   115    66    67    1
   116    49    50    1
   117    49    51    1
   118    83    84    1
   119    16    14    1
   120    50    52    1
   121    70    69    1
   122    14    15    1
   123    67    68    2
   124     5     6    1
   125    84    85    1
   126     8     6    1
   127    86    85    2
   128     6     7    1
