@<TRIPOS>MOLECULE
tmp/4qeyJ00.pdb
 81 77 0 0 0
SMALL
GASTEIGER

@<TRIPOS>ATOM
      1  N        -22.3560   77.1230   42.4530 N.3    11  GLN11      -0.1245
      2  CA       -21.8650   76.3080   43.5630 C.3    11  GLN11       0.1566
      3  C        -22.3540   76.8610   44.8940 C.2    11  GLN11       0.2260
      4  O        -22.5090   78.0660   45.0490 O.2    11  GLN11      -0.2867
      5  CB       -20.3290   76.1970   43.5670 C.3    11  GLN11       0.0367
      6  CG       -19.5860   77.5170   43.7440 C.3    11  GLN11       0.0905
      7  CD       -18.1190   77.3140   43.9750 C.2    11  GLN11       0.2608
      8  OE1      -17.6740   76.2700   44.4530 O.2    11  GLN11      -0.2717
      9  NE2      -17.3340   78.3340   43.7020 N.am   11  GLN11      -0.0878
     10  N        -17.8630   75.7380   50.0280 N.3    15  THR15      -0.1203
     11  CA       -17.1170   76.1340   48.8230 C.3    15  THR15       0.1994
     12  C        -15.6140   76.3940   49.0970 C.2    15  THR15       0.2617
     13  O        -14.7950   76.2780   48.1810 O.2    15  THR15      -0.2717
     14  CB       -17.7360   77.3770   48.1950 C.3    15  THR15       0.1784
     15  OG1      -17.8350   78.4160   49.1730 O.3    15  THR15      -0.2211
     16  CG2      -19.0940   77.0980   47.6120 C.3    15  THR15       0.0376
     17  N        -15.2640   76.7110   50.3410 N.am   16  ASP16      -0.1973
     18  CA       -13.8950   76.9810   50.7720 C.3    16  ASP16       0.1709
     19  C        -13.0480   75.7060   50.8570 C.2    16  ASP16       0.2293
     20  O        -11.8200   75.7880   50.7810 O.2    16  ASP16      -0.2864
     21  CB       -13.9240   77.6640   52.1640 C.3    16  ASP16       0.1436
     22  CG       -14.6080   79.0230   52.1920 C.2    16  ASP16       0.3671
     23  OD1      -14.8000   79.6230   51.0990 O.co2  16  ASP16      -0.2456
     24  OD2      -14.9190   79.5100   53.3060 O.co2  16  ASP16      -0.2456
     25  N        -13.2770   72.9920   48.8210 N.3    18  PHE18      -0.1227
     26  CA       -13.1690   72.3590   47.5060 C.3    18  PHE18       0.1736
     27  C        -12.4970   73.2680   46.5230 C.2    18  PHE18       0.2595
     28  O        -12.5000   74.4720   46.7340 O.2    18  PHE18      -0.2718
     29  CB       -14.5680   71.9910   46.9600 C.3    18  PHE18       0.0547
     30  CG       -15.3140   70.9200   47.7140 C.ar   18  PHE18      -0.0202
     31  CD1      -16.0730   71.2360   48.8330 C.ar   18  PHE18      -0.0042
     32  CD2      -15.2960   69.5990   47.2770 C.ar   18  PHE18      -0.0042
     33  CE1      -16.7770   70.2460   49.5200 C.ar   18  PHE18      -0.0003
     34  CE2      -16.0130   68.6110   47.9560 C.ar   18  PHE18      -0.0003
     35  CZ       -16.7390   68.9380   49.0810 C.ar   18  PHE18      -0.0000
     36  N        -11.9380   72.7000   45.4470 N.am   19  ASP19      -0.1960
     37  CA       -11.4020   73.3920   44.2860 C.3    19  ASP19       0.1840
     38  C        -12.2880   73.0430   43.0960 C.2    19  ASP19       0.2621
     39  O        -12.3990   71.8730   42.7560 O.2    19  ASP19      -0.2715
     40  CB        -9.9160   73.0910   43.9980 C.3    19  ASP19       0.1450
     41  CG        -8.8850   73.6340   44.9640 C.2    19  ASP19       0.3671
     42  OD1       -9.2140   74.5430   45.7380 O.co2  19  ASP19      -0.2456
     43  OD2       -7.7350   73.1730   44.9150 O.co2  19  ASP19      -0.2456
     44  N        -12.9770   74.0480   42.5170 N.am   20  LEU20      -0.1977
     45  CA       -13.8260   73.9180   41.3390 C.3    20  LEU20       0.1596
     46  C        -13.0810   74.5140   40.1610 C.2    20  LEU20       0.2287
     47  O        -12.7380   75.7000   40.1850 O.2    20  LEU20      -0.2864
     48  CB       -15.2200   74.5760   41.5390 C.3    20  LEU20       0.0297
     49  CG       -16.1590   74.6010   40.3100 C.3    20  LEU20       0.0022
     50  CD1      -16.5740   73.1730   39.8680 C.3    20  LEU20       0.0001
     51  CD2      -17.3870   75.4090   40.5840 C.3    20  LEU20       0.0001
     52  N         -9.9820   77.1360   40.3300 N.3    51  LYS51      -0.1231
     53  CA       -10.3920   77.4410   41.7080 C.3    51  LYS51       0.1693
     54  C        -11.4230   78.6060   41.7380 C.2    51  LYS51       0.2592
     55  O        -11.1590   79.6620   42.3190 O.2    51  LYS51      -0.2718
     56  CB        -9.1760   77.7690   42.5840 C.3    51  LYS51       0.0285
     57  CG        -8.1600   76.6530   42.6380 C.3    51  LYS51       0.0035
     58  CD        -6.9060   77.0930   43.3860 C.3    51  LYS51       0.0206
     59  CE        -5.8690   76.0220   43.4290 C.3    51  LYS51       0.1093
     60  NZ        -4.6550   76.5210   44.1190 N.3    51  LYS51      -0.1314
     61  N        -12.5940   78.3840   41.1130 N.am   52  VAL52      -0.1966
     62  CA       -13.7230   79.3240   41.0460 C.3    52  VAL52       0.1727
     63  C        -14.1180   79.7590   42.4670 C.2    52  VAL52       0.2616
     64  O        -14.4570   78.9000   43.2880 O.2    52  VAL52      -0.2715
     65  CB       -14.9240   78.6780   40.3050 C.3    52  VAL52       0.0290
     66  CG1      -16.1220   79.6100   40.2840 C.3    52  VAL52       0.0023
     67  CG2      -14.5550   78.2360   38.8960 C.3    52  VAL52       0.0023
     68  N        -14.0540   81.0760   42.7650 N.am   53  THR53      -0.1951
     69  CA       -14.4030   81.6100   44.0880 C.3    53  THR53       0.1897
     70  C        -15.8260   82.1960   44.0610 C.2    53  THR53       0.2313
     71  O        -16.4700   82.2820   45.1090 O.2    53  THR53      -0.2863
     72  CB       -13.3770   82.6570   44.5800 C.3    53  THR53       0.1794
     73  OG1      -13.1940   83.6470   43.5750 O.3    53  THR53      -0.2208
     74  CG2      -12.0360   82.0390   44.9250 C.3    53  THR53       0.0378
     75  N        -10.0420   69.6670   49.2780 N.3    75  THR75      -0.1218
     76  CA        -8.8180   70.1450   49.9050 C.3    75  THR75       0.1862
     77  C         -8.9300   69.9930   51.4460 C.2    75  THR75       0.2287
     78  O         -8.2270   70.6850   52.1830 O.2    75  THR75      -0.2866
     79  CB        -8.5950   71.6040   49.4480 C.3    75  THR75       0.1770
     80  OG1       -9.7480   72.3890   49.7600 O.3    75  THR75      -0.2211
     81  CG2       -8.3220   71.7020   47.9480 C.3    75  THR75       0.0375
@<TRIPOS>BOND
     1    67    65    1
     2    50    49    1
     3    46    47    2
     4    46    45    1
     5    66    65    1
     6    65    62    1
     7    49    51    1
     8    49    48    1
     9    52    53    1
    10    62    61    1
    11    62    63    1
    12    61    54   am
    13    45    48    1
    14    45    44    1
    15    53    54    1
    16    53    56    1
    17    54    55    2
    18     1     2    1
    19    63    68   am
    20    63    64    2
    21    44    38   am
    22    56    57    1
    23    57    58    1
    24    39    38    2
    25    68    69    1
    26    38    37    1
    27    58    59    1
    28    59    60    1
    29     2     5    1
    30     2     3    1
    31     5     6    1
    32    73    72    1
    33     9     7   am
    34     6     7    1
    35     7     8    2
    36    40    37    1
    37    40    41    1
    38    70    69    1
    39    70    71    2
    40    69    72    1
    41    37    36    1
    42    72    74    1
    43     3     4    2
    44    43    41   ar
    45    41    42   ar
    46    36    27   am
    47    27    28    2
    48    27    26    1
    49    29    26    1
    50    29    30    1
    51    32    30   ar
    52    32    34   ar
    53    26    25    1
    54    16    14    1
    55    30    31   ar
    56    81    79    1
    57    34    35   ar
    58    13    12    2
    59    14    11    1
    60    14    15    1
    61    11    12    1
    62    11    10    1
    63    31    33   ar
    64    35    33   ar
    65    12    17   am
    66    75    76    1
    67    79    80    1
    68    79    76    1
    69    76    77    1
    70    17    18    1
    71    18    19    1
    72    18    21    1
    73    20    19    2
    74    23    22   ar
    75    77    78    2
    76    21    22    1
    77    22    24   ar
