@<TRIPOS>MOLECULE
tmp/4qeyA00.pdb
 69 66 0 0 0
SMALL
GASTEIGER

@<TRIPOS>ATOM
      1  N          7.5690   50.9990   60.8360 N.3    22  ASN22      -0.1225
      2  CA         9.0090   51.2320   60.7640 C.3    22  ASN22       0.1785
      3  C          9.5270   51.2830   62.1670 C.2    22  ASN22       0.2597
      4  O          8.9890   52.0360   62.9810 O.2    22  ASN22      -0.2718
      5  CB         9.3220   52.5150   59.9830 C.3    22  ASN22       0.1169
      6  CG         8.6170   52.5690   58.6550 C.2    22  ASN22       0.2627
      7  OD1        8.9340   51.8160   57.7280 O.2    22  ASN22      -0.2716
      8  ND2        7.5800   53.4090   58.5730 N.am   22  ASN22      -0.0877
      9  N         10.4930   50.4200   62.5010 N.am   23  ILE23      -0.1966
     10  CA        11.0040   50.3740   63.8680 C.3    23  ILE23       0.1727
     11  C         12.5470   50.4300   63.8350 C.2    23  ILE23       0.2616
     12  O         13.1890   49.9740   62.8920 O.2    23  ILE23      -0.2715
     13  CB        10.4780   49.1700   64.6900 C.3    23  ILE23       0.0290
     14  CG1       10.7560   47.8280   64.0070 C.3    23  ILE23       0.0022
     15  CG2        8.9760   49.3130   64.9810 C.3    23  ILE23       0.0023
     16  CD1       10.1800   46.5380   64.7410 C.3    23  ILE23       0.0001
     17  N         13.1110   51.0990   64.8440 N.am   24  ALA24      -0.1977
     18  CA        14.5400   51.2560   65.0310 C.3    24  ALA24       0.1597
     19  C         14.9020   50.9120   66.4610 C.2    24  ALA24       0.2287
     20  O         14.2320   51.3570   67.3890 O.2    24  ALA24      -0.2864
     21  CB        14.9740   52.6750   64.6810 C.3    24  ALA24       0.0319
     22  N         12.4220   48.6650   58.0900 N.3    51  ASN51      -0.1240
     23  CA        11.4080   49.4620   57.3920 C.3    51  ASN51       0.1653
     24  C         10.3330   48.5470   56.8690 C.2    51  ASN51       0.2266
     25  O         10.6550   47.4580   56.3830 O.2    51  ASN51      -0.2867
     26  CB        12.0180   50.2830   56.2540 C.3    51  ASN51       0.1155
     27  CG        12.8690   51.4340   56.7030 C.2    51  ASN51       0.2627
     28  OD1       12.5990   52.1150   57.7040 O.2    51  ASN51      -0.2716
     29  ND2       13.8620   51.7410   55.9000 N.am   51  ASN51      -0.0877
     30  N         12.2340   52.8580   68.8440 N.3    70  ALA70      -0.1231
     31  CA        11.4860   53.9750   68.2600 C.3    70  ALA70       0.1694
     32  C         10.7850   53.4980   67.0340 C.2    70  ALA70       0.2593
     33  O         11.3990   52.8200   66.2100 O.2    70  ALA70      -0.2718
     34  CB        12.4180   55.1270   67.9330 C.3    70  ALA70       0.0304
     35  N          9.5050   53.8010   66.9270 N.am   71  GLY71      -0.1942
     36  CA         8.7240   53.3680   65.7800 C.3    71  GLY71       0.2014
     37  C          7.8090   54.4170   65.1770 C.2    71  GLY71       0.2639
     38  O          7.4880   55.4330   65.8030 O.2    71  GLY71      -0.2714
     39  N          7.3850   54.1620   63.9390 N.am   72  SER72      -0.1949
     40  CA         6.4220   54.9850   63.2360 C.3    72  SER72       0.1924
     41  C          5.4220   54.0760   62.5500 C.2    72  SER72       0.2314
     42  O          5.7500   52.9780   62.1030 O.2    72  SER72      -0.2863
     43  CB         7.0780   55.9590   62.2480 C.3    72  SER72       0.2116
     44  OG         7.6650   55.3410   61.1140 O.3    72  SER72      -0.2180
     45  N          3.6580   57.9160   66.0190 N.3   114  ASN114     -0.1225
     46  CA         4.9980   57.5740   66.5080 C.3   114  ASN114      0.1785
     47  C          4.9510   57.0110   67.9030 C.2   114  ASN114      0.2597
     48  O          4.0100   57.2950   68.6610 O.2   114  ASN114     -0.2718
     49  CB         5.9060   58.8120   66.5020 C.3   114  ASN114      0.1169
     50  CG         6.1050   59.4160   65.1460 C.2   114  ASN114      0.2627
     51  OD1        6.9350   58.9610   64.3530 O.2   114  ASN114     -0.2716
     52  ND2        5.3330   60.4550   64.8530 N.am  114  ASN114     -0.0877
     53  N          5.9750   56.2160   68.2540 N.am  115  PHE115     -0.1962
     54  CA         6.1170   55.6720   69.6010 C.3   115  PHE115      0.1771
     55  C          7.5830   55.4960   69.9200 C.2   115  PHE115      0.2620
     56  O          8.4130   55.3930   69.0130 O.2   115  PHE115     -0.2715
     57  CB         5.3460   54.3460   69.8050 C.3   115  PHE115      0.0574
     58  CG         5.7830   53.1770   68.9690 C.ar  115  PHE115     -0.0200
     59  CD1        6.8880   52.4120   69.3370 C.ar  115  PHE115     -0.0042
     60  CD2        5.0710   52.8120   67.8310 C.ar  115  PHE115     -0.0042
     61  CE1        7.3060   51.3270   68.5510 C.ar  115  PHE115     -0.0003
     62  CE2        5.4790   51.7230   67.0520 C.ar  115  PHE115     -0.0003
     63  CZ         6.5860   50.9750   67.4280 C.ar  115  PHE115     -0.0000
     64  N          7.8940   55.4680   71.2200 N.am  116  SER116     -0.1950
     65  CA         9.2440   55.2810   71.7570 C.3   116  SER116      0.1924
     66  C          9.1340   54.5930   73.0940 C.2   116  SER116      0.2314
     67  O          8.4290   55.0850   73.9890 O.2   116  SER116     -0.2863
     68  CB         9.9790   56.6170   71.8650 C.3   116  SER116      0.2116
     69  OG        11.2810   56.4420   72.3930 O.3   116  SER116     -0.2180
@<TRIPOS>BOND
     1    29    27   am
     2    26    27    1
     3    26    23    1
     4    25    24    2
     5    27    28    2
     6    24    23    1
     7    23    22    1
     8     7     6    2
     9     8     6   am
    10     6     5    1
    11     5     2    1
    12     2     1    1
    13     2     3    1
    14    44    43    1
    15    42    41    2
    16     3     9   am
    17     3     4    2
    18    43    40    1
    19     9    10    1
    20    41    40    1
    21    12    11    2
    22    40    39    1
    23    11    10    1
    24    11    17   am
    25    10    13    1
    26    39    37   am
    27    14    13    1
    28    14    16    1
    29    51    50    2
    30    21    18    1
    31    13    15    1
    32    17    18    1
    33    52    50   am
    34    18    19    1
    35    50    49    1
    36    37    36    1
    37    37    38    2
    38    36    35    1
    39    45    46    1
    40    33    32    2
    41    19    20    2
    42    49    46    1
    43    46    47    1
    44    35    32   am
    45    32    31    1
    46    62    63   ar
    47    62    60   ar
    48    63    61   ar
    49    60    58   ar
    50    47    53   am
    51    47    48    2
    52    34    31    1
    53    53    54    1
    54    31    30    1
    55    61    59   ar
    56    58    59   ar
    57    58    57    1
    58    56    55    2
    59    54    57    1
    60    54    55    1
    61    55    64   am
    62    64    65    1
    63    65    68    1
    64    65    66    1
    65    68    69    1
    66    66    67    2
