@<TRIPOS>MOLECULE
tmp/4qeyH00.pdb
 84 81 0 0 0
SMALL
GASTEIGER

@<TRIPOS>ATOM
      1  N         16.6400   69.2160   21.8810 N.3    22  ASN22      -0.1225
      2  CA        15.6590   68.1550   21.6380 C.3    22  ASN22       0.1785
      3  C         14.9460   68.4780   20.3340 C.2    22  ASN22       0.2597
      4  O         14.4600   69.6030   20.1550 O.2    22  ASN22      -0.2718
      5  CB        14.6880   68.0240   22.8190 C.3    22  ASN22       0.1169
      6  CG        15.3880   67.9450   24.1530 C.2    22  ASN22       0.2627
      7  OD1       16.0380   66.9560   24.4840 O.2    22  ASN22      -0.2716
      8  ND2       15.3290   69.0250   24.9210 N.am   22  ASN22      -0.0877
      9  N         14.9900   67.5620   19.3780 N.am   23  ILE23      -0.1966
     10  CA        14.3800   67.8420   18.0820 C.3    23  ILE23       0.1727
     11  C         13.4680   66.6660   17.6950 C.2    23  ILE23       0.2616
     12  O         13.6970   65.5150   18.0770 O.2    23  ILE23      -0.2715
     13  CB        15.4160   68.1820   16.9620 C.3    23  ILE23       0.0290
     14  CG1       16.4740   67.0890   16.7950 C.3    23  ILE23       0.0022
     15  CG2       16.0810   69.5570   17.2090 C.3    23  ILE23       0.0023
     16  CD1       17.6080   67.4210   15.7460 C.3    23  ILE23       0.0001
     17  N         12.3770   67.0000   17.0100 N.am   24  ALA24      -0.1977
     18  CA        11.3700   66.0560   16.5540 C.3    24  ALA24       0.1597
     19  C         11.0420   66.3390   15.1060 C.2    24  ALA24       0.2287
     20  O         10.8510   67.4890   14.7300 O.2    24  ALA24      -0.2864
     21  CB        10.1190   66.1440   17.4330 C.3    24  ALA24       0.0319
     22  N         12.5000   61.3590   16.7810 N.3    49  LEU49      -0.1231
     23  CA        12.6770   62.1600   17.9840 C.3    49  LEU49       0.1693
     24  C         14.0620   61.9160   18.5780 C.2    49  LEU49       0.2592
     25  O         14.4030   60.7750   18.8920 O.2    49  LEU49      -0.2718
     26  CB        11.5830   61.8430   19.0060 C.3    49  LEU49       0.0284
     27  CG        10.1880   62.4900   18.8530 C.3    49  LEU49       0.0019
     28  CD1        9.5150   62.2020   17.5040 C.3    49  LEU49       0.0001
     29  CD2        9.2520   61.9820   19.9510 C.3    49  LEU49       0.0001
     30  N         14.8830   62.9860   18.6840 N.am   50  VAL50      -0.1966
     31  CA        16.2290   62.9190   19.2500 C.3    50  VAL50       0.1727
     32  C         16.2820   63.8080   20.4820 C.2    50  VAL50       0.2616
     33  O         16.1760   65.0310   20.3660 O.2    50  VAL50      -0.2715
     34  CB        17.3500   63.3030   18.2340 C.3    50  VAL50       0.0290
     35  CG1       18.7330   62.9120   18.7650 C.3    50  VAL50       0.0023
     36  CG2       17.1120   62.6620   16.8730 C.3    50  VAL50       0.0023
     37  N         16.4360   63.1940   21.6510 N.am   51  ASN51      -0.1972
     38  CA        16.5520   63.9380   22.9050 C.3    51  ASN51       0.1688
     39  C         18.0410   64.1410   23.2060 C.2    51  ASN51       0.2292
     40  O         18.8500   63.2430   22.9620 O.2    51  ASN51      -0.2864
     41  CB        15.8120   63.2240   24.0540 C.3    51  ASN51       0.1181
     42  CG        14.3100   63.1890   23.8790 C.2    51  ASN51       0.2629
     43  OD1       13.6230   64.2040   24.0140 O.2    51  ASN51      -0.2716
     44  ND2       13.7560   62.0150   23.6080 N.am   51  ASN51      -0.0877
     45  N         10.4340   70.3370   14.7780 N.3    70  ALA70      -0.1231
     46  CA        10.1540   71.0650   16.0040 C.3    70  ALA70       0.1694
     47  C         11.2710   70.8120   16.9710 C.2    70  ALA70       0.2593
     48  O         11.6900   69.6650   17.1360 O.2    70  ALA70      -0.2718
     49  CB         8.8050   70.6470   16.5930 C.3    70  ALA70       0.0304
     50  N         11.7620   71.8680   17.5970 N.am   71  GLY71      -0.1942
     51  CA        12.8390   71.7220   18.5580 C.3    71  GLY71       0.2014
     52  C         12.6850   72.5240   19.8220 C.2    71  GLY71       0.2639
     53  O         11.9210   73.4840   19.8760 O.2    71  GLY71      -0.2714
     54  N         13.4150   72.1080   20.8590 N.am   72  SER72      -0.1949
     55  CA        13.4810   72.8220   22.1230 C.3    72  SER72       0.1924
     56  C         14.9350   72.9000   22.5490 C.2    72  SER72       0.2314
     57  O         15.7370   72.0050   22.2680 O.2    72  SER72      -0.2863
     58  CB        12.6010   72.1940   23.2020 C.3    72  SER72       0.2116
     59  OG        13.0640   70.9330   23.6460 O.3    72  SER72      -0.2180
     60  N         11.9680   77.4680   22.0790 N.3   114  ASN114     -0.1225
     61  CA        11.3790   76.5540   21.0970 C.3   114  ASN114      0.1785
     62  C         11.5060   77.0810   19.6860 C.2   114  ASN114      0.2597
     63  O         11.6250   78.2980   19.4850 O.2   114  ASN114     -0.2718
     64  CB         9.8960   76.3370   21.4160 C.3   114  ASN114      0.1169
     65  CG         9.6700   75.7410   22.7820 C.2   114  ASN114      0.2627
     66  OD1        9.7780   74.5330   22.9760 O.2   114  ASN114     -0.2716
     67  ND2        9.3770   76.5870   23.7650 N.am  114  ASN114     -0.0877
     68  N         11.4600   76.1680   18.7010 N.am  115  PHE115     -0.1962
     69  CA        11.4700   76.5360   17.2860 C.3   115  PHE115      0.1771
     70  C         10.6970   75.4970   16.5000 C.2   115  PHE115      0.2620
     71  O         10.5490   74.3570   16.9530 O.2   115  PHE115     -0.2715
     72  CB        12.8820   76.7320   16.7010 C.3   115  PHE115      0.0574
     73  CG        13.7810   75.5130   16.6800 C.ar  115  PHE115     -0.0200
     74  CD1       13.6820   74.5680   15.6590 C.ar  115  PHE115     -0.0042
     75  CD2       14.7560   75.3350   17.6500 C.ar  115  PHE115     -0.0042
     76  CE1       14.5010   73.4360   15.6500 C.ar  115  PHE115     -0.0003
     77  CE2       15.5840   74.2060   17.6390 C.ar  115  PHE115     -0.0003
     78  CZ        15.4610   73.2710   16.6310 C.ar  115  PHE115     -0.0000
     79  N         10.2010   75.9060   15.3210 N.am  116  SER116     -0.1950
     80  CA         9.4660   75.0450   14.4090 C.3   116  SER116      0.1924
     81  C          9.7140   75.5360   13.0000 C.2   116  SER116      0.2314
     82  O          9.4900   76.7170   12.7260 O.2   116  SER116     -0.2863
     83  CB         7.9780   75.0160   14.7630 C.3   116  SER116      0.2116
     84  OG         7.2380   74.1940   13.8800 O.3   116  SER116     -0.2180
@<TRIPOS>BOND
     1    82    81    2
     2    81    80    1
     3    84    83    1
     4    80    83    1
     5    80    79    1
     6    20    19    2
     7    45    46    1
     8    19    18    1
     9    79    70   am
    10    76    74   ar
    11    76    78   ar
    12    74    73   ar
    13    16    14    1
    14    46    49    1
    15    46    47    1
    16    70    71    2
    17    70    69    1
    18    18    17    1
    19    18    21    1
    20    78    77   ar
    21    73    72    1
    22    73    75   ar
    23    72    69    1
    24    22    23    1
    25    14    13    1
    26    36    34    1
    27    13    15    1
    28    13    10    1
    29    47    48    2
    30    47    50   am
    31    17    11   am
    32    69    68    1
    33    28    27    1
    34    50    51    1
    35    77    75   ar
    36    11    12    2
    37    11    10    1
    38    23    24    1
    39    23    26    1
    40    10     9    1
    41    34    35    1
    42    34    31    1
    43    51    52    1
    44    24    30   am
    45    24    25    2
    46    30    31    1
    47    68    62   am
    48    27    26    1
    49    27    29    1
    50    31    32    1
    51     9     3   am
    52    63    62    2
    53    62    61    1
    54    52    53    2
    55    52    54   am
    56     4     3    2
    57     3     2    1
    58    33    32    2
    59    32    37   am
    60    54    55    1
    61    61    64    1
    62    61    60    1
    63    64    65    1
    64     2     1    1
    65     2     5    1
    66    37    38    1
    67    55    56    1
    68    55    58    1
    69    57    56    2
    70    65    66    2
    71    65    67   am
    72     5     6    1
    73    38    39    1
    74    38    41    1
    75    40    39    2
    76    58    59    1
    77    44    42   am
    78    42    43    2
    79    42    41    1
    80     6     7    2
    81     6     8   am
