@<TRIPOS>MOLECULE
tmp/4qezA01.pdb
 107 100 0 0 0
SMALL
GASTEIGER

@<TRIPOS>ATOM
      1  N         37.3020  -28.2230    7.6080 N.3     7  ALA7       -0.1231
      2  CA        36.0840  -28.0680    6.8780 C.3     7  ALA7        0.1694
      3  C         35.6710  -29.2460    6.0430 C.2     7  ALA7        0.2591
      4  O         34.5200  -29.5710    5.9920 O.2     7  ALA7       -0.2718
      5  CB        36.1990  -26.8990    6.0320 C.3     7  ALA7        0.0304
      6  N         36.6060  -29.8670    5.3520 N.am    8  MET8       -0.1979
      7  CA        36.2640  -30.8890    4.3960 C.3     8  MET8        0.1605
      8  C         36.7210  -32.1910    4.9090 C.2     8  MET8        0.2287
      9  O         37.3620  -32.2400    5.9090 O.2     8  MET8       -0.2864
     10  CB        36.9140  -30.5940    3.0650 C.3     8  MET8        0.0413
     11  CG        36.5460  -29.2920    2.5100 C.3     8  MET8        0.0598
     12  SD        37.5190  -28.7910    1.1710 S.3     8  MET8       -0.1393
     13  CE        36.9320  -29.8110   -0.1030 C.3     8  MET8        0.0692
     14  N         40.5190  -32.7960    4.7370 N.3    11  GLU11      -0.1245
     15  CA        41.2770  -32.0490    5.7500 C.3    11  GLU11       0.1567
     16  C         41.2280  -32.6540    7.1630 C.2    11  GLU11       0.2260
     17  O         42.0530  -32.3020    7.9990 O.2    11  GLU11      -0.2867
     18  CB        40.7810  -30.6070    5.8180 C.3    11  GLU11       0.0388
     19  CG        40.8730  -29.8570    4.4940 C.3    11  GLU11       0.1160
     20  CD        40.0800  -28.5650    4.4880 C.2    11  GLU11       0.3649
     21  OE1       38.9660  -28.5320    5.0490 O.co2  11  GLU11      -0.2457
     22  OE2       40.5750  -27.5850    3.9020 O.co2  11  GLU11      -0.2457
     23  N         32.1450  -26.0290    5.1110 N.3    49  ILE49      -0.1245
     24  CA        32.7520  -24.8670    4.4830 C.3    49  ILE49       0.1561
     25  C         31.9590  -23.5890    4.7830 C.2    49  ILE49       0.2260
     26  O         30.7290  -23.6150    4.8380 O.2    49  ILE49      -0.2867
     27  CB        32.8600  -25.1090    2.9610 C.3    49  ILE49       0.0252
     28  CG1       33.7620  -26.3200    2.7060 C.3    49  ILE49       0.0019
     29  CG2       33.3870  -23.8760    2.2390 C.3    49  ILE49       0.0019
     30  CD1       34.0000  -26.6330    1.2430 C.3    49  ILE49       0.0001
     31  N         42.6220  -26.1260   10.9080 N.3    73  THR73      -0.1218
     32  CA        43.4770  -26.7130    9.8890 C.3    73  THR73       0.1862
     33  C         42.7970  -26.7280    8.5140 C.2    73  THR73       0.2287
     34  O         41.6680  -26.2710    8.3660 O.2    73  THR73      -0.2866
     35  CB        43.9170  -28.1340   10.3020 C.3    73  THR73       0.1770
     36  OG1       44.7640  -28.6960    9.2950 O.3    73  THR73      -0.2211
     37  CG2       42.7140  -29.0600   10.5400 C.3    73  THR73       0.0375
     38  N         43.1210  -26.4470    3.9410 N.3    75  SER75      -0.1202
     39  CA        43.7210  -25.7540    2.8120 C.3    75  SER75       0.2020
     40  C         43.4880  -24.2420    2.9040 C.2    75  SER75       0.2618
     41  O         42.6720  -23.7740    3.6990 O.2    75  SER75      -0.2717
     42  CB        43.1630  -26.3210    1.4940 C.3    75  SER75       0.2103
     43  OG        41.7430  -26.4360    1.5210 O.3    75  SER75      -0.2182
     44  N         44.2220  -23.4890    2.0900 N.am   76  ALA76      -0.1979
     45  CA        44.0460  -22.0420    1.9780 C.3    76  ALA76       0.1597
     46  C         44.6730  -21.5360    0.6920 C.2    76  ALA76       0.2287
     47  O         45.5230  -22.2000    0.1090 O.2    76  ALA76      -0.2864
     48  CB        44.6540  -21.3360    3.1690 C.3    76  ALA76       0.0319
     49  N         35.2810  -18.4260   -2.5220 N.3   146  PHE146     -0.1241
     50  CA        36.5130  -19.0180   -3.0400 C.3   146  PHE146      0.1605
     51  C         37.1520  -18.0040   -3.9810 C.2   146  PHE146      0.2264
     52  O         36.5710  -17.6600   -5.0190 O.2   146  PHE146     -0.2867
     53  CB        36.2240  -20.3250   -3.7760 C.3   146  PHE146      0.0534
     54  CG        37.4570  -21.1150   -4.1060 C.ar  146  PHE146     -0.0203
     55  CD1       38.1250  -21.8150   -3.1150 C.ar  146  PHE146     -0.0042
     56  CD2       37.9480  -21.1630   -5.4030 C.ar  146  PHE146     -0.0042
     57  CE1       39.2570  -22.5470   -3.4110 C.ar  146  PHE146     -0.0003
     58  CE2       39.0810  -21.8950   -5.7080 C.ar  146  PHE146     -0.0003
     59  CZ        39.7390  -22.5870   -4.7090 C.ar  146  PHE146     -0.0000
     60  N         41.0880  -17.8800    3.1400 N.3   167  GLU167     -0.1231
     61  CA        40.2080  -19.0280    3.1170 C.3   167  GLU167      0.1699
     62  C         38.7940  -18.6510    3.5750 C.2   167  GLU167      0.2592
     63  O         38.3630  -17.5200    3.3280 O.2   167  GLU167     -0.2718
     64  CB        40.8370  -20.2160    3.8660 C.3   167  GLU167      0.0402
     65  CG        41.5050  -19.8950    5.1890 C.3   167  GLU167      0.1161
     66  CD        40.5680  -19.2150    6.1560 C.2   167  GLU167      0.3649
     67  OE1       40.4880  -17.9770    6.1110 O.co2 167  GLU167     -0.2457
     68  OE2       39.9130  -19.9120    6.9660 O.co2 167  GLU167     -0.2457
     69  N         38.0620  -19.5770    4.2020 N.am  168  MET168     -0.1965
     70  CA        36.6350  -19.3700    4.4490 C.3   168  MET168      0.1736
     71  C         36.1380  -19.7750    5.8360 C.2   168  MET168      0.2616
     72  O         34.9310  -19.8620    6.0310 O.2   168  MET168     -0.2715
     73  CB        35.8130  -20.1030    3.3770 C.3   168  MET168      0.0427
     74  CG        36.1040  -19.6680    1.9430 C.3   168  MET168      0.0599
     75  SD        35.1740  -20.5420    0.6580 S.3   168  MET168     -0.1393
     76  CE        33.4780  -20.0980    1.0050 C.3   168  MET168      0.0692
     77  N         37.0200  -19.9900    6.8110 N.am  169  GLU169     -0.1977
     78  CA        36.5650  -20.3420    8.1770 C.3   169  GLU169      0.1602
     79  C         37.2870  -19.6560    9.3340 C.2   169  GLU169      0.2287
     80  O         36.6710  -19.3760   10.3570 O.2   169  GLU169     -0.2864
     81  CB        36.6270  -21.8560    8.4020 C.3   169  GLU169      0.0415
     82  CG        35.6780  -22.6730    7.5370 C.3   169  GLU169      0.1163
     83  CD        36.2530  -23.0340    6.1780 C.2   169  GLU169      0.3649
     84  OE1       37.4710  -23.2660    6.0800 O.co2 169  GLU169     -0.2457
     85  OE2       35.4700  -23.0890    5.2060 O.co2 169  GLU169     -0.2457
     86  N         47.2630  -23.8640    8.4440 N.3   188  ARG188     -0.1245
     87  CA        46.7910  -24.3570    7.1700 C.3   188  ARG188      0.1563
     88  C         47.9290  -24.4230    6.1650 C.2   188  ARG188      0.2260
     89  O         48.9520  -23.7550    6.3190 O.2   188  ARG188     -0.2867
     90  CB        45.6740  -23.4570    6.6560 C.3   188  ARG188      0.0307
     91  CG        44.3610  -23.6110    7.4120 C.3   188  ARG188      0.0489
     92  CD        43.4670  -22.4040    7.1730 C.3   188  ARG188      0.2205
     93  NE        42.1340  -22.5450    7.7600 N.pl3 188  ARG188     -0.0865
     94  CZ        41.0760  -23.0690    7.1440 C.cat 188  ARG188      0.5346
     95  NH1       41.1580  -23.5260    5.8930 N.pl3 188  ARG188      0.1354
     96  NH2       39.9190  -23.1320    7.7840 N.pl3 188  ARG188      0.1354
     97  N         43.7330  -26.3370   -6.8010 N.3   202  PHE202     -0.1241
     98  CA        43.1100  -26.8280   -5.5700 C.3   202  PHE202      0.1605
     99  C         42.7570  -28.3150   -5.6350 C.2   202  PHE202      0.2264
    100  O         43.1030  -29.0790   -4.7300 O.2   202  PHE202     -0.2867
    101  CB        41.8530  -26.0090   -5.2580 C.3   202  PHE202      0.0534
    102  CG        41.0360  -26.5590   -4.1310 C.ar  202  PHE202     -0.0203
    103  CD1       40.0760  -27.5300   -4.3720 C.ar  202  PHE202     -0.0042
    104  CD2       41.2230  -26.1040   -2.8320 C.ar  202  PHE202     -0.0042
    105  CE1       39.3180  -28.0410   -3.3390 C.ar  202  PHE202     -0.0003
    106  CE2       40.4660  -26.6080   -1.7930 C.ar  202  PHE202     -0.0003
    107  CZ        39.5140  -27.5820   -2.0500 C.ar  202  PHE202     -0.0000
@<TRIPOS>BOND
     1    97    98    1
     2    58    56   ar
     3    58    59   ar
     4    99    98    1
     5    99   100    2
     6    98   101    1
     7    56    54   ar
     8   101   102    1
     9    52    51    2
    10    59    57   ar
    11   103   102   ar
    12   103   105   ar
    13   102   104   ar
    14    54    53    1
    15    54    55   ar
    16    51    50    1
    17    53    50    1
    18    57    55   ar
    19   105   107   ar
    20    50    49    1
    21   104   106   ar
    22   107   106   ar
    23    13    12    1
    24    47    46    2
    25    75    76    1
    26    75    74    1
    27    46    45    1
    28    12    11    1
    29    30    28    1
    30    42    43    1
    31    42    39    1
    32    74    73    1
    33    45    44    1
    34    45    48    1
    35    44    40   am
    36    29    27    1
    37    11    10    1
    38    28    27    1
    39    39    40    1
    40    39    38    1
    41    40    41    2
    42    27    24    1
    43    10     7    1
    44    61    60    1
    45    61    62    1
    46    61    64    1
    47    63    62    2
    48    73    70    1
    49    62    69   am
    50    64    65    1
    51    22    20   ar
    52    69    70    1
    53     7     8    1
    54     7     6    1
    55    70    71    1
    56    24    25    1
    57    24    23    1
    58    20    19    1
    59    20    21   ar
    60    19    18    1
    61    14    15    1
    62    25    26    2
    63     8     9    2
    64    65    66    1
    65    85    83   ar
    66     6     3   am
    67    15    18    1
    68    15    16    1
    69    71    72    2
    70    71    77   am
    71    95    94    1
    72     4     3    2
    73     5     2    1
    74     3     2    1
    75    84    83   ar
    76    67    66   ar
    77    66    68   ar
    78    88    89    2
    79    88    87    1
    80    83    82    1
    81    90    87    1
    82    90    91    1
    83    77    78    1
    84     2     1    1
    85    94    93    2
    86    94    96    1
    87    16    17    2
    88    87    86    1
    89    92    91    1
    90    92    93    1
    91    82    81    1
    92    78    81    1
    93    78    79    1
    94    34    33    2
    95    33    32    1
    96    36    35    1
    97    79    80    2
    98    32    35    1
    99    32    31    1
   100    35    37    1
