@<TRIPOS>MOLECULE
tmp/4qezA00.pdb
 100 95 0 0 0
SMALL
GASTEIGER

@<TRIPOS>ATOM
      1  N         43.1210  -26.4470    3.9410 N.3    75  SER75      -0.1202
      2  CA        43.7210  -25.7540    2.8120 C.3    75  SER75       0.2020
      3  C         43.4880  -24.2420    2.9040 C.2    75  SER75       0.2619
      4  O         42.6720  -23.7740    3.6990 O.2    75  SER75      -0.2717
      5  CB        43.1630  -26.3210    1.4940 C.3    75  SER75       0.2103
      6  OG        41.7430  -26.4360    1.5210 O.3    75  SER75      -0.2182
      7  N         44.2220  -23.4890    2.0900 N.am   76  ALA76      -0.1965
      8  CA        44.0460  -22.0420    1.9780 C.3    76  ALA76       0.1728
      9  C         44.6730  -21.5360    0.6920 C.2    76  ALA76       0.2616
     10  O         45.5230  -22.2000    0.1090 O.2    76  ALA76      -0.2715
     11  CB        44.6540  -21.3360    3.1690 C.3    76  ALA76       0.0334
     12  N         44.2420  -20.3610    0.2490 N.am   77  GLY77      -0.1955
     13  CA        44.7370  -19.7690   -0.9870 C.3    77  GLY77       0.1869
     14  C         45.8790  -18.8200   -0.7200 C.2    77  GLY77       0.2309
     15  O         45.7450  -17.8780    0.0560 O.2    77  GLY77      -0.2863
     16  N         33.7800  -16.6340    0.1900 N.3   145  SER145     -0.1202
     17  CA        33.9590  -16.8770   -1.2210 C.3   145  SER145      0.2020
     18  C         35.2740  -17.5990   -1.4790 C.2   145  SER145      0.2619
     19  O         36.2510  -17.4170   -0.7460 O.2   145  SER145     -0.2717
     20  CB        33.9180  -15.5470   -1.9700 C.3   145  SER145      0.2103
     21  OG        32.6360  -14.9550   -1.8710 O.3   145  SER145     -0.2182
     22  N         35.2810  -18.4260   -2.5220 N.am  146  PHE146     -0.1961
     23  CA        36.5130  -19.0180   -3.0400 C.3   146  PHE146      0.1771
     24  C         37.1520  -18.0040   -3.9810 C.2   146  PHE146      0.2619
     25  O         36.5710  -17.6600   -5.0190 O.2   146  PHE146     -0.2715
     26  CB        36.2240  -20.3250   -3.7760 C.3   146  PHE146      0.0574
     27  CG        37.4570  -21.1150   -4.1060 C.ar  146  PHE146     -0.0200
     28  CD1       38.1250  -21.8150   -3.1150 C.ar  146  PHE146     -0.0042
     29  CD2       37.9480  -21.1630   -5.4030 C.ar  146  PHE146     -0.0042
     30  CE1       39.2570  -22.5470   -3.4110 C.ar  146  PHE146     -0.0003
     31  CE2       39.0810  -21.8950   -5.7080 C.ar  146  PHE146     -0.0003
     32  CZ        39.7390  -22.5870   -4.7090 C.ar  146  PHE146     -0.0000
     33  N         38.3230  -17.5000   -3.6020 N.am  147  MET147     -0.1977
     34  CA        38.9920  -16.4360   -4.3650 C.3   147  MET147      0.1605
     35  C         39.6940  -16.9540   -5.6270 C.2   147  MET147      0.2287
     36  O         40.9140  -17.0790   -5.6600 O.2   147  MET147     -0.2864
     37  CB        39.9950  -15.6880   -3.4850 C.3   147  MET147      0.0413
     38  CG        39.4370  -15.1590   -2.1750 C.3   147  MET147      0.0598
     39  SD        38.1090  -13.9710   -2.3720 S.3   147  MET147     -0.1393
     40  CE        38.9020  -12.3710   -2.3070 C.3   147  MET147      0.0692
     41  N         44.3930  -16.7820    2.2630 N.3   166  VAL166     -0.1231
     42  CA        42.9360  -16.5290    2.3490 C.3   166  VAL166      0.1692
     43  C         42.1590  -17.8400    2.3620 C.2   166  VAL166      0.2592
     44  O         42.5300  -18.8030    1.6870 O.2   166  VAL166     -0.2718
     45  CB        42.3580  -15.6170    1.2200 C.3   166  VAL166      0.0266
     46  CG1       43.0200  -14.2500    1.2610 C.3   166  VAL166      0.0020
     47  CG2       42.4610  -16.2570   -0.1610 C.3   166  VAL166      0.0020
     48  N         41.0880  -17.8800    3.1400 N.am  167  GLU167     -0.1966
     49  CA        40.2080  -19.0280    3.1170 C.3   167  GLU167      0.1733
     50  C         38.7940  -18.6510    3.5750 C.2   167  GLU167      0.2616
     51  O         38.3630  -17.5200    3.3280 O.2   167  GLU167     -0.2715
     52  CB        40.8370  -20.2160    3.8660 C.3   167  GLU167      0.0429
     53  CG        41.5050  -19.8950    5.1890 C.3   167  GLU167      0.1163
     54  CD        40.5680  -19.2150    6.1560 C.2   167  GLU167      0.3649
     55  OE1       40.4880  -17.9770    6.1110 O.co2 167  GLU167     -0.2457
     56  OE2       39.9130  -19.9120    6.9660 O.co2 167  GLU167     -0.2457
     57  N         38.0620  -19.5770    4.2020 N.am  168  MET168     -0.1977
     58  CA        36.6350  -19.3700    4.4490 C.3   168  MET168      0.1605
     59  C         36.1380  -19.7750    5.8360 C.2   168  MET168      0.2287
     60  O         34.9310  -19.8620    6.0310 O.2   168  MET168     -0.2864
     61  CB        35.8130  -20.1030    3.3770 C.3   168  MET168      0.0413
     62  CG        36.1040  -19.6680    1.9430 C.3   168  MET168      0.0598
     63  SD        35.1740  -20.5420    0.6580 S.3   168  MET168     -0.1393
     64  CE        33.4780  -20.0980    1.0050 C.3   168  MET168      0.0692
     65  N         46.8290  -24.9680   -0.9230 N.3   191  SER191     -0.1202
     66  CA        46.3550  -25.8340   -1.9980 C.3   191  SER191      0.2020
     67  C         46.5880  -25.1770   -3.3580 C.2   191  SER191      0.2618
     68  O         46.7160  -25.8610   -4.3750 O.2   191  SER191     -0.2717
     69  CB        44.8650  -26.0980   -1.8130 C.3   191  SER191      0.2103
     70  OG        44.1660  -24.8790   -1.6600 O.3   191  SER191     -0.2182
     71  N         46.6390  -23.8470   -3.3650 N.am  192  ASP192     -0.1973
     72  CA        46.7490  -23.0810   -4.5970 C.3   192  ASP192      0.1709
     73  C         47.1180  -21.6300   -4.2950 C.2   192  ASP192      0.2293
     74  O         47.2670  -21.2440   -3.1400 O.2   192  ASP192     -0.2864
     75  CB        45.4200  -23.1220   -5.3480 C.3   192  ASP192      0.1436
     76  CG        44.2800  -22.5330   -4.5420 C.2   192  ASP192      0.3671
     77  OD1       44.4420  -22.3060   -3.3290 O.co2 192  ASP192     -0.2456
     78  OD2       43.2130  -22.2800   -5.1210 O.co2 192  ASP192     -0.2456
     79  N         45.7600  -17.8810   -4.7120 N.3   194  ALA194     -0.1245
     80  CA        44.4880  -17.1890   -4.9210 C.3   194  ALA194      0.1562
     81  C         44.5170  -16.3400   -6.1860 C.2   194  ALA194      0.2260
     82  O         45.4010  -15.5060   -6.3550 O.2   194  ALA194     -0.2867
     83  CB        44.1480  -16.3300   -3.7120 C.3   194  ALA194      0.0290
     84  N         43.2700  -21.1660   -9.5830 N.3   198  SER198     -0.1217
     85  CA        43.0380  -21.5970   -8.2130 C.3   198  SER198      0.1889
     86  C         42.3350  -22.9370   -8.0960 C.2   198  SER198      0.2288
     87  O         42.8310  -23.8350   -7.4190 O.2   198  SER198     -0.2866
     88  CB        42.2680  -20.5160   -7.4510 C.3   198  SER198      0.2089
     89  OG        43.0790  -19.3740   -7.2410 O.3   198  SER198     -0.2183
     90  N         43.7330  -26.3370   -6.8010 N.3   202  PHE202     -0.1241
     91  CA        43.1100  -26.8280   -5.5700 C.3   202  PHE202      0.1605
     92  C         42.7570  -28.3150   -5.6350 C.2   202  PHE202      0.2264
     93  O         43.1030  -29.0790   -4.7300 O.2   202  PHE202     -0.2867
     94  CB        41.8530  -26.0090   -5.2580 C.3   202  PHE202      0.0534
     95  CG        41.0360  -26.5590   -4.1310 C.ar  202  PHE202     -0.0203
     96  CD1       40.0760  -27.5300   -4.3720 C.ar  202  PHE202     -0.0042
     97  CD2       41.2230  -26.1040   -2.8320 C.ar  202  PHE202     -0.0042
     98  CE1       39.3180  -28.0410   -3.3390 C.ar  202  PHE202     -0.0003
     99  CE2       40.4660  -26.6080   -1.7930 C.ar  202  PHE202     -0.0003
    100  CZ        39.5140  -27.5820   -2.0500 C.ar  202  PHE202     -0.0000
@<TRIPOS>BOND
     1    84    85    1
     2    85    86    1
     3    85    88    1
     4    86    87    2
     5    88    89    1
     6    90    91    1
     7    82    81    2
     8    81    80    1
     9    31    29   ar
    10    31    32   ar
    11    36    35    2
    12    92    91    1
    13    92    93    2
    14    35    34    1
    15    91    94    1
    16    29    27   ar
    17    75    72    1
    18    75    76    1
    19    94    95    1
    20    78    76   ar
    21    25    24    2
    22    80    79    1
    23    80    83    1
    24    32    30   ar
    25    72    73    1
    26    72    71    1
    27    76    77   ar
    28    68    67    2
    29    96    95   ar
    30    96    98   ar
    31    34    33    1
    32    34    37    1
    33    73    74    2
    34    95    97   ar
    35    27    26    1
    36    27    28   ar
    37    24    33   am
    38    24    23    1
    39    26    23    1
    40    37    38    1
    41    30    28   ar
    42    71    67   am
    43    67    66    1
    44    98   100   ar
    45    23    22    1
    46    97    99   ar
    47    22    18   am
    48    39    40    1
    49    39    38    1
    50   100    99   ar
    51    66    69    1
    52    66    65    1
    53    20    21    1
    54    20    17    1
    55    69    70    1
    56    18    17    1
    57    18    19    2
    58    17    16    1
    59    13    14    1
    60    13    12    1
    61    14    15    2
    62    47    45    1
    63    10     9    2
    64    12     9   am
    65    63    64    1
    66    63    62    1
    67     9     8    1
    68    45    46    1
    69    45    42    1
    70     5     6    1
    71     5     2    1
    72    44    43    2
    73    62    61    1
    74     8     7    1
    75     8    11    1
    76     7     3   am
    77    41    42    1
    78    42    43    1
    79    43    48   am
    80     2     3    1
    81     2     1    1
    82     3     4    2
    83    49    48    1
    84    49    50    1
    85    49    52    1
    86    51    50    2
    87    61    58    1
    88    50    57   am
    89    52    53    1
    90    57    58    1
    91    58    59    1
    92    53    54    1
    93    59    60    2
    94    55    54   ar
    95    54    56   ar
