@<TRIPOS>MOLECULE
tmp/4qf1A01.pdb
 77 73 0 0 0
SMALL
GASTEIGER

@<TRIPOS>ATOM
      1  N         66.2920  -11.7980  335.5700 N.3    33  ALA33      -0.1245
      2  CA        67.5580  -11.2240  336.0020 C.3    33  ALA33       0.1562
      3  C         68.5220  -11.0480  334.8280 C.2    33  ALA33       0.2260
      4  O         68.6290  -11.9270  333.9580 O.2    33  ALA33      -0.2867
      5  CB        68.1850  -12.1110  337.0410 C.3    33  ALA33       0.0290
      6  N         72.5660   -9.6080  333.4220 N.3    35  HIS35      -0.1241
      7  CA        73.9490   -9.4930  333.8410 C.3    35  HIS35       0.1621
      8  C         74.8670   -8.9500  332.7520 C.2    35  HIS35       0.2264
      9  O         74.6140   -9.1080  331.5580 O.2    35  HIS35      -0.2867
     10  CB        74.4770  -10.8530  334.2770 C.3    35  HIS35       0.0745
     11  CG        73.6790  -11.4820  335.3730 C.ar   35  HIS35       0.0817
     12  ND1       74.0360  -11.3810  336.6940 N.ar   35  HIS35      -0.2268
     13  CD2       72.5350  -12.2060  335.3320 C.ar   35  HIS35       0.1154
     14  CE1       73.1440  -12.0290  337.4350 C.ar   35  HIS35       0.1986
     15  NE2       72.2280  -12.5320  336.6340 N.ar   35  HIS35      -0.2212
     16  N         82.4420  -12.0310  335.5770 N.3    47  TRP47      -0.1241
     17  CA        81.1780  -11.3850  335.9100 C.3    47  TRP47       0.1605
     18  C         81.4270   -9.9320  336.3150 C.2    47  TRP47       0.2264
     19  O         82.3390   -9.6400  337.0970 O.2    47  TRP47      -0.2867
     20  CB        80.4850  -12.1440  337.0440 C.3    47  TRP47       0.0550
     21  CG        79.1940  -11.5240  337.5130 C.ar   47  TRP47       0.0003
     22  CD1       78.0120  -11.4890  336.8410 C.ar   47  TRP47       0.0946
     23  CD2       78.9570  -10.8880  338.7760 C.ar   47  TRP47       0.0152
     24  NE1       77.0530  -10.8580  337.5980 N.ar   47  TRP47      -0.2442
     25  CE2       77.6090  -10.4790  338.7910 C.ar   47  TRP47       0.0810
     26  CE3       79.7560  -10.6190  339.8920 C.ar   47  TRP47       0.0012
     27  CZ2       77.0390   -9.8080  339.8850 C.ar   47  TRP47       0.0191
     28  CZ3       79.1890   -9.9530  340.9780 C.ar   47  TRP47       0.0001
     29  CH2       77.8460   -9.5540  340.9640 C.ar   47  TRP47       0.0015
     30  N         75.1160   -7.6800  338.0760 N.3    50  GLY50      -0.1210
     31  CA        73.8070   -8.2740  337.8850 C.3    50  GLY50       0.1956
     32  C         72.6890   -7.4550  338.5160 C.2    50  GLY50       0.2612
     33  O         72.9070   -6.6550  339.4550 O.2    50  GLY50      -0.2717
     34  N         71.4810   -7.6560  337.9920 N.am   51  ILE51      -0.1965
     35  CA        70.3110   -6.9160  338.4390 C.3    51  ILE51       0.1727
     36  C         69.0300   -7.7350  338.2650 C.2    51  ILE51       0.2616
     37  O         68.7710   -8.2880  337.1980 O.2    51  ILE51      -0.2715
     38  CB        70.1930   -5.5570  337.7280 C.3    51  ILE51       0.0290
     39  CG1       69.0200   -4.7660  338.2950 C.3    51  ILE51       0.0022
     40  CG2       70.0720   -5.7370  336.2000 C.3    51  ILE51       0.0023
     41  CD1       68.9150   -3.3510  337.7460 C.3    51  ILE51       0.0001
     42  N         68.2470   -7.8360  339.3370 N.am   52  SER52      -0.1950
     43  CA        67.0120   -8.6050  339.3080 C.3    52  SER52       0.1924
     44  C         65.9410   -7.9280  338.4390 C.2    52  SER52       0.2314
     45  O         66.1030   -6.7820  338.0050 O.2    52  SER52      -0.2863
     46  CB        66.4840   -8.8370  340.7290 C.3    52  SER52       0.2116
     47  OG        66.1210   -7.6120  341.3320 O.3    52  SER52      -0.2180
     48  N         67.4310   -6.0030  343.5140 N.3    57  SER57      -0.1202
     49  CA        68.6710   -6.6340  343.9370 C.3    57  SER57       0.2020
     50  C         69.7980   -6.4370  342.9240 C.2    57  SER57       0.2619
     51  O         69.6750   -6.8110  341.7480 O.2    57  SER57      -0.2717
     52  CB        68.4390   -8.1160  344.2110 C.3    57  SER57       0.2103
     53  OG        69.6560   -8.7450  344.5500 O.3    57  SER57      -0.2182
     54  N         70.8920   -5.8360  343.3850 N.am   58  ILE58      -0.1965
     55  CA        72.0000   -5.4760  342.5030 C.3    58  ILE58       0.1727
     56  C         73.3450   -5.8730  343.1100 C.2    58  ILE58       0.2616
     57  O         73.5630   -5.6730  344.3100 O.2    58  ILE58      -0.2715
     58  CB        72.0000   -3.9660  342.2120 C.3    58  ILE58       0.0290
     59  CG1       70.7970   -3.5860  341.3480 C.3    58  ILE58       0.0022
     60  CG2       73.3050   -3.5350  341.5290 C.3    58  ILE58       0.0023
     61  CD1       70.5660   -2.0630  341.2680 C.3    58  ILE58       0.0001
     62  N         74.2170   -6.4690  342.2840 N.am   59  GLY59      -0.1955
     63  CA        75.5580   -6.8690  342.6910 C.3    59  GLY59       0.1869
     64  C         76.6500   -6.4200  341.7120 C.2    59  GLY59       0.2309
     65  O         76.4080   -6.3460  340.4980 O.2    59  GLY59      -0.2863
     66  N         69.4370  -14.7770  333.0820 N.3    99  ASP99      -0.1239
     67  CA        69.1770  -16.0240  333.8000 C.3    99  ASP99       0.1674
     68  C         67.8390  -16.5780  333.3530 C.2    99  ASP99       0.2266
     69  O         67.0160  -15.8520  332.7980 O.2    99  ASP99      -0.2867
     70  CB        69.0910  -15.7870  335.3140 C.3    99  ASP99       0.1410
     71  CG        70.4140  -15.3650  335.9140 C.2    99  ASP99       0.3668
     72  OD1       71.4680  -15.7390  335.3390 O.co2  99  ASP99      -0.2456
     73  OD2       70.3930  -14.6670  336.9610 O.co2  99  ASP99      -0.2456
     74  N         66.2890  -18.4440  338.2380 N.3   103  GLY103     -0.1225
     75  CA        67.7360  -18.5200  338.2730 C.3   103  GLY103      0.1811
     76  C         68.2870  -19.9420  338.2260 C.2   103  GLY103      0.2280
     77  O         69.4740  -20.1740  338.4660 O.2   103  GLY103     -0.2866
@<TRIPOS>BOND
     1     9     8    2
     2     8     7    1
     3    69    68    2
     4    66    67    1
     5    68    67    1
     6     6     7    1
     7    67    70    1
     8     7    10    1
     9     4     3    2
    10    10    11    1
    11     3     2    1
    12    70    71    1
    13    13    11   ar
    14    13    15   ar
    15    72    71   ar
    16    11    12   ar
    17     1     2    1
    18    16    17    1
    19    17    18    1
    20    17    20    1
    21    71    73   ar
    22     2     5    1
    23    40    38    1
    24    18    19    2
    25    15    14   ar
    26    12    14   ar
    27    22    21   ar
    28    22    24   ar
    29    20    21    1
    30    37    36    2
    31    21    23   ar
    32    24    25   ar
    33    38    39    1
    34    38    35    1
    35    41    39    1
    36    31    30    1
    37    31    32    1
    38    34    35    1
    39    34    32   am
    40    45    44    2
    41    76    75    1
    42    76    77    2
    43    74    75    1
    44    36    35    1
    45    36    42   am
    46    44    43    1
    47    32    33    2
    48    23    25   ar
    49    23    26   ar
    50    25    27   ar
    51    43    42    1
    52    43    46    1
    53    27    29   ar
    54    26    28   ar
    55    65    64    2
    56    46    47    1
    57    29    28   ar
    58    61    59    1
    59    59    58    1
    60    60    58    1
    61    64    63    1
    62    51    50    2
    63    58    55    1
    64    62    63    1
    65    62    56   am
    66    55    56    1
    67    55    54    1
    68    50    54   am
    69    50    49    1
    70    56    57    2
    71    48    49    1
    72    49    52    1
    73    52    53    1
