@<TRIPOS>MOLECULE
tmp/4qf5A00.pdb
 204 192 0 0 0
SMALL
GASTEIGER

@<TRIPOS>ATOM
      1  N         -2.3220   -5.0520   14.9360 N.3   116  SER116     -0.1202
      2  CA        -2.5450   -3.6830   15.3760 C.3   116  SER116      0.2020
      3  C         -1.2220   -2.9390   15.4980 C.2   116  SER116      0.2619
      4  O         -1.1100   -1.7820   15.0910 O.2   116  SER116     -0.2717
      5  CB        -3.2950   -3.6600   16.7040 C.3   116  SER116      0.2103
      6  OG        -4.6200   -4.1300   16.5400 O.3   116  SER116     -0.2182
      7  N         -0.2210   -3.6150   16.0530 N.am  117  SER117     -0.1937
      8  CA         1.0930   -3.0140   16.2290 C.3   117  SER117      0.2055
      9  C          2.2110   -4.0540   16.1360 C.2   117  SER117      0.2644
     10  O          2.0660   -5.1770   16.6170 O.2   117  SER117     -0.2714
     11  CB         1.1530   -2.2860   17.5760 C.3   117  SER117      0.2130
     12  OG         2.3800   -1.5970   17.7380 O.3   117  SER117     -0.2179
     13  N          3.3250   -3.6700   15.5180 N.am  118  GLY118     -0.1939
     14  CA         4.4780   -4.5450   15.4030 C.3   118  GLY118      0.2014
     15  C          4.7280   -5.0990   14.0120 C.2   118  GLY118      0.2639
     16  O          5.6490   -5.8890   13.8140 O.2   118  GLY118     -0.2714
     17  N          3.9130   -4.6860   13.0470 N.am  119  LYS119     -0.1963
     18  CA         4.0140   -5.1970   11.6810 C.3   119  LYS119      0.1728
     19  C          5.3490   -4.8690   11.0030 C.2   119  LYS119      0.2617
     20  O          6.0060   -5.7510   10.4450 O.2   119  LYS119     -0.2715
     21  CB         2.8650   -4.6500   10.8320 C.3   119  LYS119      0.0311
     22  CG         1.4840   -5.0820   11.2910 C.3   119  LYS119      0.0038
     23  CD         0.4050   -4.6070   10.3290 C.3   119  LYS119      0.0206
     24  CE         0.3530   -3.0880   10.2410 C.3   119  LYS119      0.1093
     25  NZ         0.0810   -2.4270   11.5510 N.3   119  LYS119     -0.1314
     26  N          5.7500   -3.6040   11.0590 N.am  120  THR120     -0.1937
     27  CA         6.9770   -3.1680   10.4010 C.3   120  THR120      0.2028
     28  C          8.2070   -3.7990   11.0630 C.2   120  THR120      0.2642
     29  O          9.1580   -4.1880   10.3850 O.2   120  THR120     -0.2714
     30  CB         7.0980   -1.6250   10.4100 C.3   120  THR120      0.1808
     31  OG1        6.1310   -1.0530    9.5260 O.3   120  THR120     -0.2208
     32  CG2        8.4860   -1.1800    9.9860 C.3   120  THR120      0.0379
     33  N          8.1740   -3.9190   12.3860 N.am  121  THR121     -0.1950
     34  CA         9.2910   -4.4940   13.1320 C.3   121  THR121      0.1897
     35  C          9.4800   -5.9800   12.8140 C.2   121  THR121      0.2313
     36  O         10.6020   -6.4380   12.5570 O.2   121  THR121     -0.2863
     37  CB         9.0930   -4.3170   14.6520 C.3   121  THR121      0.1794
     38  OG1        8.9280   -2.9260   14.9550 O.3   121  THR121     -0.2208
     39  CG2       10.2910   -4.8580   15.4150 C.3   121  THR121      0.0378
     40  N          5.6010    2.9060    4.4240 N.3   142  ASN142     -0.1240
     41  CA         4.2040    2.8460    4.8400 C.3   142  ASN142      0.1653
     42  C          3.3060    2.2670    3.7540 C.2   142  ASN142      0.2266
     43  O          2.0800    2.3080    3.8600 O.2   142  ASN142     -0.2867
     44  CB         3.7030    4.2390    5.2290 C.3   142  ASN142      0.1155
     45  CG         3.6370    5.1880    4.0430 C.2   142  ASN142      0.2627
     46  OD1        4.5800    5.2850    3.2560 O.2   142  ASN142     -0.2716
     47  ND2        2.5150    5.8890    3.9070 N.am  142  ASN142     -0.0877
     48  N          1.5330   -0.0870    2.7980 N.3   144  ASN144     -0.1240
     49  CA         0.8980   -1.3060    3.2840 C.3   144  ASN144      0.1653
     50  C         -0.6210   -1.2980    3.1510 C.2   144  ASN144      0.2266
     51  O         -1.3040   -2.1270    3.7530 O.2   144  ASN144     -0.2867
     52  CB         1.2860   -1.5530    4.7480 C.3   144  ASN144      0.1155
     53  CG         0.9350   -0.3830    5.6570 C.2   144  ASN144      0.2627
     54  OD1       -0.2380   -0.0610    5.8540 O.2   144  ASN144     -0.2716
     55  ND2        1.9560    0.2540    6.2210 N.am  144  ASN144     -0.0877
     56  N          3.8240   -6.5950    4.2620 N.3   166  GLU166     -0.1245
     57  CA         3.1180   -6.0850    5.4300 C.3   166  GLU166      0.1567
     58  C          1.7470   -5.5460    5.0260 C.2   166  GLU166      0.2260
     59  O          1.6440   -4.6970    4.1440 O.2   166  GLU166     -0.2867
     60  CB         3.9430   -4.9970    6.1210 C.3   166  GLU166      0.0388
     61  CG         3.2610   -4.4020    7.3340 C.3   166  GLU166      0.1160
     62  CD         3.8610   -3.0770    7.7820 C.2   166  GLU166      0.3649
     63  OE1        5.1020   -2.9340    7.8220 O.co2 166  GLU166     -0.2457
     64  OE2        3.0620   -2.1680    8.0870 O.co2 166  GLU166     -0.2457
     65  N         -1.6980   -3.6400    6.1880 N.3   168  GLY168     -0.1225
     66  CA        -2.3580   -2.8020    7.1730 C.3   168  GLY168      0.1811
     67  C         -3.8630   -2.7440    6.9940 C.2   168  GLY168      0.2280
     68  O         -4.3630   -2.7540    5.8710 O.2   168  GLY168     -0.2866
     69  N         -1.1050   -9.4900   16.6220 N.3   191  ASN191     -0.1240
     70  CA        -1.8700   -9.1930   17.8260 C.3   191  ASN191      0.1653
     71  C         -3.1340   -8.3960   17.5350 C.2   191  ASN191      0.2266
     72  O         -3.2840   -7.8110   16.4630 O.2   191  ASN191     -0.2867
     73  CB        -1.0100   -8.4210   18.8310 C.3   191  ASN191      0.1155
     74  CG        -0.3100   -7.2280   18.2050 C.2   191  ASN191      0.2627
     75  OD1       -0.9520   -6.2510   17.8140 O.2   191  ASN191     -0.2716
     76  ND2        1.0150   -7.2970   18.1170 N.am  191  ASN191     -0.0877
     77  N         -6.7040    2.0610   15.4910 N.3   196  HIS196     -0.1241
     78  CA        -7.8470    2.2920   14.6020 C.3   196  HIS196      0.1621
     79  C         -9.1790    1.9530   15.2500 C.2   196  HIS196      0.2264
     80  O        -10.1080    1.5130   14.5720 O.2   196  HIS196     -0.2867
     81  CB        -7.7010    1.4870   13.3080 C.3   196  HIS196      0.0745
     82  CG        -6.4090    1.7180   12.5960 C.ar  196  HIS196      0.0817
     83  ND1       -5.7860    2.9480   12.5600 N.ar  196  HIS196     -0.2268
     84  CD2       -5.6130    0.8740   11.9020 C.ar  196  HIS196      0.1154
     85  CE1       -4.6670    2.8510   11.8680 C.ar  196  HIS196      0.1986
     86  NE2       -4.5400    1.6030   11.4550 N.ar  196  HIS196     -0.2212
     87  N          7.7190   -6.7240   24.2360 N.3   285  HIS285     -0.1226
     88  CA         6.8790   -6.7440   23.0470 C.3   285  HIS285      0.1752
     89  C          7.6850   -7.1150   21.8020 C.2   285  HIS285      0.2596
     90  O          7.1750   -7.7820   20.8990 O.2   285  HIS285     -0.2718
     91  CB         6.1990   -5.3880   22.8600 C.3   285  HIS285      0.0759
     92  CG         7.1570   -4.2550   22.6640 C.ar  285  HIS285      0.0818
     93  ND1        7.7750   -3.6150   23.7160 N.ar  285  HIS285     -0.2268
     94  CD2        7.6000   -3.6450   21.5400 C.ar  285  HIS285      0.1154
     95  CE1        8.5600   -2.6610   23.2480 C.ar  285  HIS285      0.1986
     96  NE2        8.4720   -2.6580   21.9300 N.ar  285  HIS285     -0.2212
     97  N          8.9520   -6.7100   21.7690 N.am  286  ASN286     -0.1974
     98  CA         9.8200   -7.0570   20.6530 C.3   286  ASN286      0.1688
     99  C         10.2680   -8.5080   20.7380 C.2   286  ASN286      0.2292
    100  O         10.6580   -9.1090   19.7350 O.2   286  ASN286     -0.2864
    101  CB        11.0370   -6.1350   20.6050 C.3   286  ASN286      0.1181
    102  CG        10.7210   -4.7830   19.9930 C.2   286  ASN286      0.2629
    103  OD1        9.8590   -4.6670   19.1210 O.2   286  ASN286     -0.2716
    104  ND2       11.4310   -3.7550   20.4390 N.am  286  ASN286     -0.0877
    105  N          8.0720  -10.8060   21.8550 N.3   288  GLN288     -0.1231
    106  CA         6.8710  -11.4110   21.2850 C.3   288  GLN288      0.1698
    107  C          6.9230  -11.3600   19.7530 C.2   288  GLN288      0.2592
    108  O          6.6920  -12.3750   19.0710 O.2   288  GLN288     -0.2718
    109  CB         5.6180  -10.7100   21.8130 C.3   288  GLN288      0.0381
    110  CG         5.4780  -10.7850   23.3300 C.3   288  GLN288      0.0905
    111  CD         4.2900   -9.9980   23.8570 C.2   288  GLN288      0.2608
    112  OE1        3.6400   -9.2580   23.1180 O.2   288  GLN288     -0.2717
    113  NE2        4.0050  -10.1520   25.1450 N.am  288  GLN288     -0.0878
    114  N          7.2320  -10.1770   19.2200 N.am  289  ASN289     -0.1974
    115  CA         7.4260  -10.0110   17.7830 C.3   289  ASN289      0.1688
    116  C          8.4460  -11.0040   17.2400 C.2   289  ASN289      0.2292
    117  O          8.2270  -11.6270   16.1970 O.2   289  ASN289     -0.2864
    118  CB         7.8720   -8.5850   17.4530 C.3   289  ASN289      0.1181
    119  CG         6.7750   -7.5590   17.6740 C.2   289  ASN289      0.2629
    120  OD1        5.5860   -7.8730   17.5900 O.2   289  ASN289     -0.2716
    121  ND2        7.1720   -6.3210   17.9530 N.am  289  ASN289     -0.0877
    122  N         12.0110    5.9150   13.8680 N.3   319  GLY319     -0.1210
    123  CA        10.8960    6.3620   14.6790 C.3   319  GLY319      0.1956
    124  C         10.3060    5.2720   15.5480 C.2   319  GLY319      0.2612
    125  O          9.3100    5.5000   16.2260 O.2   319  GLY319     -0.2717
    126  N         10.9040    4.0840   15.5170 N.am  320  ARG320     -0.1965
    127  CA        10.4610    2.9840   16.3720 C.3   320  ARG320      0.1729
    128  C         11.5160    2.6390   17.4160 C.2   320  ARG320      0.2616
    129  O         12.3740    1.7870   17.1790 O.2   320  ARG320     -0.2715
    130  CB        10.1370    1.7350   15.5430 C.3   320  ARG320      0.0348
    131  CG         8.8810    1.8200   14.6860 C.3   320  ARG320      0.0492
    132  CD         9.1500    2.5060   13.3630 C.3   320  ARG320      0.2205
    133  NE         8.1030    2.2470   12.3810 N.pl3 320  ARG320     -0.0865
    134  CZ         8.1260    2.7040   11.1340 C.cat 320  ARG320      0.5346
    135  NH1        9.1450    3.4450   10.7200 N.pl3 320  ARG320      0.1354
    136  NH2        7.1320    2.4230   10.3020 N.pl3 320  ARG320      0.1354
    137  N         11.4300    3.2930   18.5720 N.am  321  LEU321     -0.1977
    138  CA        12.3840    3.1140   19.6700 C.3   321  LEU321      0.1596
    139  C         13.8420    3.1830   19.2150 C.2   321  LEU321      0.2287
    140  O         14.6200    2.2620   19.4640 O.2   321  LEU321     -0.2864
    141  CB        12.1320    1.7870   20.3900 C.3   321  LEU321      0.0297
    142  CG        10.8040    1.6710   21.1440 C.3   321  LEU321      0.0022
    143  CD1       10.6180    0.2750   21.7250 C.3   321  LEU321      0.0001
    144  CD2       10.7010    2.7310   22.2330 C.3   321  LEU321      0.0001
    145  N         10.5790    7.5090   19.4090 N.3   334  ASP334     -0.1239
    146  CA         9.4730    6.5970   19.1680 C.3   334  ASP334      0.1674
    147  C          8.2890    7.3930   18.6350 C.2   334  ASP334      0.2266
    148  O          7.1480    7.1880   19.0420 O.2   334  ASP334     -0.2867
    149  CB         9.1080    5.8430   20.4470 C.3   334  ASP334      0.1410
    150  CG         8.3190    4.5760   20.1730 C.2   334  ASP334      0.3668
    151  OD1        8.8890    3.6410   19.5730 O.co2 334  ASP334     -0.2456
    152  OD2        7.1380    4.5040   20.5730 O.co2 334  ASP334     -0.2456
    153  N          7.0570    7.8290   15.4500 N.3   336  TYR336     -0.1227
    154  CA         6.4310    7.5140   14.1670 C.3   336  TYR336      0.1736
    155  C          4.9070    7.4720   14.2830 C.2   336  TYR336      0.2595
    156  O          4.2070    8.2330   13.6140 O.2   336  TYR336     -0.2718
    157  CB         6.9460    6.1890   13.6040 C.3   336  TYR336      0.0548
    158  CG         6.4900    5.9550   12.1810 C.ar  336  TYR336     -0.0200
    159  CD1        7.1210    6.5870   11.1180 C.ar  336  TYR336     -0.0009
    160  CD2        5.4090    5.1290   11.9040 C.ar  336  TYR336     -0.0009
    161  CE1        6.6980    6.3880    9.8170 C.ar  336  TYR336      0.0417
    162  CE2        4.9780    4.9250   10.6060 C.ar  336  TYR336      0.0417
    163  CZ         5.6260    5.5560    9.5670 C.ar  336  TYR336      0.1957
    164  OH         5.2000    5.3520    8.2750 O.3   336  TYR336     -0.2866
    165  N          4.3980    6.5840   15.1290 N.am  337  ASN337     -0.1974
    166  CA         2.9670    6.5260   15.4010 C.3   337  ASN337      0.1688
    167  C          2.7140    6.1860   16.8650 C.2   337  ASN337      0.2292
    168  O          3.6570    6.0660   17.6480 O.2   337  ASN337     -0.2864
    169  CB         2.2730    5.5160   14.4790 C.3   337  ASN337      0.1181
    170  CG         2.8650    4.1200   14.5720 C.2   337  ASN337      0.2629
    171  OD1        3.1150    3.6020   15.6610 O.2   337  ASN337     -0.2716
    172  ND2        3.0800    3.4960   13.4200 N.am  337  ASN337     -0.0877
    173  N         -1.6960    0.7710   23.4990 N.3   341  THR341     -0.1203
    174  CA        -0.9010   -0.4110   23.7910 C.3   341  THR341      0.1994
    175  C          0.5830   -0.1170   23.6040 C.2   341  THR341      0.2618
    176  O          1.4010   -0.4130   24.4790 O.2   341  THR341     -0.2717
    177  CB        -1.3100   -1.5970   22.8910 C.3   341  THR341      0.1784
    178  OG1       -2.7100   -1.8610   23.0450 O.3   341  THR341     -0.2211
    179  CG2       -0.5130   -2.8450   23.2460 C.3   341  THR341      0.0376
    180  N          0.9240    0.4820   22.4680 N.am  342  SER342     -0.1951
    181  CA         2.3160    0.7900   22.1670 C.3   342  SER342      0.1924
    182  C          2.8550    1.8740   23.1010 C.2   342  SER342      0.2314
    183  O          4.0520    1.9140   23.3860 O.2   342  SER342     -0.2863
    184  CB         2.4720    1.2180   20.7030 C.3   342  SER342      0.2116
    185  OG         1.7560    2.4090   20.4230 O.3   342  SER342     -0.2180
    186  N          3.7120    0.0130   26.2200 N.3   345  ALA345     -0.1231
    187  CA         4.9460   -0.7260   25.9550 C.3   345  ALA345      0.1694
    188  C          6.1710    0.1870   26.0210 C.2   345  ALA345      0.2591
    189  O          7.2070   -0.1690   26.6030 O.2   345  ALA345     -0.2718
    190  CB         4.8710   -1.4080   24.6020 C.3   345  ALA345      0.0304
    191  N          6.0430    1.3650   25.4150 N.am  346  ALA346     -0.1980
    192  CA         7.1050    2.3640   25.4280 C.3   346  ALA346      0.1597
    193  C          7.4430    2.7680   26.8580 C.2   346  ALA346      0.2287
    194  O          8.6140    2.9550   27.1990 O.2   346  ALA346     -0.2864
    195  CB         6.7020    3.5810   24.6120 C.3   346  ALA346      0.0319
    196  N          6.9870   10.2500   22.1330 N.3   441  LYS441     -0.1245
    197  CA         6.0470    9.3970   21.4120 C.3   441  LYS441      0.1561
    198  C          4.7370   10.1260   21.1290 C.2   441  LYS441      0.2260
    199  O          4.3170   10.9870   21.8990 O.2   441  LYS441     -0.2867
    200  CB         5.7790    8.1080   22.1980 C.3   441  LYS441      0.0271
    201  CG         4.9860    7.0610   21.4230 C.3   441  LYS441      0.0035
    202  CD         4.8160    5.7770   22.2140 C.3   441  LYS441      0.0206
    203  CE         4.0350    4.7390   21.4190 C.3   441  LYS441      0.1093
    204  NZ         4.7120    4.3690   20.1450 N.3   441  LYS441     -0.1314
@<TRIPOS>BOND
     1    48    49    1
     2    50    49    1
     3    50    51    2
     4    46    45    2
     5    49    52    1
     6    42    43    2
     7    42    41    1
     8    47    45   am
     9    45    44    1
    10    59    58    2
    11    56    57    1
    12    40    41    1
    13    52    53    1
    14    41    44    1
    15    58    57    1
    16    57    60    1
    17    53    54    2
    18    53    55   am
    19    68    67    2
    20    60    61    1
    21    65    66    1
    22    67    66    1
    23    61    62    1
    24    62    63   ar
    25    62    64   ar
    26   164   163    1
    27    31    30    1
    28   163   161   ar
    29   163   162   ar
    30   161   159   ar
    31    32    30    1
    32    24    23    1
    33    24    25    1
    34   136   134    1
    35    23    22    1
    36    29    28    2
    37    27    30    1
    38    27    26    1
    39    27    28    1
    40    20    19    2
    41   162   160   ar
    42   135   134    1
    43    21    22    1
    44    21    18    1
    45    19    26   am
    46    19    18    1
    47    28    33   am
    48   159   158   ar
    49   134   133    2
    50    86    85   ar
    51    86    84   ar
    52    18    17    1
    53    85    83   ar
    54    84    82   ar
    55   160   158   ar
    56   158   157    1
    57   133   132    1
    58    33    34    1
    59    36    35    2
    60    83    82   ar
    61    82    81    1
    62    35    34    1
    63    17    15   am
    64    34    37    1
    65    81    78    1
    66   132   131    1
    67   172   170   am
    68   157   154    1
    69   156   155    2
    70    16    15    2
    71   122   123    1
    72    15    14    1
    73   154   155    1
    74   154   153    1
    75   155   165   am
    76   169   170    1
    77   169   166    1
    78   170   171    2
    79    80    79    2
    80    78    79    1
    81    78    77    1
    82    37    38    1
    83    37    39    1
    84   123   124    1
    85   131   130    1
    86     1     2    1
    87     4     3    2
    88   165   166    1
    89     2     3    1
    90     2     5    1
    91   166   167    1
    92    14    13    1
    93     3     7   am
    94   126   124   am
    95   126   127    1
    96    13     9   am
    97   130   127    1
    98   124   125    2
    99     7     8    1
   100     9     8    1
   101     9    10    2
   102   117   116    2
   103     8    11    1
   104   127   128    1
   105    72    71    2
   106     6     5    1
   107    69    70    1
   108   167   168    2
   109   129   128    2
   110   116   115    1
   111   128   137   am
   112   118   119    1
   113   118   115    1
   114    71    70    1
   115    11    12    1
   116   120   119    2
   117   119   121   am
   118   115   114    1
   119    75    74    2
   120    70    73    1
   121    76    74   am
   122    74    73    1
   123   137   138    1
   124   147   148    2
   125   147   146    1
   126   108   107    2
   127   103   102    2
   128   146   145    1
   129   146   149    1
   130   139   140    2
   131   139   138    1
   132   114   107   am
   133   151   150   ar
   134   138   141    1
   135   100    99    2
   136   107   106    1
   137   102   104   am
   138   102   101    1
   139   204   203    1
   140   150   149    1
   141   150   152   ar
   142   141   142    1
   143   185   184    1
   144   101    98    1
   145    98    99    1
   146    98    97    1
   147   184   181    1
   148    90    89    2
   149   198   197    1
   150   198   199    2
   151   142   143    1
   152   142   144    1
   153   106   109    1
   154   106   105    1
   155   197   196    1
   156   197   200    1
   157   203   202    1
   158   201   200    1
   159   201   202    1
   160    94    96   ar
   161    94    92   ar
   162    97    89   am
   163    89    88    1
   164   109   110    1
   165    96    95   ar
   166   181   180    1
   167   181   182    1
   168   180   175   am
   169    92    91    1
   170    92    93   ar
   171    91    88    1
   172   177   178    1
   173   177   179    1
   174   177   174    1
   175    88    87    1
   176   182   183    2
   177   112   111    2
   178    95    93   ar
   179   110   111    1
   180   173   174    1
   181   175   174    1
   182   175   176    2
   183   111   113   am
   184   190   187    1
   185   195   192    1
   186   191   192    1
   187   191   188   am
   188   192   193    1
   189   187   188    1
   190   187   186    1
   191   188   189    2
   192   193   194    2
