@<TRIPOS>MOLECULE
tmp/4qf7A00.pdb
 136 131 0 0 0
SMALL
GASTEIGER

@<TRIPOS>ATOM
      1  N         15.3150   10.1600   -5.8940 N.3     2  LEU2       -0.1231
      2  CA        16.5670    9.5150   -5.8270 C.3     2  LEU2        0.1693
      3  C         17.6430   10.3620   -5.0910 C.2     2  LEU2        0.2591
      4  O         18.4110    9.8710   -4.2510 O.2     2  LEU2       -0.2718
      5  CB        17.0600    9.0790   -7.2300 C.3     2  LEU2        0.0284
      6  CG        16.7140    7.6560   -7.6670 C.3     2  LEU2        0.0019
      7  CD1       16.6390    7.5230   -9.1550 C.3     2  LEU2        0.0001
      8  CD2       17.7400    6.7010   -7.1300 C.3     2  LEU2        0.0001
      9  N         17.6880   11.6400   -5.4190 N.am    3  LEU3       -0.1980
     10  CA        18.6350   12.5560   -4.7550 C.3     3  LEU3        0.1596
     11  C         18.3580   12.6900   -3.2550 C.2     3  LEU3        0.2287
     12  O         19.2880   12.6750   -2.4620 O.2     3  LEU3       -0.2864
     13  CB        18.7160   13.9070   -5.4740 C.3     3  LEU3        0.0297
     14  CG        19.3730   13.7160   -6.8360 C.3     3  LEU3        0.0022
     15  CD1       19.0200   14.8390   -7.7830 C.3     3  LEU3        0.0001
     16  CD2       20.8870   13.6430   -6.6960 C.3     3  LEU3        0.0001
     17  N         16.8450   10.3270   -1.3810 N.3     5  PHE5       -0.1227
     18  CA        17.1950    9.0510   -0.8100 C.3     5  PHE5        0.1736
     19  C         18.6980    9.0460   -0.6060 C.2     5  PHE5        0.2596
     20  O         19.1730    8.6480    0.4380 O.2     5  PHE5       -0.2718
     21  CB        16.7810    7.9110   -1.7630 C.3     5  PHE5        0.0547
     22  CG        16.9930    6.5090   -1.2300 C.ar    5  PHE5       -0.0202
     23  CD1       16.8960    6.2210    0.1400 C.ar    5  PHE5       -0.0042
     24  CD2       17.2390    5.4540   -2.1120 C.ar    5  PHE5       -0.0042
     25  CE1       17.0260    4.9280    0.6040 C.ar    5  PHE5       -0.0003
     26  CE2       17.4030    4.1720   -1.6530 C.ar    5  PHE5       -0.0003
     27  CZ        17.2940    3.9040   -0.2820 C.ar    5  PHE5       -0.0000
     28  N         19.4130    9.5290   -1.5970 N.am    6  GLY6       -0.1957
     29  CA        20.8820    9.6040   -1.5090 C.3     6  GLY6        0.1869
     30  C         21.3580   10.3590   -0.2850 C.2     6  GLY6        0.2309
     31  O         22.3280    9.9500    0.3590 O.2     6  GLY6       -0.2863
     32  N         20.6120    8.5190    3.0100 N.3     9  ILE9       -0.1245
     33  CA        21.6220    7.4420    3.1690 C.3     9  ILE9        0.1561
     34  C         22.9220    8.0150    3.7380 C.2     9  ILE9        0.2260
     35  O         23.5020    7.4740    4.6890 O.2     9  ILE9       -0.2867
     36  CB        21.9000    6.7660    1.8060 C.3     9  ILE9        0.0252
     37  CG1       20.6790    5.9170    1.4280 C.3     9  ILE9        0.0019
     38  CG2       23.2130    5.9590    1.8020 C.3     9  ILE9        0.0019
     39  CD1       20.7330    5.4240    0.0070 C.3     9  ILE9        0.0001
     40  N         25.7790    7.6630   -1.2890 N.3    17  ALA17      -0.1231
     41  CA        24.9540    6.6280   -1.9170 C.3    17  ALA17       0.1694
     42  C         25.5050    6.1210   -3.2520 C.2    17  ALA17       0.2591
     43  O         25.4860    4.9080   -3.5010 O.2    17  ALA17      -0.2718
     44  CB        23.5010    7.0830   -2.0570 C.3    17  ALA17       0.0304
     45  N         25.9500    7.0400   -4.1080 N.am   18  ILE18      -0.1980
     46  CA        26.8350    6.6890   -5.2240 C.3    18  ILE18       0.1595
     47  C         28.2710    7.0050   -4.7880 C.2    18  ILE18       0.2287
     48  O         28.6210    8.1730   -4.6290 O.2    18  ILE18      -0.2864
     49  CB        26.5210    7.4480   -6.5400 C.3    18  ILE18       0.0276
     50  CG1       25.0470    7.3390   -6.9350 C.3    18  ILE18       0.0022
     51  CG2       27.4250    6.9750   -7.6850 C.3    18  ILE18       0.0022
     52  CD1       24.7770    7.9210   -8.3000 C.3    18  ILE18       0.0001
     53  N         26.3750    2.3740   -2.3630 N.3    21  TYR21      -0.1227
     54  CA        25.1720    1.5760   -2.4360 C.3    21  TYR21       0.1736
     55  C         24.5180    1.4780   -3.8260 C.2    21  TYR21       0.2596
     56  O         23.5960    0.6990   -4.0190 O.2    21  TYR21      -0.2718
     57  CB        24.1820    2.0750   -1.4070 C.3    21  TYR21       0.0548
     58  CG        24.6290    1.9130    0.0170 C.ar   21  TYR21      -0.0200
     59  CD1       24.5110    0.6800    0.6690 C.ar   21  TYR21      -0.0009
     60  CD2       25.0940    3.0030    0.7570 C.ar   21  TYR21      -0.0009
     61  CE1       24.8970    0.5270    1.9970 C.ar   21  TYR21       0.0417
     62  CE2       25.4880    2.8480    2.0850 C.ar   21  TYR21       0.0417
     63  CZ        25.3660    1.6060    2.7010 C.ar   21  TYR21       0.1957
     64  OH        25.7120    1.4160    4.0070 O.3    21  TYR21      -0.2866
     65  N         24.9240    2.2680   -4.7860 N.am   22  SER22      -0.1952
     66  CA        24.2640    2.2970   -6.0680 C.3    22  SER22       0.1924
     67  C         24.4370    1.0470   -6.8880 C.2    22  SER22       0.2314
     68  O         23.6960    0.7970   -7.7310 O.2    22  SER22      -0.2863
     69  CB        24.6730    3.5330   -6.8510 C.3    22  SER22       0.2116
     70  OG        26.0530    3.5540   -6.9680 O.3    22  SER22      -0.2180
     71  N         20.7920   -3.7800   -4.8460 N.3    28  CYS28      -0.1221
     72  CA        20.9310   -2.3340   -4.7230 C.3    28  CYS28       0.1808
     73  C         21.0490   -1.6080   -6.0910 C.2    28  CYS28       0.2601
     74  O         21.8460   -1.9770   -6.8900 O.2    28  CYS28      -0.2717
     75  CB        22.1360   -1.9840   -3.8470 C.3    28  CYS28       0.0970
     76  SG        22.1700   -2.6480   -2.1780 S.3    28  CYS28      -0.0800
     77  N         20.2780   -0.5680   -6.3040 N.am   29  GLY29      -0.1957
     78  CA        20.2820    0.2260   -7.5210 C.3    29  GLY29       0.1869
     79  C         19.5120   -0.3860   -8.6520 C.2    29  GLY29       0.2309
     80  O         18.7130   -1.2000   -8.4450 O.2    29  GLY29      -0.2863
     81  N         18.3920   -3.7250    0.3370 N.3    44  CYS44      -0.1235
     82  CA        18.0780   -3.3140   -0.9950 C.3    44  CYS44       0.1677
     83  C         16.9550   -4.1820   -1.5410 C.2    44  CYS44       0.2270
     84  O         16.0340   -3.6760   -2.1970 O.2    44  CYS44      -0.2867
     85  CB        19.2770   -3.3460   -1.9270 C.3    44  CYS44       0.0956
     86  SG        20.3680   -2.0120   -1.4690 S.3    44  CYS44      -0.0801
     87  N         13.8510   -2.9470    0.0100 N.3    47  HIS47      -0.1226
     88  CA        13.5820   -1.6430   -0.5410 C.3    47  HIS47       0.1752
     89  C         12.9710   -1.7690   -1.9210 C.2    47  HIS47       0.2596
     90  O         11.9810   -1.1000   -2.2280 O.2    47  HIS47      -0.2718
     91  CB        14.8440   -0.8150   -0.5450 C.3    47  HIS47       0.0759
     92  CG        14.6430    0.6370   -0.9760 C.ar   47  HIS47       0.0818
     93  ND1       15.1470    1.1240   -2.1190 N.ar   47  HIS47      -0.2268
     94  CD2       13.9680    1.6940   -0.3550 C.ar   47  HIS47       0.1154
     95  CE1       14.8450    2.4310   -2.2270 C.ar   47  HIS47       0.1986
     96  NE2       14.1000    2.7850   -1.1530 N.ar   47  HIS47      -0.2212
     97  N         13.5730   -2.6250   -2.7540 N.am   48  ASP48      -0.1974
     98  CA        13.0480   -2.9560   -4.0580 C.3    48  ASP48       0.1709
     99  C         11.6110   -3.4310   -3.9490 C.2    48  ASP48       0.2293
    100  O         10.7370   -3.0200   -4.7270 O.2    48  ASP48      -0.2864
    101  CB        13.9220   -4.0040   -4.7220 C.3    48  ASP48       0.1436
    102  CG        15.2890   -3.4670   -5.1570 C.2    48  ASP48       0.3671
    103  OD1       15.5170   -2.2320   -5.1520 O.co2  48  ASP48      -0.2456
    104  OD2       16.0950   -4.3310   -5.5350 O.co2  48  ASP48      -0.2456
    105  N          9.2340   -0.5020   -3.0960 N.3    51  TYR51      -0.1241
    106  CA         8.8940    0.2540   -4.2700 C.3    51  TYR51       0.1605
    107  C          7.9310   -0.5030   -5.1740 C.2    51  TYR51       0.2264
    108  O          6.9800    0.0630   -5.7470 O.2    51  TYR51      -0.2867
    109  CB        10.1800    0.5520   -5.0490 C.3    51  TYR51       0.0534
    110  CG        10.9880    1.7460   -4.5830 C.ar   51  TYR51      -0.0201
    111  CD1       10.6570    2.4590   -3.4300 C.ar   51  TYR51      -0.0009
    112  CD2       12.0990    2.1320   -5.3200 C.ar   51  TYR51      -0.0009
    113  CE1       11.4280    3.5290   -3.0030 C.ar   51  TYR51       0.0417
    114  CE2       12.8760    3.2060   -4.9410 C.ar   51  TYR51       0.0417
    115  CZ        12.5480    3.9060   -3.7800 C.ar   51  TYR51       0.1957
    116  OH        13.3100    4.9980   -3.4180 O.3    51  TYR51      -0.2866
    117  N         11.8370    7.6880   -8.0770 N.3    60  LYS60      -0.1245
    118  CA        13.0450    8.3820   -8.5110 C.3    60  LYS60       0.1561
    119  C         12.8240    9.8830   -8.5760 C.2    60  LYS60       0.2260
    120  O         13.7280   10.6680   -8.2930 O.2    60  LYS60      -0.2867
    121  CB        13.5170    7.8780   -9.8810 C.3    60  LYS60       0.0271
    122  CG        13.4110    6.3720  -10.0740 C.3    60  LYS60       0.0035
    123  CD        13.9820    5.5400   -8.9460 C.3    60  LYS60       0.0206
    124  CE        13.6180    4.0740   -9.1750 C.3    60  LYS60       0.1093
    125  NZ        13.9770    3.1160   -8.0900 N.3    60  LYS60      -0.1314
    126  N         20.5300    0.1500    6.1930 N.3    96  PHE96      -0.1241
    127  CA        21.9600    0.3180    5.8930 C.3    96  PHE96       0.1605
    128  C         22.6820    0.5740    7.2130 C.2    96  PHE96       0.2264
    129  O         23.7140   -0.0530    7.4950 O.2    96  PHE96      -0.2867
    130  CB        22.1740    1.4660    4.8690 C.3    96  PHE96       0.0534
    131  CG        21.6020    1.1880    3.4870 C.ar   96  PHE96      -0.0203
    132  CD1       21.4280   -0.1270    3.0210 C.ar   96  PHE96      -0.0042
    133  CD2       21.3180    2.2380    2.6180 C.ar   96  PHE96      -0.0042
    134  CE1       20.9100   -0.3520    1.7450 C.ar   96  PHE96      -0.0003
    135  CE2       20.8280    2.0210    1.3470 C.ar   96  PHE96      -0.0003
    136  CZ        20.6290    0.7080    0.9110 C.ar   96  PHE96      -0.0000
@<TRIPOS>BOND
     1   122   121    1
     2   122   123    1
     3   121   118    1
     4   124   123    1
     5   124   125    1
     6     7     6    1
     7    79    80    2
     8    79    78    1
     9   119   118    1
    10   119   120    2
    11   118   117    1
    12    52    50    1
    13    15    14    1
    14    68    67    2
    15    51    49    1
    16     6     5    1
    17     6     8    1
    18    78    77    1
    19     5     2    1
    20    70    69    1
    21    50    49    1
    22    74    73    2
    23    67    66    1
    24    69    66    1
    25    14    16    1
    26    14    13    1
    27    49    46    1
    28    77    73   am
    29    73    72    1
    30    66    65    1
    31     1     2    1
    32     2     3    1
    33   108   107    2
    34   104   102   ar
    35    13    10    1
    36     9     3   am
    37     9    10    1
    38   112   114   ar
    39   112   110   ar
    40    46    47    1
    41    46    45    1
    42   107   106    1
    43   102   103   ar
    44   102   101    1
    45     3     4    2
    46   109   110    1
    47   109   106    1
    48   114   115   ar
    49    71    72    1
    50    47    48    2
    51    65    55   am
    52    10    11    1
    53   100    99    2
    54    72    75    1
    55   101    98    1
    56   110   111   ar
    57   106   105    1
    58    45    42   am
    59    98    99    1
    60    98    97    1
    61    56    55    2
    62    75    76    1
    63    55    54    1
    64   115   116    1
    65   115   113   ar
    66    43    42    2
    67   111   113   ar
    68    11    12    2
    69    42    41    1
    70    97    89   am
    71    54    53    1
    72    54    57    1
    73    90    89    2
    74    95    93   ar
    75    95    96   ar
    76    84    83    2
    77    76    86    1
    78    93    92   ar
    79    24    26   ar
    80    24    22   ar
    81    44    41    1
    82    85    86    1
    83    85    82    1
    84    89    88    1
    85    41    40    1
    86    21    22    1
    87    21    18    1
    88    26    27   ar
    89    28    29    1
    90    28    19   am
    91    83    82    1
    92    29    30    1
    93    57    58    1
    94    17    18    1
    95    22    23   ar
    96    96    94   ar
    97    82    81    1
    98    92    91    1
    99    92    94   ar
   100    18    19    1
   101    19    20    2
   102    91    88    1
   103    88    87    1
   104    30    31    2
   105    27    25   ar
   106    39    37    1
   107    58    59   ar
   108    58    60   ar
   109    23    25   ar
   110    59    61   ar
   111    60    62   ar
   112   136   135   ar
   113   136   134   ar
   114   135   133   ar
   115    37    36    1
   116   134   132   ar
   117    38    36    1
   118    36    33    1
   119    61    63   ar
   120    62    63   ar
   121   133   131   ar
   122    63    64    1
   123    32    33    1
   124   132   131   ar
   125    33    34    1
   126   131   130    1
   127    34    35    2
   128   130   127    1
   129   127   126    1
   130   127   128    1
   131   128   129    2
