@<TRIPOS>MOLECULE
tmp/4qf8A00.pdb
 131 128 0 0 0
SMALL
GASTEIGER

@<TRIPOS>ATOM
      1  N         15.4890   10.5000   -5.9720 N.3     2  LEU2       -0.1245
      2  CA        16.7600    9.7710   -5.9310 C.3     2  LEU2        0.1561
      3  C         17.8220   10.5160   -5.1210 C.2     2  LEU2        0.2260
      4  O         18.5410    9.8840   -4.2860 O.2     2  LEU2       -0.2867
      5  CB        17.2180    9.4380   -7.3860 C.3     2  LEU2        0.0270
      6  CG        18.2600    8.2960   -7.4640 C.3     2  LEU2        0.0019
      7  CD1       17.7280    6.8780   -7.4220 C.3     2  LEU2        0.0001
      8  CD2       19.0880    8.4290   -8.7420 C.3     2  LEU2        0.0001
      9  N         16.9070   10.5490   -1.3510 N.3     5  PHE5       -0.1227
     10  CA        17.2300    9.2490   -0.7860 C.3     5  PHE5        0.1736
     11  C         18.7640    9.2040   -0.5630 C.2     5  PHE5        0.2596
     12  O         19.2530    8.7580    0.4990 O.2     5  PHE5       -0.2718
     13  CB        16.7640    8.1260   -1.7250 C.3     5  PHE5        0.0547
     14  CG        17.0320    6.7290   -1.1920 C.ar    5  PHE5       -0.0202
     15  CD1       16.9730    6.4540    0.1830 C.ar    5  PHE5       -0.0042
     16  CD2       17.3170    5.7090   -2.0400 C.ar    5  PHE5       -0.0042
     17  CE1       17.2170    5.1840    0.6130 C.ar    5  PHE5       -0.0003
     18  CE2       17.5870    4.4280   -1.6200 C.ar    5  PHE5       -0.0003
     19  CZ        17.4970    4.1700   -0.2460 C.ar    5  PHE5       -0.0000
     20  N         19.4980    9.7110   -1.5410 N.am    6  GLY6       -0.1957
     21  CA        20.9830    9.7220   -1.4130 C.3     6  GLY6        0.1869
     22  C         21.4500   10.4880   -0.2010 C.2     6  GLY6        0.2309
     23  O         22.3990   10.0830    0.4950 O.2     6  GLY6       -0.2863
     24  N         20.7570    8.7500    2.9750 N.3     9  ILE9       -0.1245
     25  CA        21.7040    7.6270    3.1940 C.3     9  ILE9        0.1561
     26  C         23.0020    8.1700    3.7570 C.2     9  ILE9        0.2260
     27  O         23.5120    7.6160    4.7480 O.2     9  ILE9       -0.2867
     28  CB        22.0150    6.8930    1.9110 C.3     9  ILE9        0.0252
     29  CG1       20.8170    6.0380    1.4930 C.3     9  ILE9        0.0019
     30  CG2       23.2170    5.9360    2.0800 C.3     9  ILE9        0.0019
     31  CD1       20.8930    5.6300    0.0260 C.3     9  ILE9        0.0001
     32  N         25.9670    7.7970   -1.0240 N.3    17  ALA17      -0.1231
     33  CA        25.1490    6.8040   -1.6860 C.3    17  ALA17       0.1694
     34  C         25.7320    6.2500   -2.9670 C.2    17  ALA17       0.2591
     35  O         25.7700    5.0160   -3.1580 O.2    17  ALA17      -0.2718
     36  CB        23.7110    7.2960   -1.8920 C.3    17  ALA17       0.0304
     37  N         26.1980    7.1560   -3.8360 N.am   18  ILE18      -0.1980
     38  CA        27.0910    6.7760   -4.9430 C.3    18  ILE18       0.1595
     39  C         28.5670    7.0580   -4.4770 C.2    18  ILE18       0.2287
     40  O         28.9180    8.1800   -4.2330 O.2    18  ILE18      -0.2864
     41  CB        26.7300    7.5890   -6.2070 C.3    18  ILE18       0.0276
     42  CG1       25.2190    7.5700   -6.4290 C.3    18  ILE18       0.0022
     43  CG2       27.4090    7.0540   -7.4380 C.3    18  ILE18       0.0022
     44  CD1       24.7250    8.6010   -7.4160 C.3    18  ILE18       0.0001
     45  N         26.5180    2.5280   -2.1570 N.3    21  TYR21      -0.1227
     46  CA        25.3320    1.7200   -2.2950 C.3    21  TYR21       0.1736
     47  C         24.7250    1.6560   -3.6720 C.2    21  TYR21       0.2596
     48  O         23.6360    1.2070   -3.8100 O.2    21  TYR21      -0.2718
     49  CB        24.2990    2.1720   -1.3060 C.3    21  TYR21       0.0548
     50  CG        24.7290    2.0420    0.1230 C.ar   21  TYR21      -0.0200
     51  CD1       24.7020    0.8370    0.7460 C.ar   21  TYR21      -0.0009
     52  CD2       25.1660    3.1300    0.8340 C.ar   21  TYR21      -0.0009
     53  CE1       25.0910    0.7100    2.0480 C.ar   21  TYR21       0.0417
     54  CE2       25.5570    3.0130    2.1230 C.ar   21  TYR21       0.0417
     55  CZ        25.5310    1.7940    2.7220 C.ar   21  TYR21       0.1957
     56  OH        25.8990    1.6660    4.0000 O.3    21  TYR21      -0.2866
     57  N         25.3910    2.1780   -4.6790 N.am   22  SER22      -0.1952
     58  CA        24.8160    2.2010   -6.0260 C.3    22  SER22       0.1924
     59  C         25.1800    1.0530   -6.9530 C.2    22  SER22       0.2314
     60  O         24.5360    0.8640   -7.9600 O.2    22  SER22      -0.2863
     61  CB        25.0340    3.5290   -6.7190 C.3    22  SER22       0.2116
     62  OG        26.3820    3.7810   -6.8880 O.3    22  SER22      -0.2180
     63  N         21.5040   -6.3700   -5.3420 N.3    27  TYR27      -0.1227
     64  CA        20.3040   -5.5360   -5.3670 C.3    27  TYR27       0.1736
     65  C         20.5090   -4.0190   -5.1960 C.2    27  TYR27       0.2596
     66  O         19.6140   -3.2660   -5.5150 O.2    27  TYR27      -0.2718
     67  CB        19.2810   -6.0600   -4.3220 C.3    27  TYR27       0.0548
     68  CG        18.6830   -7.3710   -4.7420 C.ar   27  TYR27      -0.0200
     69  CD1       17.6120   -7.4260   -5.6790 C.ar   27  TYR27      -0.0009
     70  CD2       19.2770   -8.5720   -4.3460 C.ar   27  TYR27      -0.0009
     71  CE1       17.1130   -8.6520   -6.1120 C.ar   27  TYR27       0.0417
     72  CE2       18.7560   -9.7670   -4.7370 C.ar   27  TYR27       0.0417
     73  CZ        17.7220   -9.8180   -5.7020 C.ar   27  TYR27       0.1957
     74  OH        17.2010  -11.0110   -6.0930 O.3    27  TYR27      -0.2866
     75  N         21.6590   -3.5660   -4.7560 N.am   28  CYS28      -0.1956
     76  CA        21.7770   -2.1620   -4.5210 C.3    28  CYS28       0.1843
     77  C         22.1620   -1.5100   -5.8130 C.2    28  CYS28       0.2626
     78  O         23.2390   -1.6930   -6.2750 O.2    28  CYS28      -0.2714
     79  CB        22.8110   -1.8730   -3.4870 C.3    28  CYS28       0.0997
     80  SG        22.5460   -2.6680   -1.9170 S.3    28  CYS28      -0.0797
     81  N         21.2890   -0.6940   -6.3540 N.am   29  GLY29      -0.1954
     82  CA        21.5260   -0.1300   -7.6570 C.3    29  GLY29       0.1869
     83  C         20.6480   -0.8080   -8.6690 C.2    29  GLY29       0.2309
     84  O         19.7960   -1.5640   -8.3520 O.2    29  GLY29      -0.2863
     85  N         18.7050   -3.5620    0.3400 N.3    44  CYS44      -0.1235
     86  CA        18.3580   -3.1160   -1.0130 C.3    44  CYS44       0.1677
     87  C         17.2300   -3.9330   -1.6000 C.2    44  CYS44       0.2270
     88  O         16.3710   -3.3770   -2.2770 O.2    44  CYS44      -0.2867
     89  CB        19.5470   -3.1380   -1.8960 C.3    44  CYS44       0.0956
     90  SG        20.7610   -1.9060   -1.3410 S.3    44  CYS44      -0.0801
     91  N         14.0860   -2.9040   -0.0930 N.3    47  HIS47      -0.1226
     92  CA        13.7740   -1.5580   -0.6150 C.3    47  HIS47       0.1752
     93  C         13.2110   -1.6390   -2.0250 C.2    47  HIS47       0.2596
     94  O         12.2640   -0.9010   -2.3380 O.2    47  HIS47      -0.2718
     95  CB        15.0530   -0.7030   -0.6440 C.3    47  HIS47       0.0759
     96  CG        14.8170    0.7320   -1.0850 C.ar   47  HIS47       0.0818
     97  ND1       15.3170    1.2140   -2.2540 N.ar   47  HIS47      -0.2268
     98  CD2       14.1790    1.7630   -0.4670 C.ar   47  HIS47       0.1154
     99  CE1       15.0380    2.5230   -2.3560 C.ar   47  HIS47       0.1986
    100  NE2       14.2990    2.8740   -1.2690 N.ar   47  HIS47      -0.2212
    101  N         13.7530   -2.5390   -2.8280 N.am   48  ASP48      -0.1974
    102  CA        13.2350   -2.7800   -4.1950 C.3    48  ASP48       0.1709
    103  C         11.8000   -3.2950   -4.0670 C.2    48  ASP48       0.2293
    104  O         10.9280   -2.9020   -4.7940 O.2    48  ASP48      -0.2864
    105  CB        14.0720   -3.8710   -4.8680 C.3    48  ASP48       0.1436
    106  CG        15.3840   -3.3240   -5.4310 C.2    48  ASP48       0.3671
    107  OD1       15.5640   -2.1020   -5.4100 O.co2  48  ASP48      -0.2456
    108  OD2       16.1280   -4.1670   -5.9290 O.co2  48  ASP48      -0.2456
    109  N          9.3800   -0.3950   -3.0900 N.3    51  TYR51      -0.1241
    110  CA         9.0070    0.4020   -4.2530 C.3    51  TYR51       0.1605
    111  C          8.0340   -0.4260   -5.1540 C.2    51  TYR51       0.2264
    112  O          7.2330    0.1390   -5.8550 O.2    51  TYR51      -0.2867
    113  CB        10.2670    0.6910   -5.0480 C.3    51  TYR51       0.0534
    114  CG        11.0450    1.8880   -4.6030 C.ar   51  TYR51      -0.0201
    115  CD1       10.7970    2.5520   -3.3760 C.ar   51  TYR51      -0.0009
    116  CD2       12.1290    2.3250   -5.3330 C.ar   51  TYR51      -0.0009
    117  CE1       11.5340    3.6960   -3.0170 C.ar   51  TYR51       0.0417
    118  CE2       12.8620    3.4200   -4.9690 C.ar   51  TYR51       0.0417
    119  CZ        12.6200    4.0660   -3.7620 C.ar   51  TYR51       0.1957
    120  OH        13.4010    5.1480   -3.4500 O.3    51  TYR51      -0.2866
    121  N         20.6390    0.1700    6.2430 N.3    96  PHE96      -0.1241
    122  CA        22.0730    0.3780    5.9130 C.3    96  PHE96       0.1605
    123  C         22.8220    0.6960    7.2060 C.2    96  PHE96       0.2264
    124  O         23.8570    0.1120    7.4640 O.2    96  PHE96      -0.2867
    125  CB        22.2410    1.5370    4.9650 C.3    96  PHE96       0.0534
    126  CG        21.7470    1.2590    3.5250 C.ar   96  PHE96      -0.0203
    127  CD1       21.6310   -0.0270    3.0420 C.ar   96  PHE96      -0.0042
    128  CD2       21.3500    2.2820    2.7750 C.ar   96  PHE96      -0.0042
    129  CE1       21.1570   -0.2380    1.7230 C.ar   96  PHE96      -0.0003
    130  CE2       20.8750    2.1130    1.4870 C.ar   96  PHE96      -0.0003
    131  CZ        20.7790    0.8570    0.9690 C.ar   96  PHE96      -0.0000
@<TRIPOS>BOND
     1     8     6    1
     2    83    84    2
     3    83    82    1
     4    60    59    2
     5    82    81    1
     6     6     7    1
     7     6     5    1
     8    43    41    1
     9    44    42    1
    10     5     2    1
    11    59    58    1
    12    62    61    1
    13    61    58    1
    14    42    41    1
    15    81    77   am
    16    78    77    2
    17    41    38    1
    18    71    73   ar
    19    71    69   ar
    20    74    73    1
    21    58    57    1
    22     1     2    1
    23     2     3    1
    24   108   106   ar
    25   112   111    2
    26    77    76    1
    27    73    72   ar
    28    69    68   ar
    29    66    65    2
    30   106   107   ar
    31   106   105    1
    32    64    63    1
    33    64    65    1
    34    64    67    1
    35   116   118   ar
    36   116   114   ar
    37    65    75   am
    38   111   110    1
    39     3     4    2
    40   113   114    1
    41   113   110    1
    42   118   119   ar
    43    38    39    1
    44    38    37    1
    45   105   102    1
    46   104   103    2
    47    75    76    1
    48    68    70   ar
    49    68    67    1
    50    72    70   ar
    51    57    47   am
    52   114   115   ar
    53    76    79    1
    54    39    40    2
    55   110   109    1
    56   102   103    1
    57   102   101    1
    58    37    34   am
    59    48    47    2
    60   119   120    1
    61   119   117   ar
    62    47    46    1
    63    79    80    1
    64   115   117   ar
    65    35    34    2
    66    34    33    1
    67   101    93   am
    68    99    97   ar
    69    99   100   ar
    70    94    93    2
    71    46    45    1
    72    46    49    1
    73    88    87    2
    74    97    96   ar
    75    16    18   ar
    76    16    14   ar
    77    93    92    1
    78    80    90    1
    79    89    90    1
    80    89    86    1
    81    36    33    1
    82    13    14    1
    83    13    10    1
    84    33    32    1
    85    18    19   ar
    86    87    86    1
    87    20    21    1
    88    20    11   am
    89    21    22    1
    90     9    10    1
    91    49    50    1
    92   100    98   ar
    93    14    15   ar
    94    96    95    1
    95    96    98   ar
    96    86    85    1
    97    10    11    1
    98    95    92    1
    99    92    91    1
   100    11    12    2
   101    19    17   ar
   102    22    23    2
   103    31    29    1
   104    50    51   ar
   105    50    52   ar
   106    15    17   ar
   107    51    53   ar
   108    52    54   ar
   109   131   130   ar
   110   131   129   ar
   111   130   128   ar
   112    29    28    1
   113   129   127   ar
   114    28    30    1
   115    28    25    1
   116    53    55   ar
   117    54    55   ar
   118    55    56    1
   119   128   126   ar
   120    24    25    1
   121   127   126   ar
   122    25    26    1
   123   126   125    1
   124    26    27    2
   125   125   122    1
   126   122   121    1
   127   122   123    1
   128   123   124    2
