@<TRIPOS>MOLECULE
tmp/4qf9C00.pdb
 136 132 0 0 0
SMALL
GASTEIGER

@<TRIPOS>ATOM
      1  N         27.5560  -24.3330  -18.9770 N.3     9  GLU9       -0.1231
      2  CA        28.5230  -25.3650  -18.6210 C.3     9  GLU9        0.1699
      3  C         29.6170  -24.7470  -17.7570 C.2     9  GLU9        0.2592
      4  O         30.3810  -23.9040  -18.2260 O.2     9  GLU9       -0.2718
      5  CB        29.1410  -25.9830  -19.8800 C.3     9  GLU9        0.0402
      6  CG        30.0310  -27.1930  -19.6160 C.3     9  GLU9        0.1161
      7  CD        29.2580  -28.4960  -19.6100 C.2     9  GLU9        0.3649
      8  OE1       28.4460  -28.7140  -20.5350 O.co2   9  GLU9       -0.2457
      9  OE2       29.4630  -29.3040  -18.6820 O.co2   9  GLU9       -0.2457
     10  N         29.6830  -25.1640  -16.4960 N.am   10  GLU10      -0.1966
     11  CA        30.6810  -24.6470  -15.5610 C.3    10  GLU10       0.1718
     12  C         32.0930  -25.0390  -15.9880 C.2    10  GLU10       0.2458
     13  O         32.3360  -26.1910  -16.3440 O.2    10  GLU10      -0.2730
     14  CB        30.4050  -25.1720  -14.1480 C.3    10  GLU10       0.0428
     15  CG        31.4180  -24.7320  -13.0990 C.3    10  GLU10       0.1163
     16  CD        31.3930  -25.6000  -11.8570 C.2    10  GLU10       0.3649
     17  OE1       30.7200  -26.6540  -11.8770 O.co2  10  GLU10      -0.2457
     18  OE2       32.0530  -25.2300  -10.8630 O.co2  10  GLU10      -0.2457
     19  N         33.0330  -24.0800  -15.9570 N.am   11  PRO11      -0.2716
     20  CA        32.8200  -22.6650  -15.6470 C.3    11  PRO11       0.1536
     21  C         32.8950  -21.8030  -16.9030 C.2    11  PRO11       0.2598
     22  O         33.2590  -20.6300  -16.8230 O.2    11  PRO11      -0.2715
     23  CB        34.0120  -22.3480  -14.7480 C.3    11  PRO11       0.0310
     24  CG        35.1180  -23.1680  -15.3460 C.3    11  PRO11       0.0237
     25  CD        34.4670  -24.4190  -15.9250 C.3    11  PRO11       0.0939
     26  N         32.5680  -22.3860  -18.0510 N.am   12  TYR12      -0.1974
     27  CA        32.6020  -21.6590  -19.3140 C.3    12  TYR12       0.1639
     28  C         31.4760  -20.6330  -19.3820 C.2    12  TYR12       0.2290
     29  O         31.7040  -19.4590  -19.6760 O.2    12  TYR12      -0.2864
     30  CB        32.5010  -22.6300  -20.4900 C.3    12  TYR12       0.0560
     31  CG        33.5610  -23.7060  -20.4750 C.ar   12  TYR12      -0.0198
     32  CD1       34.8090  -23.4840  -21.0420 C.ar   12  TYR12      -0.0009
     33  CD2       33.3160  -24.9420  -19.8910 C.ar   12  TYR12      -0.0009
     34  CE1       35.7810  -24.4630  -21.0300 C.ar   12  TYR12       0.0417
     35  CE2       34.2840  -25.9280  -19.8740 C.ar   12  TYR12       0.0417
     36  CZ        35.5150  -25.6820  -20.4440 C.ar   12  TYR12       0.1957
     37  OH        36.4820  -26.6600  -20.4290 O.3    12  TYR12      -0.2866
     38  N         24.6210  -29.2810  -27.7060 N.3    57  TYR57      -0.1241
     39  CA        25.8130  -28.8080  -28.3960 C.3    57  TYR57       0.1605
     40  C         25.6190  -28.9100  -29.9000 C.2    57  TYR57       0.2264
     41  O         25.8930  -27.9640  -30.6400 O.2    57  TYR57      -0.2867
     42  CB        27.0430  -29.6130  -27.9700 C.3    57  TYR57       0.0534
     43  CG        27.5900  -29.2200  -26.6180 C.ar   57  TYR57      -0.0201
     44  CD1       28.4710  -28.1560  -26.4900 C.ar   57  TYR57      -0.0009
     45  CD2       27.2260  -29.9100  -25.4700 C.ar   57  TYR57      -0.0009
     46  CE1       28.9740  -27.7880  -25.2600 C.ar   57  TYR57       0.0417
     47  CE2       27.7250  -29.5480  -24.2320 C.ar   57  TYR57       0.0417
     48  CZ        28.5980  -28.4870  -24.1340 C.ar   57  TYR57       0.1957
     49  OH        29.1000  -28.1200  -22.9060 O.3    57  TYR57      -0.2866
     50  N         32.1380  -24.3880  -24.9150 N.3    84  PRO84      -0.2116
     51  CA        33.0160  -25.5610  -24.9920 C.3    84  PRO84       0.1372
     52  C         32.5870  -26.5150  -26.1050 C.2    84  PRO84       0.2244
     53  O         32.2110  -27.6500  -25.8230 O.2    84  PRO84      -0.2868
     54  CB        32.8280  -26.2260  -23.6240 C.3    84  PRO84       0.0268
     55  CG        31.5150  -25.7300  -23.1310 C.3    84  PRO84       0.0207
     56  CD        31.4260  -24.3230  -23.6270 C.3    84  PRO84       0.0892
     57  N         33.2300  -28.9890  -28.9820 N.3    86  THR86      -0.1218
     58  CA        34.2860  -29.8920  -29.4290 C.3    86  THR86       0.1862
     59  C         34.4410  -29.8950  -30.9480 C.2    86  THR86       0.2287
     60  O         33.4650  -30.0490  -31.6820 O.2    86  THR86      -0.2866
     61  CB        34.0260  -31.3320  -28.9480 C.3    86  THR86       0.1770
     62  OG1       33.8470  -31.3380  -27.5260 O.3    86  THR86      -0.2211
     63  CG2       35.1920  -32.2370  -29.3130 C.3    86  THR86       0.0375
     64  N         31.1620  -32.3250  -37.4860 N.3    91  ARG91      -0.1245
     65  CA        30.7720  -30.9340  -37.2880 C.3    91  ARG91       0.1563
     66  C         31.5010  -30.0130  -38.2580 C.2    91  ARG91       0.2260
     67  O         30.9530  -29.0030  -38.6980 O.2    91  ARG91      -0.2867
     68  CB        31.0260  -30.5020  -35.8410 C.3    91  ARG91       0.0307
     69  CG        30.0410  -31.0900  -34.8410 C.3    91  ARG91       0.0489
     70  CD        30.4100  -30.7410  -33.4050 C.3    91  ARG91       0.2205
     71  NE        29.4330  -31.2650  -32.4550 N.pl3  91  ARG91      -0.0865
     72  CZ        29.6030  -31.2850  -31.1370 C.cat  91  ARG91       0.5346
     73  NH1       30.7210  -30.8120  -30.6010 N.pl3  91  ARG91       0.1354
     74  NH2       28.6550  -31.7820  -30.3530 N.pl3  91  ARG91       0.1354
     75  N         42.0900  -30.0970  -24.2760 N.3   104  LEU104     -0.1245
     76  CA        41.8730  -30.9620  -23.1230 C.3   104  LEU104      0.1561
     77  C         41.7830  -32.4310  -23.5110 C.2   104  LEU104      0.2260
     78  O         41.9650  -32.7910  -24.6730 O.2   104  LEU104     -0.2867
     79  CB        40.6260  -30.5360  -22.3390 C.3   104  LEU104      0.0270
     80  CG        39.3010  -30.2900  -23.0690 C.3   104  LEU104      0.0019
     81  CD1       38.6240  -31.5750  -23.5220 C.3   104  LEU104      0.0001
     82  CD2       38.3730  -29.5100  -22.1700 C.3   104  LEU104      0.0001
     83  N         32.2690  -39.6140  -19.6220 N.3   137  SER137     -0.1217
     84  CA        32.8640  -39.4840  -20.9470 C.3   137  SER137      0.1889
     85  C         34.2100  -40.2000  -21.0120 C.2   137  SER137      0.2288
     86  O         34.5800  -40.7550  -22.0470 O.2   137  SER137     -0.2866
     87  CB        33.0220  -38.0100  -21.3260 C.3   137  SER137      0.2089
     88  OG        33.8360  -37.3290  -20.3880 O.3   137  SER137     -0.2183
     89  N         38.7860  -36.2060  -16.8960 N.3   183  GLU183     -0.1245
     90  CA        39.0220  -35.0670  -17.7730 C.3   183  GLU183      0.1567
     91  C         40.0470  -34.1270  -17.1590 C.2   183  GLU183      0.2260
     92  O         40.0410  -33.8920  -15.9510 O.2   183  GLU183     -0.2867
     93  CB        37.7140  -34.3200  -18.0340 C.3   183  GLU183      0.0388
     94  CG        36.7040  -35.1170  -18.8360 C.3   183  GLU183      0.1160
     95  CD        35.2730  -34.7200  -18.5310 C.2   183  GLU183      0.3649
     96  OE1       35.0540  -33.9850  -17.5440 O.co2 183  GLU183     -0.2457
     97  OE2       34.3660  -35.1450  -19.2770 O.co2 183  GLU183     -0.2457
     98  N         40.3440  -30.9870  -17.2580 N.3   185  THR185     -0.1203
     99  CA        39.7570  -29.7990  -16.6460 C.3   185  THR185      0.1994
    100  C         39.3990  -30.0560  -15.1900 C.2   185  THR185      0.2618
    101  O         39.6520  -29.2210  -14.3220 O.2   185  THR185     -0.2717
    102  CB        38.4910  -29.3380  -17.3860 C.3   185  THR185      0.1784
    103  OG1       37.5820  -30.4380  -17.5160 O.3   185  THR185     -0.2211
    104  CG2       38.8460  -28.8140  -18.7610 C.3   185  THR185      0.0376
    105  N         38.8060  -31.2160  -14.9310 N.am  186  SER186     -0.1951
    106  CA        38.4200  -31.5920  -13.5770 C.3   186  SER186      0.1924
    107  C         39.6480  -31.8530  -12.7090 C.2   186  SER186      0.2314
    108  O         39.5940  -31.7080  -11.4900 O.2   186  SER186     -0.2863
    109  CB        37.5140  -32.8250  -13.5990 C.3   186  SER186      0.2116
    110  OG        36.3320  -32.5730  -14.3380 O.3   186  SER186     -0.2180
    111  N         38.4440  -27.2920  -28.0930 N.3   209  TYR209     -0.1241
    112  CA        37.2520  -26.4580  -28.1660 C.3   209  TYR209      0.1605
    113  C         37.5310  -25.2650  -29.0620 C.2   209  TYR209      0.2264
    114  O         38.4470  -24.4890  -28.7990 O.2   209  TYR209     -0.2867
    115  CB        36.8500  -25.9580  -26.7790 C.3   209  TYR209      0.0534
    116  CG        36.3390  -27.0300  -25.8510 C.ar  209  TYR209     -0.0201
    117  CD1       35.8340  -28.2260  -26.3450 C.ar  209  TYR209     -0.0009
    118  CD2       36.3570  -26.8440  -24.4770 C.ar  209  TYR209     -0.0009
    119  CE1       35.3640  -29.2070  -25.4930 C.ar  209  TYR209      0.0417
    120  CE2       35.8880  -27.8140  -23.6200 C.ar  209  TYR209      0.0417
    121  CZ        35.3950  -28.9960  -24.1310 C.ar  209  TYR209      0.1957
    122  OH        34.9300  -29.9680  -23.2760 O.3   209  TYR209     -0.2866
    123  N         39.4520  -21.6000  -13.1040 N.3   244  TRP244     -0.1241
    124  CA        39.7120  -22.9020  -12.4970 C.3   244  TRP244      0.1605
    125  C         40.5440  -22.7490  -11.2270 C.2   244  TRP244      0.2264
    126  O         40.8700  -23.7350  -10.5670 O.2   244  TRP244     -0.2867
    127  CB        40.4230  -23.8340  -13.4800 C.3   244  TRP244      0.0550
    128  CG        39.4960  -24.6220  -14.3560 C.ar  244  TRP244      0.0003
    129  CD1       38.9420  -25.8380  -14.0770 C.ar  244  TRP244      0.0946
    130  CD2       39.0230  -24.2540  -15.6580 C.ar  244  TRP244      0.0152
    131  NE1       38.1510  -26.2480  -15.1230 N.ar  244  TRP244     -0.2442
    132  CE2       38.1830  -25.2940  -16.1050 C.ar  244  TRP244      0.0810
    133  CE3       39.2260  -23.1480  -16.4880 C.ar  244  TRP244      0.0012
    134  CZ2       37.5500  -25.2590  -17.3460 C.ar  244  TRP244      0.0191
    135  CZ3       38.5960  -23.1150  -17.7180 C.ar  244  TRP244      0.0001
    136  CH2       37.7670  -24.1630  -18.1350 C.ar  244  TRP244      0.0015
@<TRIPOS>BOND
     1    67    66    2
     2    66    65    1
     3    64    65    1
     4    65    68    1
     5    68    69    1
     6    69    70    1
     7    70    71    1
     8    71    72    2
     9    60    59    2
    10    72    73    1
    11    72    74    1
    12    59    58    1
    13    41    40    2
    14    40    39    1
    15    58    57    1
    16    58    61    1
    17    63    61    1
    18   113   114    2
    19   113   112    1
    20    61    62    1
    21    39    42    1
    22    39    38    1
    23   112   111    1
    24   112   115    1
    25    42    43    1
    26   115   116    1
    27    43    44   ar
    28    43    45   ar
    29    44    46   ar
    30   117   116   ar
    31   117   119   ar
    32    52    53    2
    33    52    51    1
    34   116   118   ar
    35   119   121   ar
    36    45    47   ar
    37    46    48   ar
    38    51    50    1
    39    51    54    1
    40    50    56    1
    41    78    77    2
    42   118   120   ar
    43    75    76    1
    44    47    48   ar
    45    48    49    1
    46   121   120   ar
    47   121   122    1
    48    56    55    1
    49    54    55    1
    50    81    80    1
    51    77    76    1
    52    76    79    1
    53    80    79    1
    54    80    82    1
    55    86    85    2
    56    87    84    1
    57    87    88    1
    58    32    34   ar
    59    32    31   ar
    60    34    36   ar
    61    85    84    1
    62    84    83    1
    63     8     7   ar
    64    30    31    1
    65    30    27    1
    66    31    33   ar
    67    36    37    1
    68    36    35   ar
    69    33    35   ar
    70     5     6    1
    71     5     2    1
    72    29    28    2
    73     6     7    1
    74     7     9   ar
    75    28    27    1
    76    27    26    1
    77    97    95   ar
    78     1     2    1
    79    94    95    1
    80    94    93    1
    81   104   102    1
    82     2     3    1
    83    95    96   ar
    84     4     3    2
    85   136   135   ar
    86   136   134   ar
    87    26    21   am
    88    93    90    1
    89    90    91    1
    90    90    89    1
    91     3    10   am
    92   135   133   ar
    93   103   102    1
    94   102    99    1
    95   134   132   ar
    96    98    99    1
    97    91    92    2
    98    21    22    2
    99    21    20    1
   100    99   100    1
   101    10    11    1
   102   133   130   ar
   103    13    12    2
   104   132   130   ar
   105   132   131   ar
   106    12    19   am
   107    12    11    1
   108    19    25    1
   109    19    20    1
   110    25    24    1
   111   130   128   ar
   112    20    23    1
   113    11    14    1
   114    24    23    1
   115   100   105   am
   116   100   101    2
   117   131   129   ar
   118   105   106    1
   119   128   129   ar
   120   128   127    1
   121   110   109    1
   122    14    15    1
   123   109   106    1
   124   106   107    1
   125   127   124    1
   126   123   124    1
   127    15    16    1
   128   107   108    2
   129   124   125    1
   130    17    16   ar
   131    16    18   ar
   132   125   126    2
