@<TRIPOS>MOLECULE
tmp/4qfcA01.pdb
 146 141 0 0 0
SMALL
GASTEIGER

@<TRIPOS>ATOM
      1  N         -2.6970   13.8670  -50.1460 N.3    49  ALA49      -0.1231
      2  CA        -2.2030   14.4570  -48.8930 C.3    49  ALA49       0.1694
      3  C         -0.7250   14.1670  -48.7830 C.2    49  ALA49       0.2593
      4  O          0.0530   15.0130  -48.3660 O.2    49  ALA49      -0.2718
      5  CB        -2.9420   13.9170  -47.6890 C.3    49  ALA49       0.0304
      6  N         -0.3400   12.9700  -49.1830 N.am   50  GLY50      -0.1942
      7  CA         1.0700   12.5700  -49.2000 C.3    50  GLY50       0.2014
      8  C          1.5690   11.8530  -47.9580 C.2    50  GLY50       0.2638
      9  O          2.7460   11.8820  -47.6670 O.2    50  GLY50      -0.2714
     10  N          0.6820   11.1920  -47.2300 N.am   51  LEU51      -0.1977
     11  CA         1.1160   10.4400  -46.0450 C.3    51  LEU51       0.1596
     12  C          1.8630    9.1750  -46.5020 C.2    51  LEU51       0.2287
     13  O          1.3990    8.4260  -47.3800 O.2    51  LEU51      -0.2864
     14  CB        -0.0730   10.0500  -45.2050 C.3    51  LEU51       0.0297
     15  CG         0.2110    9.1070  -44.0460 C.3    51  LEU51       0.0022
     16  CD1        1.0210    9.7870  -42.9610 C.3    51  LEU51       0.0001
     17  CD2       -1.0770    8.6250  -43.4330 C.3    51  LEU51       0.0001
     18  N          2.3120    5.7390  -46.2550 N.3    53  GLN53      -0.1231
     19  CA         1.8180    4.4740  -45.7270 C.3    53  GLN53       0.1683
     20  C          1.3020    3.6250  -46.8760 C.2    53  GLN53       0.2434
     21  O          0.2940    3.9720  -47.4920 O.2    53  GLN53      -0.2733
     22  CB         0.6620    4.6610  -44.7330 C.3    53  GLN53       0.0380
     23  CG         0.4030    3.4540  -43.8450 C.3    53  GLN53       0.0905
     24  CD        -0.6320    3.7390  -42.7830 C.2    53  GLN53       0.2608
     25  OE1       -1.6900    3.1220  -42.7350 O.2    53  GLN53      -0.2717
     26  NE2       -0.3430    4.6990  -41.9430 N.am   53  GLN53      -0.0878
     27  N          1.9660    2.5000  -47.1420 N.am   54  PRO54      -0.2718
     28  CA         1.4430    1.5670  -48.1070 C.3    54  PRO54       0.1535
     29  C          0.0550    1.0860  -47.6690 C.2    54  PRO54       0.2599
     30  O         -0.3280    1.2090  -46.4670 O.2    54  PRO54      -0.2715
     31  CB         2.4470    0.3880  -48.0520 C.3    54  PRO54       0.0310
     32  CG         3.6410    0.8970  -47.3600 C.3    54  PRO54       0.0237
     33  CD         3.1400    1.9600  -46.4350 C.3    54  PRO54       0.0939
     34  N         -0.6730    0.5270  -48.6220 N.am   55  TYR55      -0.1960
     35  CA        -1.9920   -0.1000  -48.3520 C.3    55  TYR55       0.1771
     36  C         -1.8720   -1.2700  -47.3920 C.2    55  TYR55       0.2619
     37  O         -0.7720   -1.7740  -47.1610 O.2    55  TYR55      -0.2715
     38  CB        -2.6820   -0.4980  -49.6880 C.3    55  TYR55       0.0574
     39  CG        -3.5260    0.6510  -50.2460 C.ar   55  TYR55      -0.0198
     40  CD1       -3.0070    1.9450  -50.3580 C.ar   55  TYR55      -0.0009
     41  CD2       -4.8570    0.4560  -50.6050 C.ar   55  TYR55      -0.0009
     42  CE1       -3.7820    2.9970  -50.8220 C.ar   55  TYR55       0.0417
     43  CE2       -5.6390    1.4990  -51.0860 C.ar   55  TYR55       0.0417
     44  CZ        -5.0990    2.7700  -51.1940 C.ar   55  TYR55       0.1957
     45  OH        -5.8910    3.8020  -51.6640 O.3    55  TYR55      -0.2866
     46  N         -2.9780   -1.6480  -46.7710 N.am   56  LEU56      -0.1977
     47  CA        -2.9820   -2.7410  -45.8050 C.3    56  LEU56       0.1596
     48  C         -2.7130   -4.0820  -46.4300 C.2    56  LEU56       0.2287
     49  O         -2.1680   -4.9650  -45.7840 O.2    56  LEU56      -0.2864
     50  CB        -4.3510   -2.8970  -45.1500 C.3    56  LEU56       0.0297
     51  CG        -4.8830   -1.9340  -44.0990 C.3    56  LEU56       0.0022
     52  CD1       -6.1440   -2.5730  -43.5310 C.3    56  LEU56       0.0001
     53  CD2       -3.8700   -1.6230  -43.0020 C.3    56  LEU56       0.0001
     54  N         -6.4680    7.3460  -39.5850 N.3   215  LEU215     -0.1231
     55  CA        -6.9160    6.5230  -40.6760 C.3   215  LEU215      0.1693
     56  C         -7.8280    5.4260  -40.1170 C.2   215  LEU215      0.2593
     57  O         -7.4480    4.7940  -39.1250 O.2   215  LEU215     -0.2718
     58  CB        -5.7030    5.8940  -41.3540 C.3   215  LEU215      0.0284
     59  CG        -5.0350    6.6060  -42.5450 C.3   215  LEU215      0.0019
     60  CD1       -4.7180    8.0710  -42.3260 C.3   215  LEU215      0.0001
     61  CD2       -3.7590    5.8770  -42.9290 C.3   215  LEU215      0.0001
     62  N         -9.0070    5.2040  -40.7370 N.am  216  THR216     -0.1939
     63  CA        -9.9190    4.1010  -40.3520 C.3   216  THR216      0.2028
     64  C         -9.9620    3.0060  -41.4380 C.2   216  THR216      0.2642
     65  O         -9.6090    3.2220  -42.5900 O.2   216  THR216     -0.2714
     66  CB       -11.3240    4.6190  -40.0600 C.3   216  THR216      0.1808
     67  OG1      -11.8830    5.2100  -41.2370 O.3   216  THR216     -0.2208
     68  CG2      -11.2860    5.7000  -38.9580 C.3   216  THR216      0.0379
     69  N        -10.3570    1.8040  -41.0650 N.am  217  HIS217     -0.1973
     70  CA       -10.4530    0.7130  -42.0400 C.3   217  HIS217      0.1656
     71  C        -11.6630   -0.1050  -41.7620 C.2   217  HIS217      0.2291
     72  O        -11.8640   -0.4830  -40.6200 O.2   217  HIS217     -0.2864
     73  CB        -9.2210   -0.1840  -41.9640 C.3   217  HIS217      0.0771
     74  CG        -7.9420    0.5790  -41.9080 C.ar  217  HIS217      0.0820
     75  ND1       -7.3280    1.0910  -43.0310 N.ar  217  HIS217     -0.2267
     76  CD2       -7.1920    0.9740  -40.8570 C.ar  217  HIS217      0.1154
     77  CE1       -6.2360    1.7390  -42.6770 C.ar  217  HIS217      0.1986
     78  NE2       -6.1420    1.6960  -41.3650 N.ar  217  HIS217     -0.2212
     79  N        -12.5040    0.4200  -49.1320 N.3   220  TYR220     -0.1241
     80  CA       -11.7530    1.6760  -48.8350 C.3   220  TYR220      0.1605
     81  C        -12.6420    2.8890  -48.6910 C.2   220  TYR220      0.2264
     82  O        -12.2910    3.9870  -49.1210 O.2   220  TYR220     -0.2867
     83  CB       -10.7000    2.0090  -49.9090 C.3   220  TYR220      0.0534
     84  CG        -9.7570    0.8940  -50.1980 C.ar  220  TYR220     -0.0201
     85  CD1       -8.9760    0.3660  -49.1840 C.ar  220  TYR220     -0.0009
     86  CD2       -9.6590    0.3390  -51.4790 C.ar  220  TYR220     -0.0009
     87  CE1       -8.1070   -0.6850  -49.4220 C.ar  220  TYR220      0.0417
     88  CE2       -8.7890   -0.7140  -51.7350 C.ar  220  TYR220      0.0417
     89  CZ        -8.0100   -1.2290  -50.6990 C.ar  220  TYR220      0.1957
     90  OH        -7.1340   -2.2790  -50.9170 O.3   220  TYR220     -0.2866
     91  N        -14.0020    4.7540  -45.7770 N.3   222  SER222     -0.1217
     92  CA       -13.8880    4.8550  -44.3460 C.3   222  SER222      0.1889
     93  C        -13.0890    6.1140  -44.1210 C.2   222  SER222      0.2288
     94  O        -12.0930    6.3230  -44.8040 O.2   222  SER222     -0.2866
     95  CB       -13.1190    3.6770  -43.7980 C.3   222  SER222      0.2089
     96  OG       -13.2480    3.6490  -42.4000 O.3   222  SER222     -0.2183
     97  N        -10.7820    9.3480  -43.1460 N.3   224  TYR224     -0.1241
     98  CA        -9.4540    9.6560  -42.7040 C.3   224  TYR224      0.1605
     99  C         -9.2850   11.1510  -42.5910 C.2   224  TYR224      0.2264
    100  O        -10.0050   11.9340  -43.2290 O.2   224  TYR224     -0.2867
    101  CB        -8.3990    9.0290  -43.6210 C.3   224  TYR224      0.0534
    102  CG        -8.4090    9.3860  -45.1210 C.ar  224  TYR224     -0.0201
    103  CD1       -8.0950   10.6630  -45.5630 C.ar  224  TYR224     -0.0009
    104  CD2       -8.6100    8.3970  -46.0880 C.ar  224  TYR224     -0.0009
    105  CE1       -8.0200   10.9610  -46.9140 C.ar  224  TYR224      0.0417
    106  CE2       -8.5270    8.6810  -47.4520 C.ar  224  TYR224      0.0417
    107  CZ        -8.2510    9.9760  -47.8650 C.ar  224  TYR224      0.1957
    108  OH        -8.1540   10.2660  -49.2190 O.3   224  TYR224     -0.2866
    109  N         -6.0510   13.8660  -42.1950 N.3   226  ILE226     -0.1245
    110  CA        -4.6160   13.9380  -42.4030 C.3   226  ILE226      0.1561
    111  C         -4.1950   15.4000  -42.4860 C.2   226  ILE226      0.2260
    112  O         -4.3450   15.9970  -43.5440 O.2   226  ILE226     -0.2867
    113  CB        -4.1890   13.2580  -43.7420 C.3   226  ILE226      0.0252
    114  CG1       -4.6260   11.7870  -43.7880 C.3   226  ILE226      0.0019
    115  CG2       -2.6790   13.3460  -43.9140 C.3   226  ILE226      0.0019
    116  CD1       -4.4390   11.1090  -45.1350 C.3   226  ILE226      0.0001
    117  N        -11.9370    9.6470  -47.5630 N.3   236  GLY236     -0.1225
    118  CA       -12.3710    8.2920  -47.3540 C.3   236  GLY236      0.1811
    119  C        -13.3180    7.8270  -48.4240 C.2   236  GLY236      0.2280
    120  O        -14.3040    7.1860  -48.1290 O.2   236  GLY236     -0.2866
    121  N        -13.5050    5.8890  -52.2900 N.3   238  PHE238     -0.1241
    122  CA       -12.8020    5.1000  -53.3030 C.3   238  PHE238      0.1605
    123  C        -13.7600    4.2880  -54.1970 C.2   238  PHE238      0.2264
    124  O        -14.2270    3.2520  -53.7970 O.2   238  PHE238     -0.2867
    125  CB       -11.8080    4.2000  -52.5980 C.3   238  PHE238      0.0534
    126  CG       -10.8060    3.5320  -53.5060 C.ar  238  PHE238     -0.0203
    127  CD1      -11.1980    2.5500  -54.4170 C.ar  238  PHE238     -0.0042
    128  CD2       -9.4500    3.7970  -53.3640 C.ar  238  PHE238     -0.0042
    129  CE1      -10.2560    1.8920  -55.2100 C.ar  238  PHE238     -0.0003
    130  CE2       -8.5090    3.1260  -54.1400 C.ar  238  PHE238     -0.0003
    131  CZ        -8.9160    2.1830  -55.0760 C.ar  238  PHE238     -0.0000
    132  N         -7.3030    7.8990  -58.7910 N.3   279  ARG279     -0.1245
    133  CA        -6.1550    7.1180  -58.5020 C.3   279  ARG279      0.1563
    134  C         -5.9020    6.2320  -59.7110 C.2   279  ARG279      0.2260
    135  O         -6.8290    5.6630  -60.2710 O.2   279  ARG279     -0.2867
    136  CB        -6.3700    6.2640  -57.2790 C.3   279  ARG279      0.0307
    137  CG        -6.5960    7.0640  -56.0310 C.3   279  ARG279      0.0489
    138  CD        -7.0790    6.1380  -54.9440 C.3   279  ARG279      0.2205
    139  NE        -7.5210    6.8190  -53.7340 N.pl3 279  ARG279     -0.0865
    140  CZ        -8.7820    7.1630  -53.4460 C.cat 279  ARG279      0.5346
    141  NH1       -9.7800    7.0170  -54.3300 N.pl3 279  ARG279      0.1354
    142  NH2       -9.0360    7.7080  -52.2610 N.pl3 279  ARG279      0.1354
    143  N         -3.1320    4.1980  -55.2300 N.3   306  GLY306     -0.1225
    144  CA        -3.2760    5.0980  -54.0940 C.3   306  GLY306      0.1811
    145  C         -2.0070    5.2690  -53.3140 C.2   306  GLY306      0.2280
    146  O         -2.0760    5.6490  -52.1780 O.2   306  GLY306     -0.2866
@<TRIPOS>BOND
     1   135   134    2
     2   134   133    1
     3   132   133    1
     4   133   136    1
     5   136   137    1
     6   137   138    1
     7   143   144    1
     8   129   131   ar
     9   129   127   ar
    10   131   130   ar
    11   138   139    1
    12   127   126   ar
    13   141   140    1
    14   123   124    2
    15   123   122    1
    16   130   128   ar
    17   144   145    1
    18   139   140    2
    19   126   128   ar
    20   126   125    1
    21   140   142    1
    22   145   146    2
    23   122   125    1
    24   122   121    1
    25    88    86   ar
    26    88    89   ar
    27    45    44    1
    28    86    84   ar
    29    44    43   ar
    30    44    42   ar
    31    43    41   ar
    32    90    89    1
    33    42    40   ar
    34    89    87   ar
    35    41    39   ar
    36    40    39   ar
    37    39    38    1
    38    84    83    1
    39    84    85   ar
    40     1     2    1
    41    83    80    1
    42    38    35    1
    43    87    85   ar
    44   108   107    1
    45     7     6    1
    46     7     8    1
    47     6     3   am
    48    79    80    1
    49    82    81    2
    50     2     3    1
    51     2     5    1
    52    80    81    1
    53     3     4    2
    54    34    35    1
    55    34    29   am
    56   119   120    2
    57   119   118    1
    58    35    36    1
    59    28    31    1
    60    28    29    1
    61    28    27    1
    62    31    32    1
    63     8     9    2
    64     8    10   am
    65   107   106   ar
    66   107   105   ar
    67    29    30    2
    68   117   118    1
    69    21    20    2
    70   106   104   ar
    71    36    37    2
    72    36    46   am
    73    13    12    2
    74    32    33    1
    75    10    11    1
    76    27    20   am
    77    27    33    1
    78   105   103   ar
    79    20    19    1
    80    46    47    1
    81    12    11    1
    82    48    47    1
    83    48    49    2
    84    18    19    1
    85   104   102   ar
    86    11    14    1
    87    47    50    1
    88    91    92    1
    89    19    22    1
    90   103   102   ar
    91    14    15    1
    92    50    51    1
    93   116   114    1
    94   102   101    1
    95    94    93    2
    96    22    23    1
    97    92    93    1
    98    92    95    1
    99    51    52    1
   100    51    53    1
   101    15    17    1
   102    15    16    1
   103   115   113    1
   104    23    24    1
   105    95    96    1
   106   114   113    1
   107   113   110    1
   108   101    98    1
   109   112   111    2
   110   100    99    2
   111    97    98    1
   112    75    77   ar
   113    75    74   ar
   114    61    59    1
   115    24    25    2
   116    24    26   am
   117    98    99    1
   118    77    78   ar
   119    65    64    2
   120    59    60    1
   121    59    58    1
   122   111   110    1
   123   110   109    1
   124    70    73    1
   125    70    71    1
   126    70    69    1
   127    73    74    1
   128    74    76   ar
   129    71    72    2
   130    64    69   am
   131    64    63    1
   132    78    76   ar
   133    58    55    1
   134    67    66    1
   135    62    63    1
   136    62    56   am
   137    55    56    1
   138    55    54    1
   139    63    66    1
   140    56    57    2
   141    66    68    1
