@<TRIPOS>MOLECULE
tmp/4qfdA01.pdb
 153 147 0 0 0
SMALL
GASTEIGER

@<TRIPOS>ATOM
      1  N          3.3270   -8.5770   18.3380 N.3    44  ALA44      -0.1231
      2  CA         3.1590   -7.8460   19.5990 C.3    44  ALA44       0.1694
      3  C          2.6440   -8.7750   20.6980 C.2    44  ALA44       0.2593
      4  O          3.1590   -8.7840   21.8140 O.2    44  ALA44      -0.2718
      5  CB         2.1890   -6.7000   19.4020 C.3    44  ALA44       0.0304
      6  N          1.6220   -9.5530   20.3630 N.am   45  GLY45      -0.1942
      7  CA         1.1120  -10.5980   21.2520 C.3    45  GLY45       0.2014
      8  C         -0.2040  -10.2730   21.9150 C.2    45  GLY45       0.2638
      9  O         -0.5370  -10.8540   22.9400 O.2    45  GLY45      -0.2714
     10  N         -0.9530   -9.3420   21.3280 N.am   46  LEU46      -0.1977
     11  CA        -2.2650   -8.9650   21.8440 C.3    46  LEU46       0.1596
     12  C         -3.2640  -10.0820   21.6070 C.2    46  LEU46       0.2287
     13  O         -3.3270  -10.6220   20.5080 O.2    46  LEU46      -0.2864
     14  CB        -2.7520   -7.7060   21.1430 C.3    46  LEU46       0.0297
     15  CG        -4.1140   -7.1430   21.5430 C.3    46  LEU46       0.0022
     16  CD1       -4.0820   -6.6280   22.9700 C.3    46  LEU46       0.0001
     17  CD2       -4.5140   -6.0360   20.5740 C.3    46  LEU46       0.0001
     18  N         -6.6880  -10.7860   20.6320 N.3    48  GLN48      -0.1231
     19  CA        -7.8250  -10.1630   19.9780 C.3    48  GLN48       0.1683
     20  C         -7.9630  -10.7550   18.5910 C.2    48  GLN48       0.2434
     21  O         -7.0840  -10.5750   17.7590 O.2    48  GLN48      -0.2733
     22  CB        -7.6470   -8.6480   19.8670 C.3    48  GLN48       0.0380
     23  CG        -8.7480   -7.9600   19.0770 C.3    48  GLN48       0.0905
     24  CD        -8.8950   -6.5110   19.4520 C.2    48  GLN48       0.2608
     25  OE1       -8.7650   -6.1520   20.6190 O.2    48  GLN48      -0.2717
     26  NE2       -9.1500   -5.6630   18.4650 N.am   48  GLN48      -0.0878
     27  N         -9.0630  -11.4720   18.3300 N.am   49  PRO49      -0.2718
     28  CA        -9.1960  -12.0000   16.9700 C.3    49  PRO49       0.1535
     29  C         -9.4980  -10.9150   15.9560 C.2    49  PRO49       0.2599
     30  O         -9.7610   -9.7780   16.3400 O.2    49  PRO49      -0.2715
     31  CB       -10.3680  -12.9830   17.0760 C.3    49  PRO49       0.0310
     32  CG       -11.1100  -12.5720   18.2920 C.3    49  PRO49       0.0237
     33  CD       -10.1040  -11.9970   19.2340 C.3    49  PRO49       0.0939
     34  N         -9.4350  -11.2750   14.6740 N.am   50  TYR50      -0.1960
     35  CA        -9.8070  -10.3750   13.5870 C.3    50  TYR50       0.1771
     36  C        -11.3350  -10.3620   13.4700 C.2    50  TYR50       0.2619
     37  O        -12.0210  -11.0940   14.1810 O.2    50  TYR50      -0.2715
     38  CB        -9.1250  -10.7940   12.2760 C.3    50  TYR50       0.0574
     39  CG        -7.6990  -10.2490   12.1130 C.ar   50  TYR50      -0.0198
     40  CD1       -7.3360   -9.4790   11.0060 C.ar   50  TYR50      -0.0009
     41  CD2       -6.7250  -10.4870   13.0720 C.ar   50  TYR50      -0.0009
     42  CE1       -6.0420   -8.9770   10.8540 C.ar   50  TYR50       0.0417
     43  CE2       -5.4320   -9.9840   12.9300 C.ar   50  TYR50       0.0417
     44  CZ        -5.0920   -9.2290   11.8240 C.ar   50  TYR50       0.1957
     45  OH        -3.7990   -8.7490   11.6900 O.3    50  TYR50      -0.2866
     46  N        -11.8650   -9.5020   12.6030 N.am   51  LEU51      -0.1977
     47  CA       -13.3230   -9.3320   12.4480 C.3    51  LEU51       0.1596
     48  C        -13.8770  -10.1350   11.2640 C.2    51  LEU51       0.2287
     49  O        -14.0150  -11.3480   11.3370 O.2    51  LEU51      -0.2864
     50  CB       -13.6720   -7.8430   12.2640 C.3    51  LEU51       0.0297
     51  CG       -12.9340   -6.8170   13.1340 C.3    51  LEU51       0.0022
     52  CD1      -13.4900   -5.4140   12.9110 C.3    51  LEU51       0.0001
     53  CD2      -13.0000   -7.1930   14.6080 C.3    51  LEU51       0.0001
     54  N         -5.8510    0.0810   18.7680 N.3   205  LEU205     -0.1231
     55  CA        -5.9910   -0.4350   17.4050 C.3   205  LEU205      0.1693
     56  C         -6.9380    0.4420   16.6140 C.2   205  LEU205      0.2593
     57  O         -7.9530    0.8830   17.1480 O.2   205  LEU205     -0.2718
     58  CB        -6.5380   -1.8560   17.4230 C.3   205  LEU205      0.0284
     59  CG        -5.4800   -2.9520   17.4140 C.3   205  LEU205      0.0019
     60  CD1       -4.5660   -2.8390   18.6220 C.3   205  LEU205      0.0001
     61  CD2       -6.1570   -4.3150   17.3810 C.3   205  LEU205      0.0001
     62  N         -6.6030    0.6910   15.3490 N.am  206  THR206     -0.1939
     63  CA        -7.4580    1.4640   14.4420 C.3   206  THR206      0.2028
     64  C         -7.9140    0.5990   13.2650 C.2   206  THR206      0.2642
     65  O         -7.3530   -0.4640   13.0250 O.2   206  THR206     -0.2714
     66  CB        -6.7420    2.7130   13.8960 C.3   206  THR206      0.1808
     67  OG1       -5.5510    2.3270   13.2020 O.3   206  THR206     -0.2208
     68  CG2       -6.3750    3.6360   15.0190 C.3   206  THR206      0.0379
     69  N         -8.9270    1.0710   12.5400 N.am  207  HIS207     -0.1973
     70  CA        -9.5500    0.3150   11.4510 C.3   207  HIS207      0.1656
     71  C         -9.9360    1.2590   10.2940 C.2   207  HIS207      0.2291
     72  O        -11.0900    1.6950   10.1790 O.2   207  HIS207     -0.2864
     73  CB       -10.7930   -0.4270   11.9680 C.3   207  HIS207      0.0771
     74  CG       -10.5360   -1.2980   13.1640 C.ar  207  HIS207      0.0820
     75  ND1      -10.4350   -0.7930   14.4450 N.ar  207  HIS207     -0.2267
     76  CD2      -10.3720   -2.6380   13.2740 C.ar  207  HIS207      0.1154
     77  CE1      -10.2120   -1.7840   15.2900 C.ar  207  HIS207      0.1986
     78  NE2      -10.1670   -2.9140   14.6060 N.ar  207  HIS207     -0.2212
     79  N         -6.2610   -3.2910    6.9630 N.3   214  TYR214     -0.1241
     80  CA        -5.1680   -3.5790    7.9040 C.3   214  TYR214      0.1605
     81  C         -3.8340   -2.9100    7.5370 C.2   214  TYR214      0.2264
     82  O         -2.7680   -3.4390    7.8370 O.2   214  TYR214     -0.2867
     83  CB        -4.9610   -5.0900    8.0490 C.3   214  TYR214      0.0534
     84  CG        -6.2340   -5.8880    8.2180 C.ar  214  TYR214     -0.0201
     85  CD1       -7.2410   -5.4620    9.0910 C.ar  214  TYR214     -0.0009
     86  CD2       -6.4240   -7.0850    7.5180 C.ar  214  TYR214     -0.0009
     87  CE1       -8.4060   -6.1990    9.2440 C.ar  214  TYR214      0.0417
     88  CE2       -7.5830   -7.8310    7.6720 C.ar  214  TYR214      0.0417
     89  CZ        -8.5730   -7.3880    8.5360 C.ar  214  TYR214      0.1957
     90  OH        -9.7330   -8.1170    8.6920 O.3   214  TYR214     -0.2866
     91  N         -3.1160    0.3490    8.6850 N.3   216  SER216     -0.1217
     92  CA        -3.6970    1.3480    9.5670 C.3   216  SER216      0.1889
     93  C         -2.9680    1.2650   10.9200 C.2   216  SER216      0.2288
     94  O         -2.6430    0.1770   11.3890 O.2   216  SER216     -0.2866
     95  CB        -5.1920    1.0480    9.7230 C.3   216  SER216      0.2089
     96  OG        -5.7340    1.5700   10.9180 O.3   216  SER216     -0.2183
     97  N         -1.3560    0.9910   14.6010 N.3   218  TYR218     -0.1241
     98  CA        -1.6550    0.4450   15.9270 C.3   218  TYR218      0.1605
     99  C         -0.4810    0.5490   16.9150 C.2   218  TYR218      0.2264
    100  O          0.6910    0.5380   16.5240 O.2   218  TYR218     -0.2867
    101  CB        -2.2130   -0.9890   15.8430 C.3   218  TYR218      0.0534
    102  CG        -1.2720   -2.0830   15.3920 C.ar  218  TYR218     -0.0201
    103  CD1       -0.2210   -2.5180   16.2030 C.ar  218  TYR218     -0.0009
    104  CD2       -1.4880   -2.7590   14.1930 C.ar  218  TYR218     -0.0009
    105  CE1        0.6160   -3.5560   15.8060 C.ar  218  TYR218      0.0417
    106  CE2       -0.6590   -3.8060   13.7940 C.ar  218  TYR218      0.0417
    107  CZ         0.3940   -4.2000   14.6010 C.ar  218  TYR218      0.1957
    108  OH         1.2260   -5.2210   14.2090 O.3   218  TYR218     -0.2866
    109  N          0.7580   -1.0600   20.6670 N.3   220  ILE220     -0.1245
    110  CA         0.5150   -2.1680   21.5590 C.3   220  ILE220      0.1561
    111  C          1.6640   -2.2790   22.5300 C.2   220  ILE220      0.2260
    112  O          2.7120   -2.8200   22.1780 O.2   220  ILE220     -0.2867
    113  CB         0.3560   -3.4870   20.7810 C.3   220  ILE220      0.0252
    114  CG1       -0.8470   -3.3910   19.8310 C.3   220  ILE220      0.0019
    115  CG2        0.1750   -4.6620   21.7380 C.3   220  ILE220      0.0019
    116  CD1       -1.1120   -4.6430   19.0050 C.3   220  ILE220      0.0001
    117  N          1.0160   -1.7020   11.8620 N.3   230  GLY230     -0.1225
    118  CA        -0.0940   -1.4720   10.9460 C.3   230  GLY230      0.1811
    119  C          0.3090   -1.6090    9.4920 C.2   230  GLY230      0.2280
    120  O          0.1520   -0.6860    8.7200 O.2   230  GLY230     -0.2866
    121  N          0.0540   -4.7020    6.3200 N.3   232  PHE232     -0.1241
    122  CA        -0.5380   -6.0070    5.9390 C.3   232  PHE232      0.1605
    123  C         -0.5360   -6.1180    4.4190 C.2   232  PHE232      0.2264
    124  O         -1.4580   -5.6410    3.7530 O.2   232  PHE232     -0.2867
    125  CB        -1.9670   -6.1070    6.4850 C.3   232  PHE232      0.0534
    126  CG        -2.5480   -7.4950    6.4750 C.ar  232  PHE232     -0.0203
    127  CD1       -2.9080   -8.1110    5.2860 C.ar  232  PHE232     -0.0042
    128  CD2       -2.7950   -8.1680    7.6740 C.ar  232  PHE232     -0.0042
    129  CE1       -3.4700   -9.3780    5.2840 C.ar  232  PHE232     -0.0003
    130  CE2       -3.3590   -9.4300    7.6770 C.ar  232  PHE232     -0.0003
    131  CZ        -3.6900  -10.0410    6.4810 C.ar  232  PHE232     -0.0000
    132  N          2.3500  -12.9400    8.2420 N.3   273  ARG273     -0.1245
    133  CA         1.1600  -13.5960    8.7530 C.3   273  ARG273      0.1563
    134  C          0.7910  -14.6940    7.7750 C.2   273  ARG273      0.2260
    135  O          0.7560  -14.4370    6.5740 O.2   273  ARG273     -0.2867
    136  CB        -0.0000  -12.6080    8.8340 C.3   273  ARG273      0.0307
    137  CG         0.2310  -11.4300    9.7590 C.3   273  ARG273      0.0489
    138  CD        -0.9480  -10.4800    9.7130 C.3   273  ARG273      0.2205
    139  NE        -0.6360   -9.1820   10.3020 N.pl3 273  ARG273     -0.0865
    140  CZ         0.0870   -8.2370    9.7050 C.cat 273  ARG273      0.5346
    141  NH1        0.5890   -8.4240    8.4860 N.pl3 273  ARG273      0.1354
    142  NH2        0.3130   -7.0900   10.3310 N.pl3 273  ARG273      0.1354
    143  N         -3.2640  -13.1920   11.4050 N.3   299  GLY299     -0.1225
    144  CA        -2.7910  -12.2680   12.4310 C.3   299  GLY299      0.1811
    145  C         -3.2680  -12.5590   13.8500 C.2   299  GLY299      0.2280
    146  O         -3.1780  -11.6890   14.6940 O.2   299  GLY299     -0.2866
    147  N         -3.5490  -15.4320   19.7030 N.3   303  THR303     -0.1218
    148  CA        -4.9080  -15.3220   20.2300 C.3   303  THR303      0.1862
    149  C         -5.6100  -16.6760   20.3150 C.2   303  THR303      0.2287
    150  O         -6.3370  -16.9500   21.2690 O.2   303  THR303     -0.2866
    151  CB        -5.7420  -14.3570   19.3620 C.3   303  THR303      0.1770
    152  OG1       -5.1900  -13.0360   19.4510 O.3   303  THR303     -0.2211
    153  CG2       -7.2120  -14.3240   19.7970 C.3   303  THR303      0.0375
@<TRIPOS>BOND
     1   124   123    2
     2   123   122    1
     3   129   127   ar
     4   129   131   ar
     5   127   126   ar
     6   122   121    1
     7   122   125    1
     8   126   125    1
     9   126   128   ar
    10   131   130   ar
    11   135   134    2
    12    79    80    1
    13    86    88   ar
    14    86    84   ar
    15    81    82    2
    16    81    80    1
    17    88    89   ar
    18   128   130   ar
    19   134   133    1
    20    80    83    1
    21    83    84    1
    22    84    85   ar
    23   132   133    1
    24   141   140    1
    25    89    90    1
    26    89    87   ar
    27    91    92    1
    28   120   119    2
    29   133   136    1
    30   136   137    1
    31    85    87   ar
    32   119   118    1
    33    92    95    1
    34    92    93    1
    35   140   139    2
    36   140   142    1
    37   138   137    1
    38   138   139    1
    39    95    96    1
    40    72    71    2
    41    71    70    1
    42    42    40   ar
    43    42    44   ar
    44    93    94    2
    45   118   117    1
    46    40    39   ar
    47    48    49    2
    48    48    47    1
    49   143   144    1
    50    70    73    1
    51    70    69    1
    52    45    44    1
    53    44    43   ar
    54    73    74    1
    55    39    38    1
    56    39    41   ar
    57    50    47    1
    58    50    51    1
    59    38    35    1
    60   144   145    1
    61    47    46    1
    62    69    64   am
    63    46    36   am
    64    52    51    1
    65    43    41   ar
    66    65    64    2
    67    51    53    1
    68    74    76   ar
    69    74    75   ar
    70    67    66    1
    71    64    63    1
    72    76    78   ar
    73    36    35    1
    74    36    37    2
    75    35    34    1
    76   106   104   ar
    77   106   107   ar
    78   145   146    2
    79    66    63    1
    80    66    68    1
    81   104   102   ar
    82   108   107    1
    83    63    62    1
    84    75    77   ar
    85    97    98    1
    86   107   105   ar
    87    78    77   ar
    88    34    29   am
    89    62    56   am
    90   102   101    1
    91   102   103   ar
    92   105   103   ar
    93   101    98    1
    94    98    99    1
    95    29    30    2
    96    29    28    1
    97   100    99    2
    98    56    57    2
    99    56    55    1
   100    28    31    1
   101    28    27    1
   102    31    32    1
   103    61    59    1
   104    55    58    1
   105    55    54    1
   106    59    58    1
   107    59    60    1
   108    21    20    2
   109    32    33    1
   110    27    20   am
   111    27    33    1
   112     1     2    1
   113    26    24   am
   114    20    19    1
   115   116   114    1
   116    23    24    1
   117    23    22    1
   118   151   152    1
   119   151   153    1
   120   151   148    1
   121     5     2    1
   122    24    25    2
   123     2     3    1
   124   147   148    1
   125   114   113    1
   126    22    19    1
   127    19    18    1
   128   148   149    1
   129   149   150    2
   130     6     3   am
   131     6     7    1
   132    13    12    2
   133    17    15    1
   134   109   110    1
   135     3     4    2
   136   113   110    1
   137   113   115    1
   138    14    15    1
   139    14    11    1
   140     7     8    1
   141    10    11    1
   142    10     8   am
   143    15    16    1
   144   110   111    1
   145    12    11    1
   146     8     9    2
   147   112   111    2
