@<TRIPOS>MOLECULE
tmp/4qfdB01.pdb
 161 156 0 0 0
SMALL
GASTEIGER

@<TRIPOS>ATOM
      1  N         29.5140  -10.3500   19.6250 N.3    44  ALA44      -0.1231
      2  CA        29.6760   -9.3250   20.6650 C.3    44  ALA44       0.1694
      3  C         30.1720   -8.0270   20.0480 C.2    44  ALA44       0.2593
      4  O         29.6460   -6.9510   20.3210 O.2    44  ALA44      -0.2718
      5  CB        30.6550   -9.7930   21.7320 C.3    44  ALA44       0.0304
      6  N         31.2010   -8.1470   19.2150 N.am   45  GLY45      -0.1942
      7  CA        31.7160   -7.0240   18.4420 C.3    45  GLY45       0.2014
      8  C         33.0140   -6.4490   18.9620 C.2    45  GLY45       0.2638
      9  O         33.3370   -5.3090   18.6680 O.2    45  GLY45      -0.2714
     10  N         33.7680   -7.2470   19.7090 N.am   46  LEU46      -0.1977
     11  CA        35.0780   -6.8450   20.2000 C.3    46  LEU46       0.1596
     12  C         36.0740   -6.7880   19.0450 C.2    46  LEU46       0.2287
     13  O         36.1560   -7.7160   18.2500 O.2    46  LEU46      -0.2864
     14  CB        35.5790   -7.8480   21.2450 C.3    46  LEU46       0.0297
     15  CG        36.9390   -7.5960   21.8910 C.3    46  LEU46       0.0022
     16  CD1       36.8980   -6.3430   22.7530 C.3    46  LEU46       0.0001
     17  CD2       37.3450   -8.8030   22.7200 C.3    46  LEU46       0.0001
     18  N         39.5160   -7.5440   18.1280 N.3    48  GLN48      -0.1231
     19  CA        40.6560   -8.3330   18.5750 C.3    48  GLN48       0.1683
     20  C         40.7970   -9.5240   17.6520 C.2    48  GLN48       0.2434
     21  O         39.9220  -10.3830   17.6150 O.2    48  GLN48      -0.2733
     22  CB        40.4770   -8.8200   20.0130 C.3    48  GLN48       0.0380
     23  CG        41.5820   -9.7460   20.5030 C.3    48  GLN48       0.0905
     24  CD        41.7130   -9.7420   22.0160 C.2    48  GLN48       0.2608
     25  OE1       41.5760   -8.6950   22.6650 O.2    48  GLN48      -0.2717
     26  NE2       41.9790  -10.9100   22.5870 N.am   48  GLN48      -0.0878
     27  N         41.8860   -9.5780   16.8790 N.am   49  PRO49      -0.2718
     28  CA        42.0360  -10.7660   16.0450 C.3    49  PRO49       0.1535
     29  C         42.3390  -12.0160   16.8570 C.2    49  PRO49       0.2599
     30  O         42.5970  -11.9400   18.0590 O.2    49  PRO49      -0.2715
     31  CB        43.2190  -10.4200   15.1390 C.3    49  PRO49       0.0310
     32  CG        43.9520   -9.3490   15.8520 C.3    49  PRO49       0.0237
     33  CD        42.9380   -8.5790   16.6300 C.3    49  PRO49       0.0939
     34  N         42.2950  -13.1590   16.1880 N.am   50  TYR50      -0.1960
     35  CA        42.6560  -14.4310   16.8050 C.3    50  TYR50       0.1771
     36  C         44.1800  -14.5560   16.8500 C.2    50  TYR50       0.2619
     37  O         44.8930  -13.7090   16.3060 O.2    50  TYR50      -0.2715
     38  CB        42.0130  -15.6030   16.0410 C.3    50  TYR50       0.0574
     39  CG        40.5970  -15.9070   16.4880 C.ar   50  TYR50      -0.0198
     40  CD1       40.2470  -17.1700   16.9420 C.ar   50  TYR50      -0.0009
     41  CD2       39.6140  -14.9220   16.4760 C.ar   50  TYR50      -0.0009
     42  CE1       38.9600  -17.4420   17.3590 C.ar   50  TYR50       0.0417
     43  CE2       38.3250  -15.1860   16.8920 C.ar   50  TYR50       0.0417
     44  CZ        38.0000  -16.4420   17.3320 C.ar   50  TYR50       0.1957
     45  OH        36.7110  -16.6830   17.7410 O.3    50  TYR50      -0.2866
     46  N         44.6670  -15.6060   17.5080 N.am   51  LEU51      -0.1977
     47  CA        46.1030  -15.8490   17.6520 C.3    51  LEU51       0.1596
     48  C         46.5800  -16.8950   16.6390 C.2    51  LEU51       0.2287
     49  O         46.7550  -16.5930   15.4530 O.2    51  LEU51      -0.2864
     50  CB        46.4220  -16.2940   19.0870 C.3    51  LEU51       0.0297
     51  CG        46.2980  -15.2260   20.1730 C.3    51  LEU51       0.0022
     52  CD1       46.5060  -15.8800   21.5190 C.3    51  LEU51       0.0001
     53  CD2       47.3080  -14.1220   19.9990 C.3    51  LEU51       0.0001
     54  N         38.7010  -12.0770   28.2230 N.3   205  LEU205     -0.1231
     55  CA        38.8480  -13.2650   27.3710 C.3   205  LEU205      0.1693
     56  C         39.7970  -14.2530   28.0160 C.2   205  LEU205      0.2593
     57  O         40.8110  -13.8420   28.5820 O.2   205  LEU205     -0.2718
     58  CB        39.3920  -12.8820   25.9970 C.3   205  LEU205      0.0284
     59  CG        38.3370  -12.6250   24.9250 C.3   205  LEU205      0.0019
     60  CD1       37.4140  -11.4870   25.3390 C.3   205  LEU205      0.0001
     61  CD2       39.0110  -12.3220   23.5970 C.3   205  LEU205      0.0001
     62  N         39.4750  -15.5440   27.9270 N.am  206  THR206     -0.1939
     63  CA        40.3440  -16.6080   28.4500 C.3   206  THR206      0.2028
     64  C         40.8030  -17.5210   27.3200 C.2   206  THR206      0.2642
     65  O         40.2460  -17.4590   26.2210 O.2   206  THR206     -0.2714
     66  CB        39.6320  -17.4560   29.5130 C.3   206  THR206      0.1808
     67  OG1       38.4530  -18.0350   28.9510 O.3   206  THR206     -0.2208
     68  CG2       39.2470  -16.6080   30.6940 C.3   206  THR206      0.0379
     69  N         41.8110  -18.3610   27.5920 N.am  207  HIS207     -0.1973
     70  CA        42.4270  -19.2140   26.5570 C.3   207  HIS207      0.1656
     71  C         42.8100  -20.6570   26.9800 C.2   207  HIS207      0.2291
     72  O         43.0710  -20.9360   28.1540 O.2   207  HIS207     -0.2864
     73  CB        43.6690  -18.5070   25.9920 C.3   207  HIS207      0.0771
     74  CG        43.4000  -17.1310   25.4570 C.ar  207  HIS207      0.0820
     75  ND1       43.2980  -16.0230   26.2720 N.ar  207  HIS207     -0.2267
     76  CD2       43.2270  -16.6820   24.1900 C.ar  207  HIS207      0.1154
     77  CE1       43.0640  -14.9540   25.5320 C.ar  207  HIS207      0.1986
     78  NE2       43.0170  -15.3260   24.2650 N.ar  207  HIS207     -0.2212
     79  N         39.3280  -22.5590   21.8460 N.3   210  TYR210     -0.1241
     80  CA        38.2080  -21.6180   21.8340 C.3   210  TYR210      0.1605
     81  C         36.8830  -22.1600   22.3890 C.2   210  TYR210      0.2264
     82  O         35.8050  -21.7320   21.9520 O.2   210  TYR210     -0.2867
     83  CB        37.9940  -21.0970   20.4010 C.3   210  TYR210      0.0534
     84  CG        39.2690  -20.7540   19.6610 C.ar  210  TYR210     -0.0201
     85  CD1       40.2940  -20.0480   20.2890 C.ar  210  TYR210     -0.0009
     86  CD2       39.4470  -21.1340   18.3270 C.ar  210  TYR210     -0.0009
     87  CE1       41.4650  -19.7320   19.6150 C.ar  210  TYR210      0.0417
     88  CE2       40.6090  -20.8200   17.6440 C.ar  210  TYR210      0.0417
     89  CZ        41.6150  -20.1220   18.2900 C.ar  210  TYR210      0.1957
     90  OH        42.7620  -19.8000   17.6090 O.3   210  TYR210     -0.2866
     91  N         36.0910  -21.8890   25.8440 N.3   212  SER212     -0.1217
     92  CA        36.6470  -21.2960   27.0450 C.3   212  SER212      0.1889
     93  C         35.9110  -19.9680   27.3190 C.2   212  SER212      0.2288
     94  O         35.5920  -19.2340   26.3830 O.2   212  SER212     -0.2866
     95  CB        38.1460  -21.0640   26.8140 C.3   212  SER212      0.2089
     96  OG        38.6680  -20.0450   27.6400 O.3   212  SER212     -0.2183
     97  N         34.2570  -16.3700   27.9830 N.3   214  TYR214     -0.1241
     98  CA        34.5350  -14.9460   27.8040 C.3   214  TYR214      0.1605
     99  C         33.3580  -14.0310   28.1560 C.2   214  TYR214      0.2264
    100  O         32.1880  -14.4120   28.0410 O.2   214  TYR214     -0.2867
    101  CB        35.0880  -14.6460   26.4000 C.3   214  TYR214      0.0534
    102  CG        34.1510  -14.8060   25.2030 C.ar  214  TYR214     -0.0201
    103  CD1       33.0840  -13.9340   24.9920 C.ar  214  TYR214     -0.0009
    104  CD2       34.3850  -15.7900   24.2420 C.ar  214  TYR214     -0.0009
    105  CE1       32.2570  -14.0610   23.8860 C.ar  214  TYR214      0.0417
    106  CE2       33.5600  -15.9260   23.1350 C.ar  214  TYR214      0.0417
    107  CZ        32.5000  -15.0560   22.9620 C.ar  214  TYR214      0.1957
    108  OH        31.6900  -15.1920   21.8540 O.3   214  TYR214     -0.2866
    109  N         32.0790  -10.0060   27.5500 N.3   216  ILE216     -0.1245
    110  CA        32.3110   -8.8520   26.6980 C.3   216  ILE216      0.1561
    111  C         31.1380   -7.8950   26.8370 C.2   216  ILE216      0.2260
    112  O         30.0980   -8.1050   26.2140 O.2   216  ILE216     -0.2867
    113  CB        32.4830   -9.2730   25.2200 C.3   216  ILE216      0.0252
    114  CG1       33.6880  -10.2070   25.0820 C.3   216  ILE216      0.0019
    115  CG2       32.6570   -8.0430   24.3320 C.3   216  ILE216      0.0019
    116  CD1       33.9600  -10.6840   23.6710 C.3   216  ILE216      0.0001
    117  N         31.9310  -18.3290   24.6710 N.3   226  GLY226     -0.1210
    118  CA        33.0510  -19.2510   24.6600 C.3   226  GLY226      0.1956
    119  C         32.6790  -20.6160   24.1270 C.2   226  GLY226      0.2612
    120  O         32.8570  -21.6090   24.8130 O.2   226  GLY226     -0.2717
    121  N         32.1520  -20.6570   22.9070 N.am  227  ILE227     -0.1965
    122  CA        31.8390  -21.9110   22.2240 C.3   227  ILE227      0.1727
    123  C         32.3280  -21.8160   20.7800 C.2   227  ILE227      0.2616
    124  O         32.1070  -20.8100   20.1170 O.2   227  ILE227     -0.2715
    125  CB        30.3220  -22.1940   22.2290 C.3   227  ILE227      0.0290
    126  CG1       29.7700  -22.2530   23.6570 C.3   227  ILE227      0.0022
    127  CG2       30.0040  -23.4930   21.5030 C.3   227  ILE227      0.0023
    128  CD1       30.2400  -23.4400   24.4720 C.3   227  ILE227      0.0001
    129  N         32.9800  -22.8760   20.3050 N.am  228  PHE228     -0.1974
    130  CA        33.5720  -22.9200   18.9620 C.3   228  PHE228      0.1639
    131  C         33.5760  -24.3720   18.4870 C.2   228  PHE228      0.2290
    132  O         34.5050  -25.1300   18.7740 O.2   228  PHE228     -0.2864
    133  CB        35.0010  -22.3600   19.0060 C.3   228  PHE228      0.0560
    134  CG        35.5850  -22.0240   17.6540 C.ar  228  PHE228     -0.0200
    135  CD1       35.9600  -23.0230   16.7550 C.ar  228  PHE228     -0.0042
    136  CD2       35.8010  -20.7020   17.2970 C.ar  228  PHE228     -0.0042
    137  CE1       36.5110  -22.7020   15.5190 C.ar  228  PHE228     -0.0003
    138  CE2       36.3610  -20.3810   16.0670 C.ar  228  PHE228     -0.0003
    139  CZ        36.7130  -21.3780   15.1760 C.ar  228  PHE228     -0.0000
    140  N         30.6270  -18.9820   12.7810 N.3   269  ARG269     -0.1245
    141  CA        31.8080  -18.3230   12.2730 C.3   269  ARG269      0.1563
    142  C         32.1750  -18.9960   10.9560 C.2   269  ARG269      0.2260
    143  O         32.2330  -20.2170   10.9040 O.2   269  ARG269     -0.2867
    144  CB        32.9640  -18.4860   13.2580 C.3   269  ARG269      0.0307
    145  CG        32.7240  -17.8930   14.6370 C.3   269  ARG269      0.0489
    146  CD        33.9050  -18.1710   15.5510 C.3   269  ARG269      0.2205
    147  NE        33.5930  -17.9220   16.9570 N.pl3 269  ARG269     -0.0865
    148  CZ        32.8850  -18.7410   17.7290 C.cat 269  ARG269      0.5346
    149  NH1       32.4050  -19.8780   17.2420 N.pl3 269  ARG269      0.1354
    150  NH2       32.6510  -18.4190   18.9970 N.pl3 269  ARG269      0.1354
    151  N         36.1910  -15.8600   13.3620 N.3   292  GLY292     -0.1225
    152  CA        35.7090  -15.1040   14.5150 C.3   292  GLY292      0.1811
    153  C         36.1550  -13.6540   14.6080 C.2   292  GLY292      0.2280
    154  O         36.0530  -13.0660   15.6750 O.2   292  GLY292     -0.2866
    155  N         36.3960   -7.2800   13.3540 N.3   296  THR296     -0.1218
    156  CA        37.7510   -6.8000   13.6180 C.3   296  THR296      0.1862
    157  C         38.4740   -6.3850   12.3320 C.2   296  THR296      0.2287
    158  O         39.1980   -5.3850   12.3220 O.2   296  THR296     -0.2866
    159  CB        38.5800   -7.8800   14.3410 C.3   296  THR296      0.1770
    160  OG1       38.0130   -8.1260   15.6370 O.3   296  THR296     -0.2211
    161  CG2       40.0510   -7.4640   14.5030 C.3   296  THR296      0.0375
@<TRIPOS>BOND
     1   143   142    2
     2   142   141    1
     3   141   140    1
     4   141   144    1
     5   158   157    2
     6   157   156    1
     7   144   145    1
     8   155   156    1
     9   151   152    1
    10   156   159    1
    11   159   161    1
    12   159   160    1
    13   152   153    1
    14   153   154    2
    15   145   146    1
    16    31    32    1
    17    31    28    1
    18   139   137   ar
    19   139   138   ar
    20    49    48    2
    21   137   135   ar
    22   146   147    1
    23    32    33    1
    24    38    39    1
    25    38    35    1
    26    28    29    1
    27    28    27    1
    28   138   136   ar
    29    34    35    1
    30    34    29   am
    31    37    36    2
    32    41    39   ar
    33    41    43   ar
    34    39    40   ar
    35    33    27    1
    36    48    47    1
    37   135   134   ar
    38    35    36    1
    39    36    46   am
    40    29    30    2
    41    27    20   am
    42    43    44   ar
    43    40    42   ar
    44   147   148    2
    45   149   148    1
    46   136   134   ar
    47    44    42   ar
    48    44    45    1
    49    46    47    1
    50    90    89    1
    51    21    20    2
    52    88    89   ar
    53    88    86   ar
    54    47    50    1
    55    20    19    1
    56   134   133    1
    57   148   150    1
    58    18    19    1
    59    13    12    2
    60    89    87   ar
    61    86    84   ar
    62     7     8    1
    63     7     6    1
    64   131   132    2
    65   131   130    1
    66    19    22    1
    67     9     8    2
    68     8    10   am
    69   130   133    1
    70   130   129    1
    71    12    11    1
    72    50    51    1
    73     6     3   am
    74    87    85   ar
    75     1     2    1
    76    84    85   ar
    77    84    83    1
    78    10    11    1
    79    53    51    1
    80    22    23    1
    81     3     4    2
    82     3     2    1
    83   124   123    2
    84    51    52    1
    85    11    14    1
    86   129   123   am
    87    83    80    1
    88    23    24    1
    89     2     5    1
    90   123   122    1
    91    14    15    1
    92   127   125    1
    93    80    79    1
    94    80    81    1
    95   108   107    1
    96    15    17    1
    97    15    16    1
    98    82    81    2
    99    24    26   am
   100    24    25    2
   101   122   125    1
   102   122   121    1
   103   125   126    1
   104   121   119   am
   105   107   106   ar
   106   107   105   ar
   107   106   104   ar
   108    61    59    1
   109   126   128    1
   110   116   114    1
   111   105   103   ar
   112   119   118    1
   113   119   120    2
   114    76    78   ar
   115    76    74   ar
   116   104   102   ar
   117    78    77   ar
   118   115   113    1
   119   118   117    1
   120    59    60    1
   121    59    58    1
   122   103   102   ar
   123   114   113    1
   124   102   101    1
   125   113   110    1
   126    74    73    1
   127    74    75   ar
   128    77    75   ar
   129    91    92    1
   130    73    70    1
   131    58    55    1
   132   112   111    2
   133    65    64    2
   134    94    93    2
   135   101    98    1
   136    70    71    1
   137    70    69    1
   138   110   111    1
   139   110   109    1
   140    95    92    1
   141    95    96    1
   142    71    72    2
   143    92    93    1
   144    64    69   am
   145    64    63    1
   146    55    56    1
   147    55    54    1
   148    98    97    1
   149    98    99    1
   150    62    56   am
   151    62    63    1
   152    56    57    2
   153   100    99    2
   154    63    66    1
   155    67    66    1
   156    66    68    1
