@<TRIPOS>MOLECULE
tmp/4qfhB00.pdb
 121 111 0 0 0
SMALL
GASTEIGER

@<TRIPOS>ATOM
      1  N          9.3260   32.1310   -7.2470 N.3   210  ILE210     -0.1231
      2  CA         9.9370   32.2120   -5.9240 C.3   210  ILE210      0.1692
      3  C         11.3230   31.5790   -5.9670 C.2   210  ILE210      0.2593
      4  O         11.5780   30.7330   -6.8080 O.2   210  ILE210     -0.2718
      5  CB         9.0420   31.5340   -4.8550 C.3   210  ILE210      0.0266
      6  CG1        9.4300   31.9760   -3.4370 C.3   210  ILE210      0.0019
      7  CG2        9.0470   30.0040   -5.0040 C.3   210  ILE210      0.0020
      8  CD1        8.2750   31.7960   -2.4080 C.3   210  ILE210      0.0001
      9  N         12.2220   32.0160   -5.0930 N.am  211  GLY211     -0.1942
     10  CA        13.5550   31.4270   -5.0390 C.3   211  GLY211      0.2014
     11  C         14.3160   31.6490   -6.3350 C.2   211  GLY211      0.2639
     12  O         14.5000   32.7890   -6.7610 O.2   211  GLY211     -0.2714
     13  N         14.7530   30.5580   -6.9640 N.am  212  GLY212     -0.1939
     14  CA        15.5220   30.6360   -8.1930 C.3   212  GLY212      0.2014
     15  C         14.7480   31.2680   -9.3320 C.2   212  GLY212      0.2639
     16  O         15.3290   31.7400  -10.3030 O.2   212  GLY212     -0.2714
     17  N         13.4250   31.2810   -9.2100 N.am  213  SER213     -0.1949
     18  CA        12.5740   31.8320  -10.2560 C.3   213  SER213      0.1924
     19  C         12.1870   33.2760   -9.9620 C.2   213  SER213      0.2314
     20  O         11.3500   33.8560  -10.6680 O.2   213  SER213     -0.2863
     21  CB        11.3190   30.9690  -10.4310 C.3   213  SER213      0.2116
     22  OG        11.6480   29.7180  -11.0170 O.3   213  SER213     -0.2180
     23  N          6.8800   32.0390  -13.5850 N.3   262  ALA262     -0.1231
     24  CA         8.2220   31.4430  -13.5970 C.3   262  ALA262      0.1694
     25  C          8.3380   30.3080  -12.5840 C.2   262  ALA262      0.2593
     26  O          8.3580   30.5470  -11.3760 O.2   262  ALA262     -0.2718
     27  CB         9.2680   32.5130  -13.3240 C.3   262  ALA262      0.0304
     28  N          8.4110   29.0700  -13.0770 N.am  263  SER263     -0.1938
     29  CA         8.5390   27.9070  -12.1960 C.3   263  SER263      0.2055
     30  C          9.1050   26.6890  -12.9200 C.2   263  SER263      0.2643
     31  O          8.4800   26.1600  -13.8380 O.2   263  SER263     -0.2714
     32  CB         7.1800   27.5450  -11.5770 C.3   263  SER263      0.2130
     33  OG         7.3240   26.4260  -10.7050 O.3   263  SER263     -0.2179
     34  N         10.2870   26.2470  -12.5000 N.am  264  LYS264     -0.1963
     35  CA        10.9200   25.0800  -13.1100 C.3   264  LYS264      0.1728
     36  C          9.9850   23.8700  -13.0530 C.2   264  LYS264      0.2616
     37  O          9.7490   23.2150  -14.0660 O.2   264  LYS264     -0.2715
     38  CB        12.2520   24.7730  -12.4160 C.3   264  LYS264      0.0311
     39  CG        13.0000   23.5610  -12.9740 C.3   264  LYS264      0.0038
     40  CD        14.3510   23.3430  -12.2610 C.3   264  LYS264      0.0206
     41  CE        15.1260   22.2120  -12.9340 C.3   264  LYS264      0.1093
     42  NZ        16.4960   21.9810  -12.3510 N.3   264  LYS264     -0.1314
     43  N          9.4280   23.6070  -11.8720 N.am  265  THR265     -0.1951
     44  CA         8.5100   22.4870  -11.6790 C.3   265  THR265      0.1897
     45  C          7.0840   22.7890  -12.1340 C.2   265  THR265      0.2313
     46  O          6.3370   21.8870  -12.5320 O.2   265  THR265     -0.2863
     47  CB         8.4530   22.0730  -10.1890 C.3   265  THR265      0.1794
     48  OG1        8.1100   23.2170   -9.3840 O.3   265  THR265     -0.2208
     49  CG2        9.8020   21.5210   -9.7320 C.3   265  THR265      0.0378
     50  N          5.2560   24.4460   -7.5210 N.3   268  THR268     -0.1218
     51  CA         5.5410   25.1000   -6.2470 C.3   268  THR268      0.1862
     52  C          4.3030   25.8140   -5.7160 C.2   268  THR268      0.2287
     53  O          3.7050   26.6200   -6.4270 O.2   268  THR268     -0.2866
     54  CB         6.6870   26.0990   -6.4060 C.3   268  THR268      0.1770
     55  OG1        7.8160   25.3940   -6.9310 O.3   268  THR268     -0.2211
     56  CG2        7.0560   26.7370   -5.0640 C.3   268  THR268      0.0375
     57  N          3.9670   29.7830   -5.9130 N.3   271  THR271     -0.1218
     58  CA         3.9390   30.3530   -7.2540 C.3   271  THR271      0.1862
     59  C          2.6490   30.0020   -7.9920 C.2   271  THR271      0.2287
     60  O          2.0500   30.8570   -8.6470 O.2   271  THR271     -0.2866
     61  CB         5.1600   29.8830   -8.0590 C.3   271  THR271      0.1770
     62  OG1        6.3370   30.3400   -7.3890 O.3   271  THR271     -0.2211
     63  CG2        5.1390   30.4330   -9.5000 C.3   271  THR271      0.0375
     64  N         17.7320   25.9370  -10.3370 N.3   330  GLY330     -0.1210
     65  CA        16.9790   27.1720  -10.1140 C.3   330  GLY330      0.1956
     66  C         17.8560   28.3670   -9.7400 C.2   330  GLY330      0.2611
     67  O         17.7330   29.4570  -10.3120 O.2   330  GLY330     -0.2717
     68  N         18.7670   28.1620   -8.7940 N.am  331  ARG331     -0.1979
     69  CA        19.6910   29.2280   -8.3850 C.3   331  ARG331      0.1597
     70  C         20.8070   29.4720   -9.4130 C.2   331  ARG331      0.2287
     71  O         21.6940   30.3140   -9.1990 O.2   331  ARG331     -0.2864
     72  CB        20.2880   28.9160   -7.0110 C.3   331  ARG331      0.0334
     73  CG        21.0040   27.5670   -6.9180 C.3   331  ARG331      0.0492
     74  CD        21.2450   27.1680   -5.4610 C.3   331  ARG331      0.2205
     75  NE        21.8810   25.8450   -5.3750 N.pl3 331  ARG331     -0.0865
     76  CZ        21.2180   24.7080   -5.1910 C.cat 331  ARG331      0.5346
     77  NH1       19.8950   24.7180   -5.0330 N.pl3 331  ARG331      0.1354
     78  NH2       21.8770   23.5520   -5.1470 N.pl3 331  ARG331      0.1354
     79  N         21.1810   32.6480   -1.7230 N.3   412  GLN412     -0.1245
     80  CA        20.6680   31.4060   -2.2680 C.3   412  GLN412      0.1566
     81  C         21.7700   30.6390   -2.9840 C.2   412  GLN412      0.2260
     82  O         21.9470   29.4470   -2.7350 O.2   412  GLN412     -0.2867
     83  CB        19.4950   31.6260   -3.2290 C.3   412  GLN412      0.0367
     84  CG        19.0870   30.3160   -3.8940 C.3   412  GLN412      0.0905
     85  CD        17.7750   30.4030   -4.6520 C.2   412  GLN412      0.2608
     86  OE1       17.3010   31.4920   -4.9700 O.2   412  GLN412     -0.2717
     87  NE2       17.1880   29.2440   -4.9550 N.am  412  GLN412     -0.0878
     88  N         22.2240   27.6490   -0.4470 N.3   416  GLU416     -0.1245
     89  CA        21.4250   26.5130   -0.8980 C.3   416  GLU416      0.1567
     90  C         22.3000   25.4940   -1.6170 C.2   416  GLU416      0.2260
     91  O         21.9870   24.3180   -1.6180 O.2   416  GLU416     -0.2867
     92  CB        20.2640   26.9370   -1.8040 C.3   416  GLU416      0.0388
     93  CG        19.1670   25.8670   -1.8420 C.3   416  GLU416      0.1160
     94  CD        17.9170   26.3100   -2.5930 C.2   416  GLU416      0.3649
     95  OE1       18.0400   26.6470   -3.7940 O.co2 416  GLU416     -0.2457
     96  OE2       16.8150   26.3130   -1.9830 O.co2 416  GLU416     -0.2457
     97  N         19.0360   20.0470   -3.4190 N.3   569  GLN569     -0.1245
     98  CA        18.5010   20.8300   -2.3050 C.3   569  GLN569      0.1566
     99  C         17.4540   20.0220   -1.5290 C.2   569  GLN569      0.2260
    100  O         16.2590   20.3620   -1.4870 O.2   569  GLN569     -0.2867
    101  CB        17.9080   22.1650   -2.8020 C.3   569  GLN569      0.0367
    102  CG        16.8920   22.0650   -3.9370 C.3   569  GLN569      0.0905
    103  CD        17.5240   21.7410   -5.2840 C.2   569  GLN569      0.2608
    104  OE1       18.5700   22.2840   -5.6400 O.2   569  GLN569     -0.2717
    105  NE2       16.9060   20.8220   -6.0240 N.am  569  GLN569     -0.0878
    106  N         14.9360   21.2690    1.7590 N.3   572  VAL572     -0.1245
    107  CA        13.6800   22.0210    1.7370 C.3   572  VAL572      0.1561
    108  C         12.4500   21.1030    1.7470 C.2   572  VAL572      0.2260
    109  O         11.3100   21.5730    1.8640 O.2   572  VAL572     -0.2867
    110  CB        13.5990   22.9610    0.4930 C.3   572  VAL572      0.0252
    111  CG1       14.8960   23.7320    0.3200 C.3   572  VAL572      0.0019
    112  CG2       13.2770   22.1730   -0.7760 C.3   572  VAL572      0.0019
    113  N          8.1140   21.4620    3.4070 N.3   576  LYS576     -0.1245
    114  CA         6.9700   21.4350    2.5000 C.3   576  LYS576      0.1561
    115  C          5.9720   20.3510    2.9020 C.2   576  LYS576      0.2260
    116  O          4.7700   20.5580    2.8570 O.2   576  LYS576     -0.2867
    117  CB         7.4280   21.2120    1.0570 C.3   576  LYS576      0.0271
    118  CG         8.3170   22.3360    0.5040 C.3   576  LYS576      0.0035
    119  CD         8.7300   22.0210   -0.9340 C.3   576  LYS576      0.0206
    120  CE         9.5830   23.1290   -1.5350 C.3   576  LYS576      0.1093
    121  NZ         9.9770   22.8080   -2.9350 N.3   576  LYS576     -0.1314
@<TRIPOS>BOND
     1    37    36    2
     2    31    30    2
     3    24    23    1
     4    24    27    1
     5    24    25    1
     6    35    36    1
     7    35    34    1
     8    35    38    1
     9    28    25   am
    10    28    29    1
    11    36    43   am
    12    39    38    1
    13    39    40    1
    14    41    42    1
    15    41    40    1
    16    30    34   am
    17    30    29    1
    18    25    26    2
    19    46    45    2
    20    29    32    1
    21    45    44    1
    22    43    44    1
    23    44    47    1
    24    32    33    1
    25    22    21    1
    26    20    19    2
    27    21    18    1
    28    64    65    1
    29    67    66    2
    30    16    15    2
    31    18    19    1
    32    18    17    1
    33    47    49    1
    34    47    48    1
    35    65    66    1
    36    66    68   am
    37    63    61    1
    38    70    71    2
    39    70    69    1
    40    15    17   am
    41    15    14    1
    42    68    69    1
    43    60    59    2
    44    69    72    1
    45    14    13    1
    46    61    62    1
    47    61    58    1
    48    59    58    1
    49    50    51    1
    50    58    57    1
    51     1     2    1
    52    72    73    1
    53    13    11   am
    54    55    54    1
    55    73    74    1
    56     4     3    2
    57    12    11    2
    58    53    52    2
    59    54    51    1
    60    54    56    1
    61    11    10    1
    62    51    52    1
    63   105   103   am
    64     3     2    1
    65     3     9   am
    66     2     5    1
    67   104   103    2
    68    74    75    1
    69    75    76    2
    70   103   102    1
    71    76    78    1
    72    76    77    1
    73     9    10    1
    74     7     5    1
    75    86    85    2
    76    87    85   am
    77     5     6    1
    78    85    84    1
    79   102   101    1
    80    84    83    1
    81    95    94   ar
    82     6     8    1
    83    97    98    1
    84    83    80    1
    85    81    82    2
    86    81    80    1
    87   121   120    1
    88   101    98    1
    89    94    96   ar
    90    94    93    1
    91    98    99    1
    92    80    79    1
    93    93    92    1
    94    92    89    1
    95    91    90    2
    96    90    89    1
    97   120   119    1
    98    99   100    2
    99   119   118    1
   100    89    88    1
   101   112   110    1
   102   111   110    1
   103   110   107    1
   104   118   117    1
   105   117   114    1
   106   107   108    1
   107   107   106    1
   108   108   109    2
   109   114   115    1
   110   114   113    1
   111   116   115    2
