@<TRIPOS>MOLECULE
tmp/4qflA00.pdb
 145 142 0 0 0
SMALL
GASTEIGER

@<TRIPOS>ATOM
      1  N         10.2960   -4.5380   16.7270 N.3    20  THR20      -0.1203
      2  CA        11.0270   -5.4910   15.9120 C.3    20  THR20       0.1994
      3  C         11.1090   -4.9990   14.4720 C.2    20  THR20       0.2619
      4  O         11.3510   -5.7800   13.5560 O.2    20  THR20      -0.2717
      5  CB        10.3840   -6.8750   15.9070 C.3    20  THR20       0.1784
      6  OG1        9.0550   -6.7870   15.3820 O.3    20  THR20      -0.2211
      7  CG2       10.3420   -7.4380   17.3080 C.3    20  THR20       0.0376
      8  N         10.9200   -3.7050   14.2590 N.am   21  THR21      -0.1938
      9  CA        10.9770   -3.1890   12.8960 C.3    21  THR21       0.2028
     10  C         12.3640   -2.7240   12.4950 C.2    21  THR21       0.2642
     11  O         12.9160   -1.8170   13.0900 O.2    21  THR21      -0.2714
     12  CB        10.0080   -2.0390   12.6930 C.3    21  THR21       0.1808
     13  OG1        8.6790   -2.5310   12.8960 O.3    21  THR21      -0.2208
     14  CG2       10.1530   -1.4900   11.2810 C.3    21  THR21       0.0379
     15  N         12.9130   -3.3470   11.4630 N.am   22  GLY22      -0.1954
     16  CA        14.2850   -3.0860   11.0560 C.3    22  GLY22       0.1869
     17  C         14.5810   -1.6350   10.7240 C.2    22  GLY22       0.2309
     18  O         15.6760   -1.1480   10.9940 O.2    22  GLY22      -0.2863
     19  N          7.7750  -14.2920    2.5740 N.3   266  TYR266     -0.1241
     20  CA         6.6630  -15.2530    2.5310 C.3   266  TYR266      0.1605
     21  C          5.2990  -14.5940    2.2660 C.2   266  TYR266      0.2264
     22  O          5.1350  -13.3750    2.3620 O.2   266  TYR266     -0.2867
     23  CB         6.5970  -16.0680    3.8350 C.3   266  TYR266      0.0534
     24  CG         6.5120  -15.1890    5.0620 C.ar  266  TYR266     -0.0201
     25  CD1        5.3870  -14.4090    5.3040 C.ar  266  TYR266     -0.0009
     26  CD2        7.5600  -15.1160    5.9640 C.ar  266  TYR266     -0.0009
     27  CE1        5.3110  -13.5820    6.4110 C.ar  266  TYR266      0.0417
     28  CE2        7.4900  -14.2920    7.0680 C.ar  266  TYR266      0.0417
     29  CZ         6.3680  -13.5250    7.2800 C.ar  266  TYR266      0.1957
     30  OH         6.2980  -12.7110    8.3730 O.3   266  TYR266     -0.2866
     31  N         12.3290   -4.2980    1.3110 N.3   355  ARG355     -0.1245
     32  CA        13.0090   -5.0040    2.4020 C.3   355  ARG355      0.1563
     33  C         13.9600   -6.0020    1.7730 C.2   355  ARG355      0.2260
     34  O         13.8160   -6.3500    0.5980 O.2   355  ARG355     -0.2867
     35  CB        12.0220   -5.7730    3.2940 C.3   355  ARG355      0.0307
     36  CG        10.6940   -5.0870    3.5570 C.3   355  ARG355      0.0489
     37  CD        10.8730   -3.7670    4.2720 C.3   355  ARG355      0.2205
     38  NE        11.6160   -3.8910    5.5190 N.pl3 355  ARG355     -0.0865
     39  CZ        12.5700   -3.0450    5.9150 C.cat 355  ARG355      0.5346
     40  NH1       12.9280   -2.0150    5.1520 N.pl3 355  ARG355      0.1354
     41  NH2       13.1850   -3.2370    7.0730 N.pl3 355  ARG355      0.1354
     42  N         14.1110   -9.1270    2.1440 N.3   357  TYR357     -0.1241
     43  CA        13.4200  -10.3370    1.7250 C.3   357  TYR357      0.1605
     44  C         12.3750  -10.1030    0.6350 C.2   357  TYR357      0.2264
     45  O         11.8260  -11.0490    0.0910 O.2   357  TYR357     -0.2867
     46  CB        12.7940  -11.0280    2.9310 C.3   357  TYR357      0.0534
     47  CG        12.0100  -10.1020    3.8260 C.ar  357  TYR357     -0.0201
     48  CD1       10.6780   -9.8220    3.5650 C.ar  357  TYR357     -0.0009
     49  CD2       12.6010   -9.5070    4.9280 C.ar  357  TYR357     -0.0009
     50  CE1        9.9530   -8.9800    4.3800 C.ar  357  TYR357      0.0417
     51  CE2       11.8830   -8.6580    5.7470 C.ar  357  TYR357      0.0417
     52  CZ        10.5580   -8.4020    5.4710 C.ar  357  TYR357      0.1957
     53  OH         9.8330   -7.5640    6.2800 O.3   357  TYR357     -0.2866
     54  N          4.5000    2.1230    6.2110 N.3   386  TRP386     -0.1241
     55  CA         5.2140    0.9710    6.7690 C.3   386  TRP386      0.1605
     56  C          4.8810    0.6650    8.2130 C.2   386  TRP386      0.2264
     57  O          4.4520   -0.4440    8.5190 O.2   386  TRP386     -0.2867
     58  CB         6.7130    1.1710    6.6090 C.3   386  TRP386      0.0550
     59  CG         7.6220    0.0530    7.0770 C.ar  386  TRP386      0.0003
     60  CD1        8.8160    0.2130    7.7100 C.ar  386  TRP386      0.0946
     61  CD2        7.4520   -1.3690    6.9100 C.ar  386  TRP386      0.0152
     62  NE1        9.3940   -1.0010    7.9590 N.ar  386  TRP386     -0.2442
     63  CE2        8.5840   -1.9910    7.4810 C.ar  386  TRP386      0.0810
     64  CE3        6.4580   -2.1700    6.3470 C.ar  386  TRP386      0.0012
     65  CZ2        8.7530   -3.3790    7.5010 C.ar  386  TRP386      0.0191
     66  CZ3        6.6240   -3.5490    6.3710 C.ar  386  TRP386      0.0001
     67  CH2        7.7680   -4.1390    6.9470 C.ar  386  TRP386      0.0015
     68  N          2.5430   -2.5000    9.7420 N.3   390  ILE390     -0.1245
     69  CA         2.9670   -3.4830   10.7350 C.3   390  ILE390      0.1561
     70  C          1.9290   -3.6060   11.8450 C.2   390  ILE390      0.2260
     71  O          1.5480   -4.7000   12.2550 O.2   390  ILE390     -0.2867
     72  CB         4.3300   -3.0940   11.3540 C.3   390  ILE390      0.0252
     73  CG1        5.4320   -3.1210   10.2940 C.3   390  ILE390      0.0019
     74  CG2        4.6670   -4.0150   12.5260 C.3   390  ILE390      0.0019
     75  CD1        5.5530   -4.4210    9.6100 C.3   390  ILE390      0.0001
     76  N         -1.2530   -5.3550   10.7070 N.3   393  ILE393     -0.1245
     77  CA        -0.9890   -6.7820   10.5450 C.3   393  ILE393      0.1561
     78  C         -0.9290   -7.4770   11.9200 C.2   393  ILE393      0.2260
     79  O         -1.3620   -8.6270   12.0690 O.2   393  ILE393     -0.2867
     80  CB         0.3070   -7.0460    9.7240 C.3   393  ILE393      0.0252
     81  CG1        0.1580   -6.5550    8.2750 C.3   393  ILE393      0.0019
     82  CG2        0.6190   -8.5120    9.6960 C.3   393  ILE393      0.0019
     83  CD1       -0.8010   -7.3950    7.4220 C.3   393  ILE393      0.0001
     84  N          4.9910  -10.5140    3.6450 N.3   403  LEU403     -0.1231
     85  CA         5.9060  -10.0300    4.6590 C.3   403  LEU403      0.1693
     86  C          7.1350  -10.9340    4.6780 C.2   403  LEU403      0.2593
     87  O          7.4600  -11.5700    3.6890 O.2   403  LEU403     -0.2718
     88  CB         5.2320  -10.0230    6.0340 C.3   403  LEU403      0.0284
     89  CG         5.1130   -8.6460    6.6890 C.3   403  LEU403      0.0019
     90  CD1        4.1100   -8.6310    7.8330 C.3   403  LEU403      0.0001
     91  CD2        6.4710   -8.1420    7.1400 C.3   403  LEU403      0.0001
     92  N          7.8140  -10.9920    5.8120 N.am  404  GLY404     -0.1942
     93  CA         8.9670  -11.8560    5.9320 C.3   404  GLY404      0.2014
     94  C          9.7550  -11.5430    7.1810 C.2   404  GLY404      0.2639
     95  O          9.2460  -10.9300    8.1080 O.2   404  GLY404     -0.2714
     96  N         11.0060  -11.9700    7.1970 N.am  405  TRP405     -0.1959
     97  CA        11.8420  -11.7600    8.3550 C.3   405  TRP405      0.1771
     98  C         13.2830  -11.6390    7.9160 C.2   405  TRP405      0.2619
     99  O         13.7770  -12.4560    7.1430 O.2   405  TRP405     -0.2715
    100  CB        11.6910  -12.9450    9.2970 C.3   405  TRP405      0.0590
    101  CG        12.3220  -12.7940   10.6480 C.ar  405  TRP405      0.0006
    102  CD1       13.3840  -13.5070   11.1390 C.ar  405  TRP405      0.0946
    103  CD2       11.9200  -11.9040   11.7030 C.ar  405  TRP405      0.0152
    104  NE1       13.6640  -13.1100   12.4240 N.ar  405  TRP405     -0.2442
    105  CE2       12.7830  -12.1280   12.7930 C.ar  405  TRP405      0.0810
    106  CE3       10.9150  -10.9410   11.8320 C.ar  405  TRP405      0.0012
    107  CZ2       12.6710  -11.4220   13.9910 C.ar  405  TRP405      0.0191
    108  CZ3       10.8120  -10.2340   13.0320 C.ar  405  TRP405      0.0001
    109  CH2       11.6800  -10.4750   14.0830 C.ar  405  TRP405      0.0015
    110  N         13.9470  -10.5970    8.3960 N.am  406  ALA406     -0.1977
    111  CA        15.3880  -10.5060    8.2840 C.3   406  ALA406      0.1597
    112  C         16.0350  -10.9610    9.6060 C.2   406  ALA406      0.2287
    113  O         15.8870  -10.3220   10.6440 O.2   406  ALA406     -0.2864
    114  CB        15.8000   -9.0940    7.9170 C.3   406  ALA406      0.0319
    115  N         10.2910  -16.0810   17.0300 N.3   418  PRO418     -0.2102
    116  CA         9.7490  -14.7170   16.9090 C.3   418  PRO418      0.1504
    117  C          8.6700  -14.5720   15.8420 C.2   418  PRO418      0.2575
    118  O          8.1750  -13.4620   15.6360 O.2   418  PRO418     -0.2718
    119  CB        10.9620  -13.8760   16.4820 C.3   418  PRO418      0.0282
    120  CG        12.1670  -14.7660   16.6400 C.3   418  PRO418      0.0208
    121  CD        11.6630  -16.1800   16.5090 C.3   418  PRO418      0.0893
    122  N          8.3150  -15.6590   15.1660 N.am  419  LEU419     -0.1980
    123  CA         7.4690  -15.5620   13.9890 C.3   419  LEU419      0.1596
    124  C          6.2030  -16.3520   14.1230 C.2   419  LEU419      0.2287
    125  O          5.1140  -15.8060   13.9970 O.2   419  LEU419     -0.2864
    126  CB         8.2080  -16.1090   12.7770 C.3   419  LEU419      0.0297
    127  CG         8.5990  -15.1200   11.6940 C.3   419  LEU419      0.0022
    128  CD1        9.4070  -13.9920   12.3020 C.3   419  LEU419      0.0001
    129  CD2        9.3730  -15.8350   10.6130 C.3   419  LEU419      0.0001
    130  N          2.7540  -10.5130   16.5940 N.3   429  LYS429     -0.1245
    131  CA         3.9040  -10.5320   15.6870 C.3   429  LYS429      0.1561
    132  C          3.9090  -11.7140   14.7150 C.2   429  LYS429      0.2260
    133  O          4.8560  -11.9040   13.9600 O.2   429  LYS429     -0.2867
    134  CB         5.2060  -10.4790   16.4860 C.3   429  LYS429      0.0271
    135  CG         5.4370   -9.1220   17.1680 C.3   429  LYS429      0.0035
    136  CD         5.1630   -7.9650   16.2050 C.3   429  LYS429      0.0206
    137  CE         5.7900   -6.6730   16.6740 C.3   429  LYS429      0.1093
    138  NZ         5.3390   -5.5410   15.8270 N.3   429  LYS429     -0.1314
    139  N          2.2730  -13.1000   11.5240 N.3   431  PRO431     -0.2116
    140  CA         1.4030  -12.6670   10.4230 C.3   431  PRO431      0.1372
    141  C          0.4280  -13.7570    9.9580 C.2   431  PRO431      0.2244
    142  O         -0.5170  -13.4630    9.2470 O.2   431  PRO431     -0.2868
    143  CB         2.3950  -12.3070    9.3020 C.3   431  PRO431      0.0268
    144  CG         3.7000  -12.1250    9.9870 C.3   431  PRO431      0.0207
    145  CD         3.6950  -13.0700   11.1460 C.3   431  PRO431      0.0892
@<TRIPOS>BOND
     1    45    44    2
     2    34    33    2
     3    44    43    1
     4    31    32    1
     5    43    42    1
     6    43    46    1
     7    33    32    1
     8    21    22    2
     9    21    20    1
    10    32    35    1
    11    20    19    1
    12    20    23    1
    13    46    47    1
    14    35    36    1
    15    36    37    1
    16    48    47   ar
    17    48    50   ar
    18    84    85    1
    19    87    86    2
    20    47    49   ar
    21    23    24    1
    22    37    38    1
    23    50    52   ar
    24    85    86    1
    25    85    88    1
    26    86    92   am
    27    49    51   ar
    28    24    25   ar
    29    24    26   ar
    30    40    39    1
    31    25    27   ar
    32    52    51   ar
    33    52    53    1
    34    38    39    2
    35    92    93    1
    36    39    41    1
    37    93    94    1
    38    26    28   ar
    39    88    89    1
    40    54    55    1
    41    64    66   ar
    42    64    61   ar
    43    66    67   ar
    44    27    29   ar
    45    58    55    1
    46    58    59    1
    47    89    91    1
    48    89    90    1
    49    55    56    1
    50    61    59   ar
    51    61    63   ar
    52    67    65   ar
    53    28    29   ar
    54    59    60   ar
    55    99    98    2
    56    94    96   am
    57    94    95    2
    58    96    97    1
    59    29    30    1
    60    83    81    1
    61    63    65   ar
    62    63    62   ar
    63    60    62   ar
    64    98    97    1
    65    98   110   am
    66   114   111    1
    67    56    57    2
    68    81    80    1
    69   111   110    1
    70   111   112    1
    71    97   100    1
    72   142   141    2
    73   100   101    1
    74   143   144    1
    75   143   140    1
    76   112   113    2
    77    75    73    1
    78    82    80    1
    79    80    77    1
    80    68    69    1
    81   141   140    1
    82   144   145    1
    83    73    72    1
    84   140   139    1
    85    77    76    1
    86    77    78    1
    87   129   127    1
    88   101   102   ar
    89   101   103   ar
    90    17    18    2
    91    17    16    1
    92    69    72    1
    93    69    70    1
    94    16    15    1
    95   102   104   ar
    96   145   139    1
    97    14    12    1
    98    72    74    1
    99    15    10   am
   100   127   128    1
   101   127   126    1
   102   103   106   ar
   103   103   105   ar
   104   106   108   ar
   105    70    71    2
   106    78    79    2
   107   104   105   ar
   108    10     9    1
   109    10    11    2
   110    12     9    1
   111    12    13    1
   112   126   123    1
   113   105   107   ar
   114     9     8    1
   115   108   109   ar
   116     4     3    2
   117   133   132    2
   118   123   124    1
   119   123   122    1
   120   107   109   ar
   121   125   124    2
   122     8     3   am
   123     3     2    1
   124   132   131    1
   125   122   117   am
   126     6     5    1
   127   118   117    2
   128   131   134    1
   129   131   130    1
   130   138   137    1
   131   117   116    1
   132     5     2    1
   133     5     7    1
   134     2     1    1
   135   136   137    1
   136   136   135    1
   137   119   120    1
   138   119   116    1
   139   134   135    1
   140   121   120    1
   141   121   115    1
   142   116   115    1
