@<TRIPOS>MOLECULE
tmp/4qfnA00.pdb
 103 101 0 0 0
SMALL
GASTEIGER

@<TRIPOS>ATOM
      1  N          9.1680    6.8100   16.6420 N.3    20  THR20      -0.1203
      2  CA        10.3870    7.0550   15.8780 C.3    20  THR20       0.1994
      3  C         10.0480    7.5340   14.4600 C.2    20  THR20       0.2619
      4  O         10.9310    7.7650   13.6450 O.2    20  THR20      -0.2717
      5  CB        11.2850    5.7880   15.7870 C.3    20  THR20       0.1784
      6  OG1       10.5200    4.6990   15.2750 O.3    20  THR20      -0.2211
      7  CG2       11.8120    5.3960   17.1400 C.3    20  THR20       0.0376
      8  N          8.7650    7.6600   14.1650 N.am   21  THR21      -0.1938
      9  CA         8.3140    7.9940   12.8230 C.3    21  THR21       0.2028
     10  C          8.6030    9.4500   12.4390 C.2    21  THR21       0.2642
     11  O          8.0880   10.3770   13.0560 O.2    21  THR21      -0.2714
     12  CB         6.7990    7.7320   12.6910 C.3    21  THR21       0.1808
     13  OG1        6.5160    6.3990   13.1160 O.3    21  THR21      -0.2208
     14  CG2        6.3490    7.9030   11.2590 C.3    21  THR21       0.0379
     15  N          9.4120    9.6420   11.4020 N.am   22  GLY22      -0.1954
     16  CA         9.8200   10.9740   10.9850 C.3    22  GLY22       0.1869
     17  C          8.6710   11.9280   10.7510 C.2    22  GLY22       0.2309
     18  O          8.7720   13.1090   11.0690 O.2    22  GLY22      -0.2863
     19  N          9.6540    8.6280    1.2770 N.3   355  ARG355     -0.1245
     20  CA        10.6320    8.8320    2.3510 C.3   355  ARG355      0.1563
     21  C         11.9780    9.1810    1.7010 C.2   355  ARG355      0.2260
     22  O         12.2040    8.8480    0.5360 O.2   355  ARG355     -0.2867
     23  CB        10.8140    7.5600    3.2070 C.3   355  ARG355      0.0307
     24  CG         9.5530    6.7680    3.5400 C.3   355  ARG355      0.0489
     25  CD         8.4980    7.6240    4.2380 C.3   355  ARG355      0.2205
     26  NE         8.9340    8.1340    5.5350 N.pl3 355  ARG355     -0.0865
     27  CZ         8.7120    9.3770    5.9700 C.cat 355  ARG355      0.5346
     28  NH1        8.0620   10.2610    5.2040 N.pl3 355  ARG355      0.1354
     29  NH2        9.1350    9.7370    7.1820 N.pl3 355  ARG355      0.1354
     30  N         14.7820    7.7940    2.0500 N.3   357  TYR357     -0.1241
     31  CA        15.4590    6.5770    1.6200 C.3   357  TYR357      0.1605
     32  C         14.6980    5.7320    0.5840 C.2   357  TYR357      0.2264
     33  O         15.2440    4.7640    0.0720 O.2   357  TYR357     -0.2867
     34  CB        15.8040    5.7180    2.8320 C.3   357  TYR357      0.0534
     35  CG        14.6230    5.4780    3.7190 C.ar  357  TYR357     -0.0201
     36  CD1       13.6690    4.5120    3.3880 C.ar  357  TYR357     -0.0009
     37  CD2       14.4360    6.2290    4.8780 C.ar  357  TYR357     -0.0009
     38  CE1       12.5750    4.2880    4.2030 C.ar  357  TYR357      0.0417
     39  CE2       13.3370    6.0170    5.6880 C.ar  357  TYR357      0.0417
     40  CZ        12.4120    5.0390    5.3430 C.ar  357  TYR357      0.1957
     41  OH        11.3150    4.8240    6.1310 O.3   357  TYR357     -0.2866
     42  N          0.0780    5.1900    6.4750 N.3   386  TRP386     -0.1241
     43  CA         1.4410    5.2460    7.0060 C.3   386  TRP386      0.1605
     44  C          1.5780    4.8160    8.4650 C.2   386  TRP386      0.2264
     45  O          2.3650    3.9320    8.7760 O.2   386  TRP386     -0.2867
     46  CB         2.0080    6.6500    6.8050 C.3   386  TRP386      0.0550
     47  CG         3.4230    6.8850    7.2560 C.ar  386  TRP386      0.0003
     48  CD1        3.8730    7.9550    7.9630 C.ar  386  TRP386      0.0946
     49  CD2        4.5710    6.0650    7.0020 C.ar  386  TRP386      0.0152
     50  NE1        5.2250    7.8550    8.1740 N.ar  386  TRP386     -0.2442
     51  CE2        5.6780    6.7060    7.5890 C.ar  386  TRP386      0.0810
     52  CE3        4.7700    4.8560    6.3390 C.ar  386  TRP386      0.0012
     53  CZ2        6.9600    6.1780    7.5330 C.ar  386  TRP386      0.0191
     54  CZ3        6.0290    4.3370    6.2840 C.ar  386  TRP386      0.0001
     55  CH2        7.1180    4.9970    6.8810 C.ar  386  TRP386      0.0015
     56  N          3.3490    1.3500    9.9150 N.3   390  ILE390     -0.1245
     57  CA         4.4710    1.2640   10.8600 C.3   390  ILE390      0.1561
     58  C          4.1160    0.3770   12.0610 C.2   390  ILE390      0.2260
     59  O          4.9420   -0.3790   12.5740 O.2   390  ILE390     -0.2867
     60  CB         4.8830    2.6610   11.3910 C.3   390  ILE390      0.0252
     61  CG1        5.5510    3.4990   10.3010 C.3   390  ILE390      0.0019
     62  CG2        5.7580    2.5260   12.6200 C.3   390  ILE390      0.0019
     63  CD1        6.8310    2.9200    9.7360 C.3   390  ILE390      0.0001
     64  N         11.3890   -0.7860    3.7320 N.3   403  LEU403     -0.1231
     65  CA        11.4390    0.2730    4.7180 C.3   403  LEU403      0.1693
     66  C         12.8370    0.8580    4.7460 C.2   403  LEU403      0.2593
     67  O         13.5600    0.8060    3.7610 O.2   403  LEU403     -0.2718
     68  CB        11.0400   -0.2330    6.1030 C.3   403  LEU403      0.0284
     69  CG         9.7450    0.3600    6.6550 C.3   403  LEU403      0.0019
     70  CD1        9.1750   -0.4840    7.7800 C.3   403  LEU403      0.0001
     71  CD2        9.9510    1.8000    7.0940 C.3   403  LEU403      0.0001
     72  N         13.2180    1.4180    5.8820 N.am  404  GLY404     -0.1942
     73  CA        14.5190    2.0340    5.9970 C.3   404  GLY404      0.2014
     74  C         14.6360    2.9190    7.2110 C.2   404  GLY404      0.2639
     75  O         13.8050    2.8640    8.1080 O.2   404  GLY404     -0.2714
     76  N         15.6760    3.7380    7.2410 N.am  405  TRP405     -0.1959
     77  CA        15.9420    4.5310    8.4150 C.3   405  TRP405      0.1771
     78  C         16.6750    5.7920    8.0010 C.2   405  TRP405      0.2619
     79  O         17.6430    5.7400    7.2440 O.2   405  TRP405     -0.2715
     80  CB        16.7640    3.7110    9.4000 C.3   405  TRP405      0.0590
     81  CG        16.9310    4.3170   10.7580 C.ar  405  TRP405      0.0006
     82  CD1       18.0320    4.9860   11.2340 C.ar  405  TRP405      0.0946
     83  CD2       15.9880    4.2810   11.8330 C.ar  405  TRP405      0.0152
     84  NE1       17.8240    5.3690   12.5370 N.ar  405  TRP405     -0.2442
     85  CE2       16.5770    4.9570   12.9270 C.ar  405  TRP405      0.0810
     86  CE3       14.7000    3.7570   11.9760 C.ar  405  TRP405      0.0012
     87  CZ2       15.9210    5.1160   14.1480 C.ar  405  TRP405      0.0191
     88  CZ3       14.0480    3.9110   13.1950 C.ar  405  TRP405      0.0001
     89  CH2       14.6640    4.5840   14.2670 C.ar  405  TRP405      0.0015
     90  N         16.1860    6.9260    8.4800 N.am  406  ALA406     -0.1977
     91  CA        16.8870    8.1910    8.3310 C.3   406  ALA406      0.1597
     92  C         17.5140    8.4670    9.6820 C.2   406  ALA406      0.2287
     93  O         16.8170    8.5550   10.6960 O.2   406  ALA406     -0.2864
     94  CB        15.9220    9.3100    7.9580 C.3   406  ALA406      0.0319
     95  N         10.0910   -2.7980   16.9590 N.3   429  LYS429     -0.1245
     96  CA        10.9380   -2.3180   15.8810 C.3   429  LYS429      0.1561
     97  C         11.6680   -3.5080   15.2680 C.2   429  LYS429      0.2260
     98  O         11.3060   -4.6470   15.5250 O.2   429  LYS429     -0.2867
     99  CB        11.9340   -1.2910   16.4110 C.3   429  LYS429      0.0271
    100  CG        11.2880   -0.0130   16.9060 C.3   429  LYS429      0.0035
    101  CD        10.6820    0.7680   15.7560 C.3   429  LYS429      0.0206
    102  CE         9.4700    1.5700   16.1970 C.3   429  LYS429      0.1093
    103  NZ         8.8460    2.3130   15.0730 N.3   429  LYS429     -0.1314
@<TRIPOS>BOND
     1    33    32    2
     2    22    21    2
     3    32    31    1
     4    19    20    1
     5    31    30    1
     6    31    34    1
     7    21    20    1
     8    20    23    1
     9    34    35    1
    10    23    24    1
    11    36    35   ar
    12    36    38   ar
    13    24    25    1
    14    35    37   ar
    15    64    65    1
    16    67    66    2
    17    38    40   ar
    18    25    26    1
    19    65    66    1
    20    65    68    1
    21    66    72   am
    22    37    39   ar
    23    28    27    1
    24    40    39   ar
    25    40    41    1
    26    26    27    2
    27    72    73    1
    28    27    29    1
    29    73    74    1
    30    68    69    1
    31    54    52   ar
    32    54    55   ar
    33    52    49   ar
    34    42    43    1
    35    69    71    1
    36    69    70    1
    37    46    43    1
    38    46    47    1
    39    55    53   ar
    40    49    47   ar
    41    49    51   ar
    42    43    44    1
    43    74    76   am
    44    74    75    2
    45    76    77    1
    46    79    78    2
    47    47    48   ar
    48    53    51   ar
    49    51    50   ar
    50    94    91    1
    51    48    50   ar
    52    78    77    1
    53    78    90   am
    54    91    90    1
    55    91    92    1
    56    77    80    1
    57    44    45    2
    58    80    81    1
    59    92    93    2
    60    63    61    1
    61    56    57    1
    62    61    60    1
    63    17    16    1
    64    17    18    2
    65    81    82   ar
    66    81    83   ar
    67    57    60    1
    68    57    58    1
    69    16    15    1
    70    82    84   ar
    71    14    12    1
    72    60    62    1
    73    15    10   am
    74    83    86   ar
    75    83    85   ar
    76    86    88   ar
    77    58    59    2
    78    10     9    1
    79    10    11    2
    80    84    85   ar
    81    12     9    1
    82    12    13    1
    83     9     8    1
    84    85    87   ar
    85    88    89   ar
    86     4     3    2
    87    87    89   ar
    88     8     3   am
    89     3     2    1
    90   103   102    1
    91    97    98    2
    92    97    96    1
    93     6     5    1
    94   101   102    1
    95   101   100    1
    96     5     2    1
    97     5     7    1
    98     2     1    1
    99    96    99    1
   100    96    95    1
   101    99   100    1
