@<TRIPOS>MOLECULE
tmp/4qfoA01.pdb
 115 113 0 0 0
SMALL
GASTEIGER

@<TRIPOS>ATOM
      1  N          9.4380   -3.0410   16.7730 N.3    20  THR20      -0.1203
      2  CA        10.2950   -3.9740   16.0440 C.3    20  THR20       0.1994
      3  C         10.4310   -3.5530   14.5890 C.2    20  THR20       0.2619
      4  O         10.9650   -4.2940   13.7740 O.2    20  THR20      -0.2717
      5  CB         9.7910   -5.4360   16.1050 C.3    20  THR20       0.1784
      6  OG1        8.4420   -5.5190   15.6120 O.3    20  THR20      -0.2211
      7  CG2        9.8600   -5.9570   17.5360 C.3    20  THR20       0.0376
      8  N          9.9760   -2.3420   14.2780 N.am   21  THR21      -0.1938
      9  CA         9.9460   -1.8600   12.8990 C.3    21  THR21       0.2028
     10  C         11.2880   -1.2790   12.4810 C.2    21  THR21       0.2642
     11  O         11.7510   -0.2930   13.0570 O.2    21  THR21      -0.2714
     12  CB         8.8330   -0.7980   12.7320 C.3    21  THR21       0.1808
     13  OG1        7.5670   -1.4120   13.0010 O.3    21  THR21      -0.2208
     14  CG2        8.8210   -0.2020   11.3250 C.3    21  THR21       0.0379
     15  N         11.9000   -1.8860   11.4650 N.am   22  GLY22      -0.1954
     16  CA        13.2510   -1.5420   11.0560 C.3    22  GLY22       0.1869
     17  C         13.4240   -0.1150   10.5620 C.2    22  GLY22       0.2309
     18  O         14.5110    0.4680   10.6770 O.2    22  GLY22      -0.2863
     19  N          7.8880  -13.8880    3.6770 N.3   266  TYR266     -0.1241
     20  CA         6.9200  -14.9890    3.7060 C.3   266  TYR266      0.1605
     21  C          5.4780  -14.5490    3.4000 C.2   266  TYR266      0.2264
     22  O          5.1740  -13.3500    3.2850 O.2   266  TYR266     -0.2867
     23  CB         6.9790  -15.7190    5.0680 C.3   266  TYR266      0.0534
     24  CG         6.7840  -14.7910    6.2440 C.ar  266  TYR266     -0.0201
     25  CD1        5.5540  -14.1810    6.4640 C.ar  266  TYR266     -0.0009
     26  CD2        7.8240  -14.5020    7.1210 C.ar  266  TYR266     -0.0009
     27  CE1        5.3630  -13.3180    7.5150 C.ar  266  TYR266      0.0417
     28  CE2        7.6370  -13.6250    8.1880 C.ar  266  TYR266      0.0417
     29  CZ         6.4000  -13.0330    8.3680 C.ar  266  TYR266      0.1957
     30  OH         6.1620  -12.1650    9.4110 O.3   266  TYR266     -0.2866
     31  N         11.4350   -3.9400    1.4830 N.3   355  ARG355     -0.1245
     32  CA        12.2310   -4.4640    2.6070 C.3   355  ARG355      0.1563
     33  C         13.3400   -5.3860    2.0850 C.2   355  ARG355      0.2260
     34  O         13.3160   -5.8080    0.9370 O.2   355  ARG355     -0.2867
     35  CB        11.3850   -5.2370    3.6350 C.3   355  ARG355      0.0307
     36  CG         9.9680   -4.7140    3.9120 C.3   355  ARG355      0.0489
     37  CD         9.9550   -3.2970    4.4690 C.3   355  ARG355      0.2205
     38  NE        10.6710   -3.1770    5.7350 N.pl3 355  ARG355     -0.0865
     39  CZ        11.5690   -2.2270    5.9970 C.cat 355  ARG355      0.5346
     40  NH1       11.8760   -1.3160    5.0650 N.pl3 355  ARG355      0.1354
     41  NH2       12.1570   -2.1830    7.1910 N.pl3 355  ARG355      0.1354
     42  N         13.8120   -8.3920    2.7990 N.3   357  TYR357     -0.1241
     43  CA        13.2530   -9.7030    2.5230 C.3   357  TYR357      0.1605
     44  C         12.2820   -9.7020    1.3550 C.2   357  TYR357      0.2264
     45  O         11.9070  -10.7630    0.8600 O.2   357  TYR357     -0.2867
     46  CB        12.6040  -10.2990    3.7790 C.3   357  TYR357      0.0534
     47  CG        11.7220   -9.3510    4.5660 C.ar  357  TYR357     -0.0201
     48  CD1       10.3890   -9.1630    4.2230 C.ar  357  TYR357     -0.0009
     49  CD2       12.2150   -8.6700    5.6750 C.ar  357  TYR357     -0.0009
     50  CE1        9.5750   -8.3190    4.9520 C.ar  357  TYR357      0.0417
     51  CE2       11.4140   -7.8180    6.4110 C.ar  357  TYR357      0.0417
     52  CZ        10.0890   -7.6450    6.0370 C.ar  357  TYR357      0.1957
     53  OH         9.2740   -6.8040    6.7590 O.3   357  TYR357     -0.2866
     54  N          3.0080    2.1910    5.8440 N.3   386  TRP386     -0.1241
     55  CA         3.8310    1.1790    6.5110 C.3   386  TRP386      0.1605
     56  C          3.5210    0.9690    7.9910 C.2   386  TRP386      0.2264
     57  O          3.1880   -0.1410    8.3950 O.2   386  TRP386     -0.2867
     58  CB         5.3090    1.5220    6.3120 C.3   386  TRP386      0.0550
     59  CG         6.3470    0.5330    6.8210 C.ar  386  TRP386      0.0003
     60  CD1        7.5680    0.8520    7.3520 C.ar  386  TRP386      0.0946
     61  CD2        6.2840   -0.9060    6.8050 C.ar  386  TRP386      0.0152
     62  NE1        8.2620   -0.2900    7.6660 N.ar  386  TRP386     -0.2442
     63  CE2        7.4970   -1.3810    7.3450 C.ar  386  TRP386      0.0810
     64  CE3        5.3230   -1.8300    6.4020 C.ar  386  TRP386      0.0012
     65  CZ2        7.7740   -2.7380    7.4890 C.ar  386  TRP386      0.0191
     66  CZ3        5.5960   -3.1790    6.5390 C.ar  386  TRP386      0.0001
     67  CH2        6.8170   -3.6210    7.0750 C.ar  386  TRP386      0.0015
     68  N          1.4970   -2.1990    9.6620 N.3   390  ILE390     -0.1245
     69  CA         1.9800   -3.0520   10.7400 C.3   390  ILE390      0.1561
     70  C          0.9860   -3.1270   11.9140 C.2   390  ILE390      0.2260
     71  O          0.6900   -4.2050   12.4440 O.2   390  ILE390     -0.2867
     72  CB         3.3620   -2.5670   11.2140 C.3   390  ILE390      0.0252
     73  CG1        4.4240   -2.9710   10.1840 C.3   390  ILE390      0.0019
     74  CG2        3.6830   -3.1040   12.5920 C.3   390  ILE390      0.0019
     75  CD1        5.7860   -2.3650   10.4480 C.3   390  ILE390      0.0001
     76  N          4.7090  -10.5320    4.6230 N.3   403  LEU403     -0.1231
     77  CA         5.5990   -9.8750    5.5720 C.3   403  LEU403      0.1693
     78  C          6.9490  -10.5780    5.6230 C.2   403  LEU403      0.2593
     79  O          7.3100  -11.3080    4.7020 O.2   403  LEU403     -0.2718
     80  CB         4.9670   -9.8280    6.9630 C.3   403  LEU403      0.0284
     81  CG         4.5900   -8.4380    7.4780 C.3   403  LEU403      0.0019
     82  CD1        4.0420   -8.5190    8.8930 C.3   403  LEU403      0.0001
     83  CD2        5.7830   -7.4960    7.4150 C.3   403  LEU403      0.0001
     84  N          7.6960  -10.3550    6.6980 N.am  404  GLY404     -0.1942
     85  CA         9.0050  -10.9630    6.8370 C.3   404  GLY404      0.2014
     86  C          9.7790  -10.5090    8.0570 C.2   404  GLY404      0.2639
     87  O          9.2270   -9.8950    8.9690 O.2   404  GLY404     -0.2714
     88  N         11.0700  -10.8180    8.0670 N.am  405  TRP405     -0.1959
     89  CA        11.9330  -10.5090    9.1930 C.3   405  TRP405      0.1771
     90  C         13.3620  -10.3560    8.6940 C.2   405  TRP405      0.2619
     91  O         13.8640  -11.2190    7.9830 O.2   405  TRP405     -0.2715
     92  CB        11.8340  -11.6230   10.2330 C.3   405  TRP405      0.0590
     93  CG        12.5130  -11.3690   11.5580 C.ar  405  TRP405      0.0006
     94  CD1       13.6820  -11.9220   11.9900 C.ar  405  TRP405      0.0946
     95  CD2       12.0570  -10.5210   12.6230 C.ar  405  TRP405      0.0152
     96  NE1       13.9810  -11.4800   13.2520 N.ar  405  TRP405     -0.2442
     97  CE2       13.0050  -10.6160   13.6650 C.ar  405  TRP405      0.0810
     98  CE3       10.9490   -9.6820   12.7920 C.ar  405  TRP405      0.0012
     99  CZ2       12.8790   -9.9090   14.8620 C.ar  405  TRP405      0.0191
    100  CZ3       10.8140   -8.9980   13.9890 C.ar  405  TRP405      0.0001
    101  CH2       11.7760   -9.1080   15.0060 C.ar  405  TRP405      0.0015
    102  N         13.9850   -9.2260    9.0100 N.am  406  ALA406     -0.1977
    103  CA        15.4270   -9.0620    8.8370 C.3   406  ALA406      0.1597
    104  C         16.0150   -9.2850   10.2170 C.2   406  ALA406      0.2287
    105  O         15.7330   -8.5280   11.1400 O.2   406  ALA406     -0.2864
    106  CB        15.7580   -7.6860    8.3450 C.3   406  ALA406      0.0319
    107  N          2.6310   -9.4850   17.0280 N.3   429  LYS429     -0.1245
    108  CA         3.6920   -9.5050   16.0220 C.3   429  LYS429      0.1561
    109  C          3.8290  -10.8610   15.3270 C.2   429  LYS429      0.2260
    110  O          4.8010  -11.1160   14.6070 O.2   429  LYS429     -0.2867
    111  CB         5.0360   -9.0960   16.6450 C.3   429  LYS429      0.0271
    112  CG         5.0380   -7.6980   17.2240 C.3   429  LYS429      0.0035
    113  CD         4.7870   -6.6020   16.1770 C.3   429  LYS429      0.0206
    114  CE         4.6480   -5.2470   16.8990 C.3   429  LYS429      0.1093
    115  NZ         4.3940   -4.0730   16.0040 N.3   429  LYS429     -0.1314
@<TRIPOS>BOND
     1    45    44    2
     2    34    33    2
     3    44    43    1
     4    31    32    1
     5    33    32    1
     6    43    42    1
     7    43    46    1
     8    32    35    1
     9    22    21    2
    10    21    20    1
    11    35    36    1
    12    19    20    1
    13    20    23    1
    14    46    47    1
    15    36    37    1
    16    48    47   ar
    17    48    50   ar
    18    37    38    1
    19    47    49   ar
    20    76    77    1
    21    79    78    2
    22    50    52   ar
    23    40    39    1
    24    23    24    1
    25    77    78    1
    26    77    80    1
    27    78    84   am
    28    49    51   ar
    29    38    39    2
    30    54    55    1
    31    39    41    1
    32    52    51   ar
    33    52    53    1
    34    24    25   ar
    35    24    26   ar
    36    58    55    1
    37    58    59    1
    38    64    66   ar
    39    64    61   ar
    40    25    27   ar
    41    55    56    1
    42    66    67   ar
    43    84    85    1
    44    61    59   ar
    45    61    63   ar
    46    59    60   ar
    47    85    86    1
    48    80    81    1
    49    67    65   ar
    50    26    28   ar
    51    63    65   ar
    52    63    62   ar
    53    60    62   ar
    54    83    81    1
    55    81    82    1
    56    27    29   ar
    57    91    90    2
    58    56    57    2
    59    86    88   am
    60    86    87    2
    61    88    89    1
    62    28    29   ar
    63   106   103    1
    64    29    30    1
    65    90   102   am
    66    90    89    1
    67   103   102    1
    68   103   104    1
    69    89    92    1
    70    68    69    1
    71    73    75    1
    72    73    72    1
    73   104   105    2
    74    92    93    1
    75    17    18    2
    76    17    16    1
    77    69    72    1
    78    69    70    1
    79    16    15    1
    80    72    74    1
    81    14    12    1
    82    15    10   am
    83    93    94   ar
    84    93    95   ar
    85    70    71    2
    86    94    96   ar
    87    10     9    1
    88    10    11    2
    89    95    98   ar
    90    95    97   ar
    91    12     9    1
    92    12    13    1
    93    98   100   ar
    94     9     8    1
    95    96    97   ar
    96    97    99   ar
    97     4     3    2
    98   100   101   ar
    99     8     3   am
   100     3     2    1
   101   110   109    2
   102    99   101   ar
   103   109   108    1
   104     6     5    1
   105   115   114    1
   106   108   111    1
   107   108   107    1
   108     2     5    1
   109     2     1    1
   110     5     7    1
   111   113   114    1
   112   113   112    1
   113   111   112    1
