@<TRIPOS>MOLECULE
tmp/4qfoA00.pdb
 140 137 0 0 0
SMALL
GASTEIGER

@<TRIPOS>ATOM
      1  N          9.4380   -3.0410   16.7730 N.3    20  THR20      -0.1203
      2  CA        10.2950   -3.9740   16.0440 C.3    20  THR20       0.1994
      3  C         10.4310   -3.5530   14.5890 C.2    20  THR20       0.2619
      4  O         10.9650   -4.2940   13.7740 O.2    20  THR20      -0.2717
      5  CB         9.7910   -5.4360   16.1050 C.3    20  THR20       0.1784
      6  OG1        8.4420   -5.5190   15.6120 O.3    20  THR20      -0.2211
      7  CG2        9.8600   -5.9570   17.5360 C.3    20  THR20       0.0376
      8  N          9.9760   -2.3420   14.2780 N.am   21  THR21      -0.1938
      9  CA         9.9460   -1.8600   12.8990 C.3    21  THR21       0.2028
     10  C         11.2880   -1.2790   12.4810 C.2    21  THR21       0.2642
     11  O         11.7510   -0.2930   13.0570 O.2    21  THR21      -0.2714
     12  CB         8.8330   -0.7980   12.7320 C.3    21  THR21       0.1808
     13  OG1        7.5670   -1.4120   13.0010 O.3    21  THR21      -0.2208
     14  CG2        8.8210   -0.2020   11.3250 C.3    21  THR21       0.0379
     15  N         11.9000   -1.8860   11.4650 N.am   22  GLY22      -0.1954
     16  CA        13.2510   -1.5420   11.0560 C.3    22  GLY22       0.1869
     17  C         13.4240   -0.1150   10.5620 C.2    22  GLY22       0.2309
     18  O         14.5110    0.4680   10.6770 O.2    22  GLY22      -0.2863
     19  N         14.0930    1.7690   13.7170 N.3    25  ILE25      -0.1231
     20  CA        15.3800    1.3840   14.2760 C.3    25  ILE25       0.1692
     21  C         16.5480    1.9490   13.4710 C.2    25  ILE25       0.2592
     22  O         17.5600    2.3910   14.0330 O.2    25  ILE25      -0.2718
     23  CB        15.5220   -0.1490   14.3160 C.3    25  ILE25       0.0266
     24  CG1       14.3100   -0.7490   15.0220 C.3    25  ILE25       0.0019
     25  CG2       16.7990   -0.5390   15.0430 C.3    25  ILE25       0.0020
     26  CD1       14.0580   -0.1060   16.3920 C.3    25  ILE25       0.0001
     27  N         16.4050    1.9170   12.1520 N.am   26  ASP26      -0.1974
     28  CA        17.4370    2.4160   11.2690 C.3    26  ASP26       0.1709
     29  C         17.7330    3.8880   11.5270 C.2    26  ASP26       0.2293
     30  O         18.8710    4.3220   11.4200 O.2    26  ASP26      -0.2864
     31  CB        17.0370    2.2050    9.8130 C.3    26  ASP26       0.1436
     32  CG        17.4540    0.8500    9.3000 C.2    26  ASP26       0.3671
     33  OD1       18.2110    0.1630   10.0170 O.co2  26  ASP26      -0.2456
     34  OD2       17.0400    0.4750    8.1830 O.co2  26  ASP26      -0.2456
     35  N         19.5280   -4.1220   18.6030 N.3   153  ASP153     -0.1225
     36  CA        19.3470   -2.6790   18.5420 C.3   153  ASP153      0.1805
     37  C         18.2390   -2.2300   19.4870 C.2   153  ASP153      0.2597
     38  O         18.0750   -1.0240   19.7280 O.2   153  ASP153     -0.2718
     39  CB        18.9970   -2.2360   17.1110 C.3   153  ASP153      0.1424
     40  CG        20.0710   -2.6080   16.1000 C.2   153  ASP153      0.3668
     41  OD1       21.2360   -2.1980   16.2860 O.co2 153  ASP153     -0.2456
     42  OD2       19.7500   -3.3210   15.1240 O.co2 153  ASP153     -0.2456
     43  N         17.4750   -3.1910   20.0100 N.am  154  PHE154     -0.1976
     44  CA        16.3840   -2.8690   20.9260 C.3   154  PHE154      0.1639
     45  C         16.9060   -2.6180   22.3330 C.2   154  PHE154      0.2290
     46  O         16.2780   -1.9100   23.1240 O.2   154  PHE154     -0.2864
     47  CB        15.3190   -3.9760   20.9240 C.3   154  PHE154      0.0560
     48  CG        14.9020   -4.4050   19.5390 C.ar  154  PHE154     -0.0200
     49  CD1       14.2090   -3.5440   18.7170 C.ar  154  PHE154     -0.0042
     50  CD2       15.2180   -5.6630   19.0610 C.ar  154  PHE154     -0.0042
     51  CE1       13.8400   -3.9270   17.4380 C.ar  154  PHE154     -0.0003
     52  CE2       14.8430   -6.0550   17.7740 C.ar  154  PHE154     -0.0003
     53  CZ        14.1520   -5.1870   16.9730 C.ar  154  PHE154     -0.0000
     54  N         11.4350   -3.9400    1.4830 N.3   355  ARG355     -0.1231
     55  CA        12.2310   -4.4640    2.6070 C.3   355  ARG355      0.1694
     56  C         13.3400   -5.3860    2.0850 C.2   355  ARG355      0.2592
     57  O         13.3160   -5.8080    0.9370 O.2   355  ARG355     -0.2718
     58  CB        11.3850   -5.2370    3.6350 C.3   355  ARG355      0.0321
     59  CG         9.9680   -4.7140    3.9120 C.3   355  ARG355      0.0489
     60  CD         9.9550   -3.2970    4.4690 C.3   355  ARG355      0.2205
     61  NE        10.6710   -3.1770    5.7350 N.pl3 355  ARG355     -0.0865
     62  CZ        11.5690   -2.2270    5.9970 C.cat 355  ARG355      0.5346
     63  NH1       11.8760   -1.3160    5.0650 N.pl3 355  ARG355      0.1354
     64  NH2       12.1570   -2.1830    7.1910 N.pl3 355  ARG355      0.1354
     65  N         14.3120   -5.6990    2.9320 N.am  356  ILE356     -0.1966
     66  CA        15.3860   -6.5800    2.5140 C.3   356  ILE356      0.1727
     67  C         14.7910   -7.9010    2.0510 C.2   356  ILE356      0.2616
     68  O         15.1750   -8.4430    1.0130 O.2   356  ILE356     -0.2715
     69  CB        16.3950   -6.8070    3.6470 C.3   356  ILE356      0.0290
     70  CG1       17.0570   -5.4820    4.0180 C.3   356  ILE356      0.0022
     71  CG2       17.4600   -7.8330    3.2330 C.3   356  ILE356      0.0023
     72  CD1       17.6840   -5.4980    5.4290 C.3   356  ILE356      0.0001
     73  N         13.8120   -8.3920    2.7990 N.am  357  TYR357     -0.1974
     74  CA        13.2530   -9.7030    2.5230 C.3   357  TYR357      0.1639
     75  C         12.2820   -9.7020    1.3550 C.2   357  TYR357      0.2290
     76  O         11.9070  -10.7630    0.8600 O.2   357  TYR357     -0.2864
     77  CB        12.6040  -10.2990    3.7790 C.3   357  TYR357      0.0560
     78  CG        11.7220   -9.3510    4.5660 C.ar  357  TYR357     -0.0198
     79  CD1       10.3890   -9.1630    4.2230 C.ar  357  TYR357     -0.0009
     80  CD2       12.2150   -8.6700    5.6750 C.ar  357  TYR357     -0.0009
     81  CE1        9.5750   -8.3190    4.9520 C.ar  357  TYR357      0.0417
     82  CE2       11.4140   -7.8180    6.4110 C.ar  357  TYR357      0.0417
     83  CZ        10.0890   -7.6450    6.0370 C.ar  357  TYR357      0.1957
     84  OH         9.2740   -6.8040    6.7590 O.3   357  TYR357     -0.2866
     85  N          7.6960  -10.3550    6.6980 N.3   404  GLY404     -0.1210
     86  CA         9.0050  -10.9630    6.8370 C.3   404  GLY404      0.1956
     87  C          9.7790  -10.5090    8.0570 C.2   404  GLY404      0.2612
     88  O          9.2270   -9.8950    8.9690 O.2   404  GLY404     -0.2717
     89  N         11.0700  -10.8180    8.0670 N.am  405  TRP405     -0.1962
     90  CA        11.9330  -10.5090    9.1930 C.3   405  TRP405      0.1771
     91  C         13.3620  -10.3560    8.6940 C.2   405  TRP405      0.2619
     92  O         13.8640  -11.2190    7.9830 O.2   405  TRP405     -0.2715
     93  CB        11.8340  -11.6230   10.2330 C.3   405  TRP405      0.0590
     94  CG        12.5130  -11.3690   11.5580 C.ar  405  TRP405      0.0006
     95  CD1       13.6820  -11.9220   11.9900 C.ar  405  TRP405      0.0946
     96  CD2       12.0570  -10.5210   12.6230 C.ar  405  TRP405      0.0152
     97  NE1       13.9810  -11.4800   13.2520 N.ar  405  TRP405     -0.2442
     98  CE2       13.0050  -10.6160   13.6650 C.ar  405  TRP405      0.0810
     99  CE3       10.9490   -9.6820   12.7920 C.ar  405  TRP405      0.0012
    100  CZ2       12.8790   -9.9090   14.8620 C.ar  405  TRP405      0.0191
    101  CZ3       10.8140   -8.9980   13.9890 C.ar  405  TRP405      0.0001
    102  CH2       11.7760   -9.1080   15.0060 C.ar  405  TRP405      0.0015
    103  N         13.9850   -9.2260    9.0100 N.am  406  ALA406     -0.1963
    104  CA        15.4270   -9.0620    8.8370 C.3   406  ALA406      0.1728
    105  C         16.0150   -9.2850   10.2170 C.2   406  ALA406      0.2616
    106  O         15.7330   -8.5280   11.1400 O.2   406  ALA406     -0.2715
    107  CB        15.7580   -7.6860    8.3450 C.3   406  ALA406      0.0334
    108  N         16.7960  -10.3500   10.3610 N.am  407  ALA407     -0.1963
    109  CA        17.2580  -10.7840   11.6630 C.3   407  ALA407      0.1728
    110  C         18.0490   -9.6860   12.3920 C.2   407  ALA407      0.2616
    111  O         18.7450   -8.8890   11.7640 O.2   407  ALA407     -0.2715
    112  CB        18.0940  -12.0580   11.5230 C.3   407  ALA407      0.0334
    113  N         17.9220   -9.6690   13.7200 N.am  408  ASP408     -0.1971
    114  CA        18.5950   -8.7080   14.5790 C.3   408  ASP408      0.1709
    115  C         19.9650   -9.2270   15.0260 C.2   408  ASP408      0.2293
    116  O         20.8590   -8.4580   15.3430 O.2   408  ASP408     -0.2864
    117  CB        17.7240   -8.4110   15.8010 C.3   408  ASP408      0.1436
    118  CG        16.2650   -8.1430   15.4300 C.2   408  ASP408      0.3671
    119  OD1       15.9670   -7.0670   14.8500 O.co2 408  ASP408     -0.2456
    120  OD2       15.4160   -9.0160   15.7180 O.co2 408  ASP408     -0.2456
    121  N         20.8260   -7.4510    0.8510 N.3   480  ARG480     -0.1245
    122  CA        20.6870   -6.1490    1.4420 C.3   480  ARG480      0.1563
    123  C         21.3140   -5.1050    0.5320 C.2   480  ARG480      0.2260
    124  O         22.5400   -5.0450    0.3870 O.2   480  ARG480     -0.2867
    125  CB        21.3220   -6.1370    2.8280 C.3   480  ARG480      0.0307
    126  CG        21.0280   -4.8910    3.6370 C.3   480  ARG480      0.0489
    127  CD        21.6150   -5.0250    5.0320 C.3   480  ARG480      0.2205
    128  NE        20.9950   -4.0910    5.9600 N.pl3 480  ARG480     -0.0865
    129  CZ        21.2050   -4.0920    7.2710 C.cat 480  ARG480      0.5346
    130  NH1       22.0390   -4.9700    7.8190 N.pl3 480  ARG480      0.1354
    131  NH2       20.5790   -3.2050    8.0270 N.pl3 480  ARG480      0.1354
    132  N         21.0170   -6.9830   11.8530 N.3   497  GLY497     -0.1210
    133  CA        20.9770   -5.7100   12.5580 C.3   497  GLY497      0.1956
    134  C         20.7080   -4.4680   11.7310 C.2   497  GLY497      0.2611
    135  O         20.7380   -4.4850   10.5100 O.2   497  GLY497     -0.2717
    136  N         20.4570   -3.3700   12.4220 N.am  498  ALA498     -0.1979
    137  CA        20.0800   -2.1200   11.7810 C.3   498  ALA498      0.1597
    138  C         21.2710   -1.3740   11.1720 C.2   498  ALA498      0.2287
    139  O         22.4140   -1.5790   11.5590 O.2   498  ALA498     -0.2864
    140  CB        19.3550   -1.2200   12.7960 C.3   498  ALA498      0.0319
@<TRIPOS>BOND
     1   124   123    2
     2   123   122    1
     3   121   122    1
     4    76    75    2
     5    57    56    2
     6    68    67    2
     7    75    74    1
     8   122   125    1
     9    54    55    1
    10    67    66    1
    11    67    73   am
    12    56    55    1
    13    56    65   am
    14    66    65    1
    15    66    69    1
    16    74    73    1
    17    74    77    1
    18    55    58    1
    19   125   126    1
    20    71    69    1
    21    58    59    1
    22   126   127    1
    23    69    70    1
    24    77    78    1
    25    59    60    1
    26    70    72    1
    27    79    78   ar
    28    79    81   ar
    29    60    61    1
    30    78    80   ar
    31    81    83   ar
    32   127   128    1
    33    63    62    1
    34    80    82   ar
    35    61    62    2
    36   128   129    2
    37    62    64    1
    38    83    82   ar
    39    83    84    1
    40    85    86    1
    41    86    87    1
    42   129   130    1
    43   129   131    1
    44    92    91    2
    45    87    89   am
    46    87    88    2
    47    89    90    1
    48    34    32   ar
    49   107   104    1
    50    91   103   am
    51    91    90    1
    52   104   103    1
    53   104   105    1
    54    90    93    1
    55    32    31    1
    56    32    33   ar
    57    31    28    1
    58   105   108   am
    59   105   106    2
    60    93    94    1
    61   108   109    1
    62   135   134    2
    63    17    18    2
    64    17    16    1
    65    16    15    1
    66   138   139    2
    67   138   137    1
    68    28    29    1
    69    28    27    1
    70    14    12    1
    71    30    29    2
    72    15    10   am
    73   112   109    1
    74    94    95   ar
    75    94    96   ar
    76   109   110    1
    77   134   136   am
    78   134   133    1
    79   111   110    2
    80   137   136    1
    81   137   140    1
    82   132   133    1
    83    95    97   ar
    84    27    21   am
    85   110   113   am
    86    10     9    1
    87    10    11    2
    88    96    99   ar
    89    96    98   ar
    90    12     9    1
    91    12    13    1
    92    99   101   ar
    93     9     8    1
    94    97    98   ar
    95    21    22    2
    96    21    20    1
    97    98   100   ar
    98    19    20    1
    99   113   114    1
   100     4     3    2
   101   101   102   ar
   102    20    23    1
   103     8     3   am
   104    23    24    1
   105    23    25    1
   106   114   115    1
   107   114   117    1
   108     3     2    1
   109   119   118   ar
   110   100   102   ar
   111    24    26    1
   112   115   116    2
   113    42    40   ar
   114   118   120   ar
   115   118   117    1
   116     6     5    1
   117     2     5    1
   118     2     1    1
   119    40    41   ar
   120    40    39    1
   121     5     7    1
   122    53    51   ar
   123    53    52   ar
   124    39    36    1
   125    51    49   ar
   126    52    50   ar
   127    36    35    1
   128    36    37    1
   129    49    48   ar
   130    50    48   ar
   131    37    38    2
   132    37    43   am
   133    48    47    1
   134    43    44    1
   135    47    44    1
   136    44    45    1
   137    45    46    2
