@<TRIPOS>MOLECULE
tmp/4qfpA01.pdb
 123 120 0 0 0
SMALL
GASTEIGER

@<TRIPOS>ATOM
      1  N         10.8970    3.2080  -16.0490 N.3    20  THR20      -0.1203
      2  CA        11.6260    4.1030  -15.1710 C.3    20  THR20       0.1994
      3  C         11.6750    3.5610  -13.7480 C.2    20  THR20       0.2619
      4  O         12.0470    4.2680  -12.8310 O.2    20  THR20      -0.2717
      5  CB        11.0480    5.5290  -15.1910 C.3    20  THR20       0.1784
      6  OG1        9.6780    5.5100  -14.7740 O.3    20  THR20      -0.2211
      7  CG2       11.1440    6.1110  -16.5870 C.3    20  THR20       0.0376
      8  N         11.2980    2.2980  -13.5760 N.am   21  THR21      -0.1938
      9  CA        11.2390    1.6980  -12.2510 C.3    21  THR21       0.2028
     10  C         12.6080    1.1860  -11.8340 C.2    21  THR21       0.2642
     11  O         13.1840    0.3120  -12.4920 O.2    21  THR21      -0.2714
     12  CB        10.2500    0.5300  -12.1960 C.3    21  THR21       0.1808
     13  OG1        8.9790    0.9450  -12.7190 O.3    21  THR21      -0.2208
     14  CG2       10.0780    0.0710  -10.7500 C.3    21  THR21       0.0379
     15  N         13.1220    1.7170  -10.7300 N.am   22  GLY22      -0.1954
     16  CA        14.4810    1.4120  -10.3140 C.3    22  GLY22       0.1869
     17  C         14.7100   -0.0680  -10.1000 C.2    22  GLY22       0.2309
     18  O         15.8290   -0.5610  -10.2750 O.2    22  GLY22      -0.2863
     19  N          8.0500   12.2680   -1.7940 N.3   266  TYR266     -0.1241
     20  CA         7.0350   13.3150   -1.7690 C.3   266  TYR266      0.1605
     21  C          5.6310   12.7790   -1.6200 C.2   266  TYR266      0.2264
     22  O          5.3800   11.5650   -1.7140 O.2   266  TYR266     -0.2867
     23  CB         7.1250   14.1680   -3.0410 C.3   266  TYR266      0.0534
     24  CG         7.0010   13.3740   -4.3250 C.ar  266  TYR266     -0.0201
     25  CD1        5.7780   12.8280   -4.7090 C.ar  266  TYR266     -0.0009
     26  CD2        8.0950   13.1730   -5.1580 C.ar  266  TYR266     -0.0009
     27  CE1        5.6550   12.1020   -5.8810 C.ar  266  TYR266      0.0417
     28  CE2        7.9730   12.4520   -6.3420 C.ar  266  TYR266      0.0417
     29  CZ         6.7500   11.9120   -6.6880 C.ar  266  TYR266      0.1957
     30  OH         6.6100   11.1930   -7.8580 O.3   266  TYR266     -0.2866
     31  N         12.0730    2.1110   -0.6910 N.3   355  ARG355     -0.1245
     32  CA        12.7810    2.8460   -1.7400 C.3   355  ARG355      0.1563
     33  C         13.7890    3.7630   -1.0670 C.2   355  ARG355      0.2260
     34  O         13.6420    4.0980    0.1080 O.2   355  ARG355     -0.2867
     35  CB        11.8410    3.7220   -2.5740 C.3   355  ARG355      0.0307
     36  CG        10.5410    3.0640   -3.0370 C.3   355  ARG355      0.0489
     37  CD        10.8040    1.7780   -3.7910 C.3   355  ARG355      0.2205
     38  NE        11.4310    1.9770   -5.0960 N.pl3 355  ARG355     -0.0865
     39  CZ        12.3960    1.1970   -5.5730 C.cat 355  ARG355      0.5346
     40  NH1       12.8620    0.1940   -4.8340 N.pl3 355  ARG355      0.1354
     41  NH2       12.9060    1.4210   -6.7790 N.pl3 355  ARG355      0.1354
     42  N         14.1340    6.7900   -1.2340 N.3   357  TYR357     -0.1241
     43  CA        13.5110    8.0380   -0.8220 C.3   357  TYR357      0.1605
     44  C         12.3490    7.8520    0.1640 C.2   357  TYR357      0.2264
     45  O         11.7890    8.8250    0.6650 O.2   357  TYR357     -0.2867
     46  CB        13.0330    8.7810   -2.0720 C.3   357  TYR357      0.0534
     47  CG        12.2030    7.9310   -3.0130 C.ar  357  TYR357     -0.0201
     48  CD1       10.8850    7.5950   -2.6990 C.ar  357  TYR357     -0.0009
     49  CD2       12.7280    7.4720   -4.2170 C.ar  357  TYR357     -0.0009
     50  CE1       10.1130    6.8180   -3.5610 C.ar  357  TYR357      0.0417
     51  CE2       11.9640    6.6970   -5.0890 C.ar  357  TYR357      0.0417
     52  CZ        10.6610    6.3670   -4.7520 C.ar  357  TYR357      0.1957
     53  OH         9.8970    5.5980   -5.6070 O.3   357  TYR357     -0.2866
     54  N          4.2790   -3.9530   -6.3380 N.3   386  TRP386     -0.1241
     55  CA         5.0210   -2.7650   -6.7830 C.3   386  TRP386      0.1605
     56  C          4.8410   -2.3930   -8.2570 C.2   386  TRP386      0.2264
     57  O          4.5380   -1.2300   -8.5830 O.2   386  TRP386     -0.2867
     58  CB         6.4970   -2.9350   -6.4180 C.3   386  TRP386      0.0550
     59  CG         7.4620   -1.8450   -6.8390 C.ar  386  TRP386      0.0003
     60  CD1        8.6310   -2.0320   -7.5180 C.ar  386  TRP386      0.0946
     61  CD2        7.3850   -0.4310   -6.5670 C.ar  386  TRP386      0.0152
     62  NE1        9.2720   -0.8410   -7.7030 N.ar  386  TRP386     -0.2442
     63  CE2        8.5370    0.1600   -7.1300 C.ar  386  TRP386      0.0810
     64  CE3        6.4500    0.3910   -5.9270 C.ar  386  TRP386      0.0012
     65  CZ2        8.7810    1.5370   -7.0730 C.ar  386  TRP386      0.0191
     66  CZ3        6.6990    1.7590   -5.8600 C.ar  386  TRP386      0.0001
     67  CH2        7.8550    2.3190   -6.4320 C.ar  386  TRP386      0.0015
     68  N          2.8290    0.9110   -9.7490 N.3   390  ILE390     -0.1245
     69  CA         3.3340    1.8850  -10.7090 C.3   390  ILE390      0.1561
     70  C          2.3800    2.0070  -11.9000 C.2   390  ILE390      0.2260
     71  O          2.0650    3.1040  -12.3410 O.2   390  ILE390     -0.2867
     72  CB         4.7450    1.4910  -11.1780 C.3   390  ILE390      0.0252
     73  CG1        5.7400    1.6580  -10.0290 C.3   390  ILE390      0.0019
     74  CG2        5.1650    2.3010  -12.3870 C.3   390  ILE390      0.0019
     75  CD1        5.8640    3.0840   -9.5440 C.3   390  ILE390      0.0001
     76  N          5.2480    8.8390   -3.3330 N.3   403  LEU403     -0.1231
     77  CA         6.1770    8.3530   -4.3330 C.3   403  LEU403      0.1693
     78  C          7.4830    9.1330   -4.2260 C.2   403  LEU403      0.2593
     79  O          7.7880    9.7100   -3.1920 O.2   403  LEU403     -0.2718
     80  CB         5.5910    8.4940   -5.7410 C.3   403  LEU403      0.0284
     81  CG         5.2730    7.2160   -6.5300 C.3   403  LEU403      0.0019
     82  CD1        4.8180    7.5550   -7.9440 C.3   403  LEU403      0.0001
     83  CD2        6.4680    6.2700   -6.5760 C.3   403  LEU403      0.0001
     84  N          8.2610    9.1460   -5.2920 N.am  404  GLY404     -0.1942
     85  CA         9.5070    9.8860   -5.2690 C.3   404  GLY404      0.2014
     86  C         10.3660    9.5920   -6.4720 C.2   404  GLY404      0.2639
     87  O          9.9520    8.8800   -7.3910 O.2   404  GLY404     -0.2714
     88  N         11.5790   10.1240   -6.4580 N.am  405  TRP405     -0.1959
     89  CA        12.4600    9.9870   -7.5900 C.3   405  TRP405      0.1771
     90  C         13.9010    9.8920   -7.1090 C.2   405  TRP405      0.2619
     91  O         14.3720   10.7580   -6.3750 O.2   405  TRP405     -0.2715
     92  CB        12.2730   11.1870   -8.5110 C.3   405  TRP405      0.0590
     93  CG        13.0300   11.1340   -9.8010 C.ar  405  TRP405      0.0006
     94  CD1       14.1610   11.8130  -10.1010 C.ar  405  TRP405      0.0946
     95  CD2       12.6870   10.3840  -10.9680 C.ar  405  TRP405      0.0152
     96  NE1       14.5580   11.5320  -11.3800 N.ar  405  TRP405     -0.2442
     97  CE2       13.6660   10.6520  -11.9350 C.ar  405  TRP405      0.0810
     98  CE3       11.6520    9.4970  -11.2820 C.ar  405  TRP405      0.0012
     99  CZ2       13.6420   10.0760  -13.2010 C.ar  405  TRP405      0.0191
    100  CZ3       11.6290    8.9250  -12.5360 C.ar  405  TRP405      0.0001
    101  CH2       12.6170    9.2110  -13.4790 C.ar  405  TRP405      0.0015
    102  N         14.5840    8.8250   -7.5020 N.am  406  ALA406     -0.1977
    103  CA        16.0170    8.7050   -7.2680 C.3   406  ALA406      0.1597
    104  C         16.7190    9.1550   -8.5430 C.2   406  ALA406      0.2287
    105  O         16.6300    8.4940   -9.5800 O.2   406  ALA406     -0.2864
    106  CB        16.3760    7.2780   -6.9280 C.3   406  ALA406      0.0319
    107  N          9.3380   14.4290  -14.3450 N.3   419  LEU419     -0.1245
    108  CA         8.4180   14.3150  -13.2190 C.3   419  LEU419      0.1561
    109  C          7.1820   15.2100  -13.3530 C.2   419  LEU419      0.2260
    110  O          6.0540   14.7410  -13.2400 O.2   419  LEU419     -0.2867
    111  CB         9.1560   14.6590  -11.9200 C.3   419  LEU419      0.0270
    112  CG         9.1870   13.6710  -10.7590 C.3   419  LEU419      0.0019
    113  CD1        9.6250   12.2990  -11.2420 C.3   419  LEU419      0.0001
    114  CD2       10.1160   14.1840   -9.6680 C.3   419  LEU419      0.0001
    115  N          3.1970    9.9500  -16.8110 N.3   429  LYS429     -0.1245
    116  CA         4.2500    9.7850  -15.8080 C.3   429  LYS429      0.1561
    117  C          4.3000   10.9000  -14.7640 C.2   429  LYS429      0.2260
    118  O          5.2430   10.9730  -13.9790 O.2   429  LYS429     -0.2867
    119  CB         5.6140    9.6410  -16.4870 C.3   429  LYS429      0.0271
    120  CG         5.9000    8.2530  -17.0310 C.3   429  LYS429      0.0035
    121  CD         5.7210    7.2050  -15.9320 C.3   429  LYS429      0.0206
    122  CE         6.1740    5.8310  -16.3780 C.3   429  LYS429      0.1093
    123  NZ         6.2410    4.8840  -15.2240 N.3   429  LYS429     -0.1314
@<TRIPOS>BOND
     1   120   119    1
     2   120   121    1
     3   115   116    1
     4     7     5    1
     5   119   116    1
     6   122   121    1
     7   122   123    1
     8     1     2    1
     9   116   117    1
    10     5     2    1
    11     5     6    1
    12     2     3    1
    13   117   118    2
    14   107   108    1
    15     3     8   am
    16     3     4    2
    17     8     9    1
    18   101    99   ar
    19   101   100   ar
    20   109   110    2
    21   109   108    1
    22   108   111    1
    23    99    97   ar
    24    13    12    1
    25   100    98   ar
    26    11    10    2
    27    74    72    1
    28    71    70    2
    29     9    12    1
    30     9    10    1
    31    12    14    1
    32    97    96   ar
    33    97    95   ar
    34   111   112    1
    35    70    69    1
    36    10    15   am
    37    96    94   ar
    38    98    95   ar
    39   113   112    1
    40    72    69    1
    41    72    73    1
    42    95    93   ar
    43   112   114    1
    44    15    16    1
    45    69    68    1
    46    16    17    1
    47    18    17    2
    48    94    93   ar
    49    73    75    1
    50    93    92    1
    51   105   104    2
    52    57    56    2
    53   104   103    1
    54    92    89    1
    55    56    55    1
    56    82    81    1
    57    30    29    1
    58    62    60   ar
    59    62    63   ar
    60    89    90    1
    61    89    88    1
    62    60    59   ar
    63   102   103    1
    64   102    90   am
    65    87    86    2
    66   103   106    1
    67    63    65   ar
    68    63    61   ar
    69    90    91    2
    70    65    67   ar
    71    59    61   ar
    72    59    58    1
    73    55    58    1
    74    55    54    1
    75    41    39    1
    76    29    28   ar
    77    29    27   ar
    78    83    81    1
    79    61    64   ar
    80    81    80    1
    81    86    88   am
    82    86    85    1
    83    67    66   ar
    84    28    26   ar
    85    64    66   ar
    86    27    25   ar
    87    80    77    1
    88    53    52    1
    89    39    38    2
    90    39    40    1
    91    84    85    1
    92    84    78   am
    93    26    24   ar
    94    38    37    1
    95    51    52   ar
    96    51    49   ar
    97    52    50   ar
    98    25    24   ar
    99    77    78    1
   100    77    76    1
   101    24    23    1
   102    78    79    2
   103    49    47   ar
   104    37    36    1
   105    50    48   ar
   106    23    20    1
   107    36    35    1
   108    47    48   ar
   109    47    46    1
   110    35    32    1
   111    46    43    1
   112    19    20    1
   113    20    21    1
   114    32    33    1
   115    32    31    1
   116    22    21    2
   117    42    43    1
   118    33    34    2
   119    43    44    1
   120    44    45    2
