@<TRIPOS>MOLECULE
tmp/4qfpA00.pdb
 108 104 0 0 0
SMALL
GASTEIGER

@<TRIPOS>ATOM
      1  N         10.8970    3.2080  -16.0490 N.3    20  THR20      -0.1203
      2  CA        11.6260    4.1030  -15.1710 C.3    20  THR20       0.1994
      3  C         11.6750    3.5610  -13.7480 C.2    20  THR20       0.2619
      4  O         12.0470    4.2680  -12.8310 O.2    20  THR20      -0.2717
      5  CB        11.0480    5.5290  -15.1910 C.3    20  THR20       0.1784
      6  OG1        9.6780    5.5100  -14.7740 O.3    20  THR20      -0.2211
      7  CG2       11.1440    6.1110  -16.5870 C.3    20  THR20       0.0376
      8  N         11.2980    2.2980  -13.5760 N.am   21  THR21      -0.1938
      9  CA        11.2390    1.6980  -12.2510 C.3    21  THR21       0.2028
     10  C         12.6080    1.1860  -11.8340 C.2    21  THR21       0.2642
     11  O         13.1840    0.3120  -12.4920 O.2    21  THR21      -0.2714
     12  CB        10.2500    0.5300  -12.1960 C.3    21  THR21       0.1808
     13  OG1        8.9790    0.9450  -12.7190 O.3    21  THR21      -0.2208
     14  CG2       10.0780    0.0710  -10.7500 C.3    21  THR21       0.0379
     15  N         13.1220    1.7170  -10.7300 N.am   22  GLY22      -0.1954
     16  CA        14.4810    1.4120  -10.3140 C.3    22  GLY22       0.1869
     17  C         14.7100   -0.0680  -10.1000 C.2    22  GLY22       0.2309
     18  O         15.8290   -0.5610  -10.2750 O.2    22  GLY22      -0.2863
     19  N         15.6010   -1.4970  -13.5390 N.3    25  ILE25      -0.1245
     20  CA        16.8890   -0.9500  -13.9840 C.3    25  ILE25       0.1561
     21  C         18.0640   -1.4990  -13.1740 C.2    25  ILE25       0.2260
     22  O         19.1040   -1.8400  -13.7400 O.2    25  ILE25      -0.2867
     23  CB        16.8860    0.5880  -13.9320 C.3    25  ILE25       0.0252
     24  CG1       15.7820    1.1480  -14.8260 C.3    25  ILE25       0.0019
     25  CG2       18.2400    1.1470  -14.3510 C.3    25  ILE25       0.0019
     26  CD1       15.9570    0.8480  -16.2990 C.3    25  ILE25       0.0001
     27  N         20.9410    5.3540  -17.3810 N.3   153  ASP153     -0.1225
     28  CA        20.9240    3.9000  -17.4950 C.3   153  ASP153      0.1805
     29  C         19.8660    3.4110  -18.4750 C.2   153  ASP153      0.2597
     30  O         19.8080    2.2180  -18.7810 O.2   153  ASP153     -0.2718
     31  CB        20.7420    3.2630  -16.1100 C.3   153  ASP153      0.1424
     32  CG        21.9470    3.4880  -15.2090 C.2   153  ASP153      0.3668
     33  OD1       23.0750    3.1410  -15.6160 O.co2 153  ASP153     -0.2456
     34  OD2       21.7760    4.0390  -14.1040 O.co2 153  ASP153     -0.2456
     35  N         19.0430    4.3380  -18.9630 N.am  154  PHE154     -0.1976
     36  CA        18.0410    4.0430  -19.9820 C.3   154  PHE154      0.1639
     37  C         18.6570    4.0750  -21.3720 C.2   154  PHE154      0.2290
     38  O         18.0690    3.5640  -22.3350 O.2   154  PHE154     -0.2864
     39  CB        16.9190    5.0870  -19.9740 C.3   154  PHE154      0.0560
     40  CG        16.3840    5.4000  -18.6110 C.ar  154  PHE154     -0.0200
     41  CD1       15.6710    4.4500  -17.8970 C.ar  154  PHE154     -0.0042
     42  CD2       16.5860    6.6490  -18.0490 C.ar  154  PHE154     -0.0042
     43  CE1       15.1820    4.7380  -16.6280 C.ar  154  PHE154     -0.0003
     44  CE2       16.0980    6.9460  -16.7860 C.ar  154  PHE154     -0.0003
     45  CZ        15.3930    5.9920  -16.0770 C.ar  154  PHE154     -0.0000
     46  N         12.0730    2.1110   -0.6910 N.3   355  ARG355     -0.1245
     47  CA        12.7810    2.8460   -1.7400 C.3   355  ARG355      0.1563
     48  C         13.7890    3.7630   -1.0670 C.2   355  ARG355      0.2260
     49  O         13.6420    4.0980    0.1080 O.2   355  ARG355     -0.2867
     50  CB        11.8410    3.7220   -2.5740 C.3   355  ARG355      0.0307
     51  CG        10.5410    3.0640   -3.0370 C.3   355  ARG355      0.0489
     52  CD        10.8040    1.7780   -3.7910 C.3   355  ARG355      0.2205
     53  NE        11.4310    1.9770   -5.0960 N.pl3 355  ARG355     -0.0865
     54  CZ        12.3960    1.1970   -5.5730 C.cat 355  ARG355      0.5346
     55  NH1       12.8620    0.1940   -4.8340 N.pl3 355  ARG355      0.1354
     56  NH2       12.9060    1.4210   -6.7790 N.pl3 355  ARG355      0.1354
     57  N         14.1340    6.7900   -1.2340 N.3   357  TYR357     -0.1241
     58  CA        13.5110    8.0380   -0.8220 C.3   357  TYR357      0.1605
     59  C         12.3490    7.8520    0.1640 C.2   357  TYR357      0.2264
     60  O         11.7890    8.8250    0.6650 O.2   357  TYR357     -0.2867
     61  CB        13.0330    8.7810   -2.0720 C.3   357  TYR357      0.0534
     62  CG        12.2030    7.9310   -3.0130 C.ar  357  TYR357     -0.0201
     63  CD1       10.8850    7.5950   -2.6990 C.ar  357  TYR357     -0.0009
     64  CD2       12.7280    7.4720   -4.2170 C.ar  357  TYR357     -0.0009
     65  CE1       10.1130    6.8180   -3.5610 C.ar  357  TYR357      0.0417
     66  CE2       11.9640    6.6970   -5.0890 C.ar  357  TYR357      0.0417
     67  CZ        10.6610    6.3670   -4.7520 C.ar  357  TYR357      0.1957
     68  OH         9.8970    5.5980   -5.6070 O.3   357  TYR357     -0.2866
     69  N          8.2610    9.1460   -5.2920 N.3   404  GLY404     -0.1210
     70  CA         9.5070    9.8860   -5.2690 C.3   404  GLY404      0.1956
     71  C         10.3660    9.5920   -6.4720 C.2   404  GLY404      0.2612
     72  O          9.9520    8.8800   -7.3910 O.2   404  GLY404     -0.2717
     73  N         11.5790   10.1240   -6.4580 N.am  405  TRP405     -0.1962
     74  CA        12.4600    9.9870   -7.5900 C.3   405  TRP405      0.1771
     75  C         13.9010    9.8920   -7.1090 C.2   405  TRP405      0.2619
     76  O         14.3720   10.7580   -6.3750 O.2   405  TRP405     -0.2715
     77  CB        12.2730   11.1870   -8.5110 C.3   405  TRP405      0.0590
     78  CG        13.0300   11.1340   -9.8010 C.ar  405  TRP405      0.0006
     79  CD1       14.1610   11.8130  -10.1010 C.ar  405  TRP405      0.0946
     80  CD2       12.6870   10.3840  -10.9680 C.ar  405  TRP405      0.0152
     81  NE1       14.5580   11.5320  -11.3800 N.ar  405  TRP405     -0.2442
     82  CE2       13.6660   10.6520  -11.9350 C.ar  405  TRP405      0.0810
     83  CE3       11.6520    9.4970  -11.2820 C.ar  405  TRP405      0.0012
     84  CZ2       13.6420   10.0760  -13.2010 C.ar  405  TRP405      0.0191
     85  CZ3       11.6290    8.9250  -12.5360 C.ar  405  TRP405      0.0001
     86  CH2       12.6170    9.2110  -13.4790 C.ar  405  TRP405      0.0015
     87  N         14.5840    8.8250   -7.5020 N.am  406  ALA406     -0.1977
     88  CA        16.0170    8.7050   -7.2680 C.3   406  ALA406      0.1597
     89  C         16.7190    9.1550   -8.5430 C.2   406  ALA406      0.2287
     90  O         16.6300    8.4940   -9.5800 O.2   406  ALA406     -0.2864
     91  CB        16.3760    7.2780   -6.9280 C.3   406  ALA406      0.0319
     92  N         18.8100   10.0740  -11.7630 N.3   408  ASP408     -0.1239
     93  CA        19.5500    9.2290  -12.6880 C.3   408  ASP408      0.1674
     94  C         20.9170    9.8260  -13.0570 C.2   408  ASP408      0.2266
     95  O         21.8240    9.1030  -13.4900 O.2   408  ASP408     -0.2867
     96  CB        18.7010    9.0240  -13.9550 C.3   408  ASP408      0.1410
     97  CG        17.2620    8.6120  -13.6380 C.2   408  ASP408      0.3668
     98  OD1       17.0740    7.5760  -12.9710 O.co2 408  ASP408     -0.2456
     99  OD2       16.3190    9.3360  -14.0420 O.co2 408  ASP408     -0.2456
    100  N         21.8860    7.1930  -10.1090 N.3   497  GLY497     -0.1210
    101  CA        21.9130    6.0860  -11.0510 C.3   497  GLY497      0.1956
    102  C         21.7460    4.7160  -10.4230 C.2   497  GLY497      0.2611
    103  O         21.5440    4.6010   -9.2180 O.2   497  GLY497     -0.2717
    104  N         21.8470    3.6720  -11.2430 N.am  498  ALA498     -0.1979
    105  CA        21.5240    2.3010  -10.8250 C.3   498  ALA498      0.1597
    106  C         22.6850    1.5620  -10.1670 C.2   498  ALA498      0.2287
    107  O         23.8420    1.9410  -10.3360 O.2   498  ALA498     -0.2864
    108  CB        21.0250    1.4940  -12.0310 C.3   498  ALA498      0.0319
@<TRIPOS>BOND
     1    38    37    2
     2    37    36    1
     3    36    39    1
     4    36    35    1
     5    39    40    1
     6    35    29   am
     7    30    29    2
     8    40    42   ar
     9    40    41   ar
    10    29    28    1
    11    42    44   ar
    12    41    43   ar
    13    28    27    1
    14    28    31    1
    15    44    45   ar
    16    43    45   ar
    17     7     5    1
    18    26    24    1
    19    31    32    1
    20     1     2    1
    21    33    32   ar
    22    32    34   ar
    23     5     2    1
    24     5     6    1
    25     2     3    1
    26    24    23    1
    27    25    23    1
    28    99    97   ar
    29    20    23    1
    30    20    19    1
    31    20    21    1
    32    96    97    1
    33    96    93    1
    34     3     8   am
    35     3     4    2
    36    22    21    2
    37    97    98   ar
    38     8     9    1
    39    95    94    2
    40    86    84   ar
    41    86    85   ar
    42    84    82   ar
    43    94    93    1
    44    13    12    1
    45    93    92    1
    46    85    83   ar
    47    11    10    2
    48     9    12    1
    49     9    10    1
    50    12    14    1
    51   108   105    1
    52    82    81   ar
    53    82    80   ar
    54    10    15   am
    55    81    79   ar
    56    83    80   ar
    57   104   105    1
    58   104   102   am
    59   101   102    1
    60   101   100    1
    61    80    78   ar
    62   105   106    1
    63    15    16    1
    64   102   103    2
    65   107   106    2
    66    16    17    1
    67    18    17    2
    68    79    78   ar
    69    78    77    1
    70    90    89    2
    71    89    88    1
    72    77    74    1
    73    74    75    1
    74    74    73    1
    75    87    88    1
    76    87    75   am
    77    72    71    2
    78    88    91    1
    79    75    76    2
    80    56    54    1
    81    71    73   am
    82    71    70    1
    83    68    67    1
    84    54    53    2
    85    54    55    1
    86    69    70    1
    87    53    52    1
    88    66    67   ar
    89    66    64   ar
    90    67    65   ar
    91    64    62   ar
    92    52    51    1
    93    65    63   ar
    94    51    50    1
    95    62    63   ar
    96    62    61    1
    97    50    47    1
    98    61    58    1
    99    47    48    1
   100    47    46    1
   101    57    58    1
   102    48    49    2
   103    58    59    1
   104    59    60    2
