@<TRIPOS>MOLECULE
tmp/4qfrA01.pdb
 81 73 0 0 0
SMALL
GASTEIGER

@<TRIPOS>ATOM
      1  N         56.0710  -81.3040  -39.7420 N.3     3  VAL3       -0.1245
      2  CA        55.0460  -80.2640  -39.5500 C.3     3  VAL3        0.1561
      3  C         55.2990  -79.5540  -38.2140 C.2     3  VAL3        0.2260
      4  O         55.2510  -80.2020  -37.1690 O.2     3  VAL3       -0.2867
      5  CB        53.6290  -80.8520  -39.5730 C.3     3  VAL3        0.0252
      6  CG1       52.5920  -79.7430  -39.5160 C.3     3  VAL3        0.0019
      7  CG2       53.4140  -81.7380  -40.7910 C.3     3  VAL3        0.0019
      8  N         54.4060  -81.3510  -34.8030 N.3    10  LEU10      -0.1231
      9  CA        53.0870  -81.9430  -34.6230 C.3    10  LEU10       0.1693
     10  C         53.1370  -83.4050  -34.9630 C.2    10  LEU10       0.2592
     11  O         53.5370  -83.7770  -36.0510 O.2    10  LEU10      -0.2718
     12  CB        51.9970  -81.2170  -35.4190 C.3    10  LEU10       0.0284
     13  CG        51.6650  -79.7960  -34.9780 C.3    10  LEU10       0.0019
     14  CD1       50.7910  -79.1210  -35.9910 C.3    10  LEU10       0.0001
     15  CD2       50.9870  -79.7650  -33.6350 C.3    10  LEU10       0.0001
     16  N         52.7920  -84.2250  -33.9950 N.am   11  GLY11      -0.1957
     17  CA        52.8010  -85.6690  -34.1440 C.3    11  GLY11       0.1869
     18  C         51.4320  -86.3050  -34.3070 C.2    11  GLY11       0.2309
     19  O         50.6380  -85.9030  -35.1690 O.2    11  GLY11      -0.2863
     20  N         40.4550  -81.6030  -33.5200 N.3    21  LYS21      -0.1245
     21  CA        41.5840  -82.5160  -33.2800 C.3    21  LYS21       0.1561
     22  C         42.5980  -81.9750  -32.2480 C.2    21  LYS21       0.2260
     23  O         42.9240  -80.7810  -32.2760 O.2    21  LYS21      -0.2867
     24  CB        42.3570  -82.7520  -34.5890 C.3    21  LYS21       0.0271
     25  CG        41.7900  -83.8230  -35.4990 C.3    21  LYS21       0.0035
     26  CD        42.7830  -84.1850  -36.5840 C.3    21  LYS21       0.0206
     27  CE        42.4310  -85.4540  -37.3160 C.3    21  LYS21       0.1093
     28  NZ        43.0990  -85.5140  -38.6420 N.3    21  LYS21      -0.1314
     29  N         46.4930  -82.8100  -31.1250 N.3    23  LYS23      -0.1245
     30  CA        47.6490  -83.6060  -31.5000 C.3    23  LYS23       0.1561
     31  C         48.7920  -83.3520  -30.5440 C.2    23  LYS23       0.2260
     32  O         48.7960  -82.3220  -29.8630 O.2    23  LYS23      -0.2867
     33  CB        48.1200  -83.2420  -32.9070 C.3    23  LYS23       0.0271
     34  CG        47.2590  -83.7440  -34.0190 C.3    23  LYS23       0.0035
     35  CD        47.6570  -83.0420  -35.2970 C.3    23  LYS23       0.0206
     36  CE        46.9300  -83.5700  -36.5080 C.3    23  LYS23       0.1093
     37  NZ        47.3350  -84.9610  -36.8520 N.3    23  LYS23      -0.1314
     38  N         43.5330  -78.0420  -32.4350 N.3    38  ILE38      -0.1245
     39  CA        43.4460  -77.3070  -33.7090 C.3    38  ILE38       0.1561
     40  C         41.9960  -76.8940  -34.0310 C.2    38  ILE38       0.2260
     41  O         41.1220  -77.7630  -34.1800 O.2    38  ILE38      -0.2867
     42  CB        44.1240  -77.9860  -34.9280 C.3    38  ILE38       0.0252
     43  CG1       45.4890  -78.6010  -34.5740 C.3    38  ILE38       0.0019
     44  CG2       44.2380  -76.9650  -36.0610 C.3    38  ILE38       0.0019
     45  CD1       46.0040  -79.6000  -35.5930 C.3    38  ILE38       0.0001
     46  N         39.7740  -75.0440  -36.8040 N.3    40  ASN40      -0.1240
     47  CA        39.7420  -74.4730  -38.1450 C.3    40  ASN40       0.1653
     48  C         38.8060  -73.2900  -38.0720 C.2    40  ASN40       0.2266
     49  O         37.6800  -73.4380  -37.6000 O.2    40  ASN40      -0.2867
     50  CB        39.2920  -75.4930  -39.1710 C.3    40  ASN40       0.1155
     51  CG        39.2970  -74.9880  -40.5690 C.2    40  ASN40       0.2627
     52  OD1       38.7080  -73.9510  -40.8900 O.2    40  ASN40      -0.2716
     53  ND2       39.9650  -75.7250  -41.4390 N.am   40  ASN40      -0.0877
     54  N         35.6690  -73.7300  -39.9850 N.3    43  LYS43      -0.1245
     55  CA        34.8260  -74.7360  -39.3290 C.3    43  LYS43       0.1561
     56  C         34.1710  -74.1250  -38.1040 C.2    43  LYS43       0.2260
     57  O         32.9560  -74.2250  -37.9960 O.2    43  LYS43      -0.2867
     58  CB        35.5950  -76.0220  -38.9550 C.3    43  LYS43       0.0271
     59  CG        36.1390  -76.8380  -40.1360 C.3    43  LYS43       0.0035
     60  CD        36.7490  -78.1740  -39.6750 C.3    43  LYS43       0.0206
     61  CE        37.4600  -78.9020  -40.7900 C.3    43  LYS43       0.1093
     62  NZ        37.8930  -80.2630  -40.3810 N.3    43  LYS43      -0.1314
     63  N         43.6820  -71.4470  -39.4490 N.3    80  ASP80      -0.1239
     64  CA        43.4440  -72.2240  -38.2180 C.3    80  ASP80       0.1674
     65  C         44.0860  -71.6170  -36.9530 C.2    80  ASP80       0.2266
     66  O         45.1240  -70.9600  -37.0000 O.2    80  ASP80      -0.2867
     67  CB        43.9810  -73.6760  -38.3780 C.3    80  ASP80       0.1410
     68  CG        43.5240  -74.4560  -39.6070 C.2    80  ASP80       0.3668
     69  OD1       44.1070  -74.2440  -40.7070 O.co2  80  ASP80      -0.2456
     70  OD2       42.6680  -75.3600  -39.4510 O.co2  80  ASP80      -0.2456
     71  N         45.6120  -72.5820  -33.1680 N.3    82  PHE82      -0.1241
     72  CA        46.2360  -73.6730  -32.4310 C.3    82  PHE82       0.1605
     73  C         46.3780  -73.3410  -30.9490 C.2    82  PHE82       0.2264
     74  O         47.0570  -72.3860  -30.5840 O.2    82  PHE82      -0.2867
     75  CB        47.6130  -73.9630  -33.0130 C.3    82  PHE82       0.0534
     76  CG        47.6930  -74.3980  -34.4550 C.ar   82  PHE82      -0.0203
     77  CD1       47.6410  -73.4660  -35.4800 C.ar   82  PHE82      -0.0042
     78  CD2       47.9620  -75.7220  -34.7800 C.ar   82  PHE82      -0.0042
     79  CE1       47.7910  -73.8570  -36.7990 C.ar   82  PHE82      -0.0003
     80  CE2       48.1250  -76.1100  -36.1010 C.ar   82  PHE82      -0.0003
     81  CZ        48.0380  -75.1740  -37.1030 C.ar   82  PHE82      -0.0000
@<TRIPOS>BOND
     1    53    51   am
     2    52    51    2
     3     7     5    1
     4    61    62    1
     5    61    60    1
     6    69    68   ar
     7    51    50    1
     8    59    60    1
     9    59    58    1
    10    54    55    1
    11     1     2    1
    12    68    70   ar
    13    68    67    1
    14     5     2    1
    15     5     6    1
    16     2     3    1
    17    63    64    1
    18    55    58    1
    19    55    56    1
    20    50    47    1
    21    28    27    1
    22    67    64    1
    23    64    65    1
    24     3     4    2
    25    47    48    1
    26    47    46    1
    27    56    57    2
    28    48    49    2
    29    27    26    1
    30    81    79   ar
    31    81    80   ar
    32    66    65    2
    33    37    36    1
    34    79    77   ar
    35    26    25    1
    36    36    35    1
    37    80    78   ar
    38    44    42    1
    39    11    10    2
    40    14    13    1
    41    45    43    1
    42    25    24    1
    43    77    76   ar
    44    12    13    1
    45    12     9    1
    46    35    34    1
    47    19    18    2
    48    13    15    1
    49    10     9    1
    50    10    16   am
    51    42    43    1
    52    42    39    1
    53     8     9    1
    54    78    76   ar
    55    24    21    1
    56    76    75    1
    57    18    17    1
    58    41    40    2
    59    17    16    1
    60    40    39    1
    61    34    33    1
    62    39    38    1
    63    20    21    1
    64    21    22    1
    65    71    72    1
    66    75    72    1
    67    33    30    1
    68    72    73    1
    69    23    22    2
    70    30    29    1
    71    30    31    1
    72    73    74    2
    73    31    32    2
