@<TRIPOS>MOLECULE
tmp/4qg6C00.pdb
 112 109 0 0 0
SMALL
GASTEIGER

@<TRIPOS>ATOM
      1  N          9.2810    2.9390  -31.6850 N.3    20  ARG20      -0.1231
      2  CA         8.5630    1.9250  -30.9560 C.3    20  ARG20       0.1694
      3  C          8.4860    0.7210  -31.8530 C.2    20  ARG20       0.2592
      4  O          8.1340    0.8460  -33.0050 O.2    20  ARG20      -0.2718
      5  CB         7.1630    2.4020  -30.6180 C.3    20  ARG20       0.0321
      6  CG         6.1990    1.2630  -30.3810 C.3    20  ARG20       0.0489
      7  CD         4.8530    1.8160  -30.0020 C.3    20  ARG20       0.2205
      8  NE         4.3450    2.7880  -30.9650 N.pl3  20  ARG20      -0.0865
      9  CZ         3.5110    2.4890  -31.9520 C.cat  20  ARG20       0.5346
     10  NH1        3.0830    1.2290  -32.1320 N.pl3  20  ARG20       0.1354
     11  NH2        3.1050    3.4600  -32.7550 N.pl3  20  ARG20       0.1354
     12  N          8.8290   -0.4400  -31.3360 N.am   21  ASN21      -0.1960
     13  CA         8.8800   -1.6230  -32.1650 C.3    21  ASN21       0.1819
     14  C          7.7920   -2.5860  -31.7490 C.2    21  ASN21       0.2622
     15  O          7.7270   -3.7260  -32.2290 O.2    21  ASN21      -0.2715
     16  CB        10.2510   -2.3050  -32.0580 C.3    21  ASN21       0.1195
     17  CG        11.3510   -1.5050  -32.7150 C.2    21  ASN21       0.2630
     18  OD1       12.1750   -2.0450  -33.4620 O.2    21  ASN21      -0.2716
     19  ND2       11.3630   -0.2040  -32.4590 N.am   21  ASN21      -0.0877
     20  N          6.9500   -2.1290  -30.8330 N.am   22  THR22      -0.1937
     21  CA         5.8790   -2.9670  -30.3150 C.3    22  THR22       0.2028
     22  C          4.5510   -2.4780  -30.8860 C.2    22  THR22       0.2642
     23  O          4.3020   -1.2680  -30.9890 O.2    22  THR22      -0.2714
     24  CB         5.8810   -3.0410  -28.7450 C.3    22  THR22       0.1808
     25  OG1        6.5710   -1.9090  -28.1860 O.3    22  THR22      -0.2208
     26  CG2        6.5870   -4.2990  -28.2820 C.3    22  THR22       0.0379
     27  N          3.7060   -3.4080  -31.2990 N.am   23  GLY23      -0.1954
     28  CA         2.4840   -3.0020  -31.9600 C.3    23  GLY23       0.1869
     29  C          1.4520   -2.4860  -30.9880 C.2    23  GLY23       0.2309
     30  O          1.2030   -3.1260  -29.9740 O.2    23  GLY23      -0.2863
     31  N         -2.3150    0.5020  -34.5950 N.3    47  ASN47      -0.1240
     32  CA        -1.8190   -0.3390  -35.6770 C.3    47  ASN47       0.1653
     33  C         -2.7610   -1.4930  -35.8980 C.2    47  ASN47       0.2266
     34  O         -2.7960   -2.0960  -36.9490 O.2    47  ASN47      -0.2867
     35  CB        -0.4250   -0.8930  -35.3650 C.3    47  ASN47       0.1155
     36  CG         0.6520    0.1920  -35.2850 C.2    47  ASN47       0.2627
     37  OD1        0.3580    1.3910  -35.2780 O.2    47  ASN47      -0.2716
     38  ND2        1.9140   -0.2350  -35.2190 N.am   47  ASN47      -0.0877
     39  N         -0.0320    4.3600  -43.0260 N.3    83  ARG83      -0.1245
     40  CA         0.2190    3.0930  -42.3490 C.3    83  ARG83       0.1563
     41  C         -0.9650    2.1480  -42.4250 C.2    83  ARG83       0.2260
     42  O         -2.1020    2.5760  -42.2620 O.2    83  ARG83      -0.2867
     43  CB         0.5520    3.3470  -40.8780 C.3    83  ARG83       0.0307
     44  CG         1.9370    3.9110  -40.6160 C.3    83  ARG83       0.0489
     45  CD         1.9450    5.4170  -40.5780 C.3    83  ARG83       0.2205
     46  NE         3.2670    5.9080  -40.1940 N.pl3  83  ARG83      -0.0865
     47  CZ         3.6860    7.1590  -40.3760 C.cat  83  ARG83       0.5346
     48  NH1        2.8820    8.0600  -40.9450 N.pl3  83  ARG83       0.1354
     49  NH2        4.9130    7.5100  -39.9960 N.pl3  83  ARG83       0.1354
     50  N          1.6090   -6.2030  -38.5550 N.3   339  HIS339     -0.1241
     51  CA         1.6620   -5.4900  -37.2790 C.3   339  HIS339      0.1621
     52  C          1.7780   -6.4180  -36.0740 C.2   339  HIS339      0.2264
     53  O          2.2660   -6.0130  -35.0260 O.2   339  HIS339     -0.2867
     54  CB         0.4480   -4.5880  -37.1280 C.3   339  HIS339      0.0745
     55  CG         0.6020   -3.2520  -37.7880 C.ar  339  HIS339      0.0817
     56  ND1       -0.4350   -2.6120  -38.4310 N.ar  339  HIS339     -0.2268
     57  CD2        1.6610   -2.4190  -37.8760 C.ar  339  HIS339      0.1154
     58  CE1       -0.0220   -1.4370  -38.8790 C.ar  339  HIS339      0.1986
     59  NE2        1.2500   -1.2970  -38.5550 N.ar  339  HIS339     -0.2212
     60  N          3.9200   -8.5050  -35.4110 N.3   341  TYR341     -0.1241
     61  CA         5.2980   -8.9390  -35.1580 C.3   341  TYR341      0.1605
     62  C          6.2000   -7.7940  -34.6820 C.2   341  TYR341      0.2264
     63  O          6.1170   -6.6560  -35.1690 O.2   341  TYR341     -0.2867
     64  CB         5.8850   -9.5990  -36.4050 C.3   341  TYR341      0.0534
     65  CG         5.2270  -10.9090  -36.7800 C.ar  341  TYR341     -0.0201
     66  CD1        3.9890  -10.9390  -37.4000 C.ar  341  TYR341     -0.0009
     67  CD2        5.8580  -12.1180  -36.5340 C.ar  341  TYR341     -0.0009
     68  CE1        3.3920  -12.1440  -37.7520 C.ar  341  TYR341      0.0417
     69  CE2        5.2710  -13.3270  -36.8750 C.ar  341  TYR341      0.0417
     70  CZ         4.0400  -13.3330  -37.4830 C.ar  341  TYR341      0.1957
     71  OH         3.4560  -14.5330  -37.8160 O.3   341  TYR341     -0.2866
     72  N          9.0360   -5.1890  -34.2700 N.3   343  GLY343     -0.1210
     73  CA        10.0450   -4.5890  -35.1280 C.3   343  GLY343      0.1956
     74  C          9.9100   -4.7020  -36.6550 C.2   343  GLY343      0.2612
     75  O         10.8470   -4.3510  -37.3910 O.2   343  GLY343     -0.2717
     76  N          8.7630   -5.1940  -37.1340 N.am  344  ILE344     -0.1965
     77  CA         8.4060   -5.0960  -38.5530 C.3   344  ILE344      0.1727
     78  C          7.5550   -3.8610  -38.8090 C.2   344  ILE344      0.2616
     79  O          6.4980   -3.7200  -38.2210 O.2   344  ILE344     -0.2715
     80  CB         7.5490   -6.2670  -39.0070 C.3   344  ILE344      0.0290
     81  CG1        8.3220   -7.5740  -38.9120 C.3   344  ILE344      0.0022
     82  CG2        7.0960   -6.0280  -40.4180 C.3   344  ILE344      0.0023
     83  CD1        7.5680   -8.7550  -39.4750 C.3   344  ILE344      0.0001
     84  N          7.9880   -2.9870  -39.7060 N.am  345  PHE345     -0.1960
     85  CA         7.2050   -1.8140  -40.0880 C.3   345  PHE345      0.1756
     86  C          6.7430   -1.9750  -41.5120 C.2   345  PHE345      0.2461
     87  O          7.4800   -1.6150  -42.4190 O.2   345  PHE345     -0.2730
     88  CB         8.0780   -0.5720  -40.0200 C.3   345  PHE345      0.0574
     89  CG         8.5940   -0.2850  -38.6590 C.ar  345  PHE345     -0.0200
     90  CD1        9.5890   -1.0670  -38.1070 C.ar  345  PHE345     -0.0042
     91  CD2        8.0780    0.7720  -37.9270 C.ar  345  PHE345     -0.0042
     92  CE1       10.0540   -0.8100  -36.8500 C.ar  345  PHE345     -0.0003
     93  CE2        8.5430    1.0460  -36.6770 C.ar  345  PHE345     -0.0003
     94  CZ         9.5350    0.2550  -36.1290 C.ar  345  PHE345     -0.0000
     95  N          5.5300   -2.5100  -41.7190 N.am  346  PRO346     -0.2727
     96  CA         5.0900   -2.9190  -43.0490 C.3   346  PRO346      0.1402
     97  C          4.6030   -1.7300  -43.8440 C.2   346  PRO346      0.2269
     98  O          4.0050   -0.8090  -43.2720 O.2   346  PRO346     -0.2865
     99  CB         3.9180   -3.8200  -42.7460 C.3   346  PRO346      0.0296
    100  CG         3.3180   -3.2070  -41.5830 C.3   346  PRO346      0.0237
    101  CD         4.4330   -2.6120  -40.7580 C.3   346  PRO346      0.0939
    102  N         10.4070    8.5150  -42.7470 N.3   375  ARG375     -0.1245
    103  CA        10.2350    8.3290  -41.3090 C.3   375  ARG375      0.1563
    104  C         11.4740    8.8980  -40.6120 C.2   375  ARG375      0.2260
    105  O         11.6930   10.1070  -40.6320 O.2   375  ARG375     -0.2867
    106  CB        10.0470    6.8490  -40.9560 C.3   375  ARG375      0.0307
    107  CG         9.1310    6.0520  -41.9020 C.3   375  ARG375      0.0489
    108  CD         7.6520    6.2610  -41.6240 C.3   375  ARG375      0.2205
    109  NE         7.0130    5.0640  -41.0730 N.pl3 375  ARG375     -0.0865
    110  CZ         6.0580    4.3770  -41.6950 C.cat 375  ARG375      0.5346
    111  NH1        5.5210    3.2970  -41.1280 N.pl3 375  ARG375      0.1354
    112  NH2        5.6340    4.7800  -42.8900 N.pl3 375  ARG375      0.1354
@<TRIPOS>BOND
     1    97    98    2
     2    97    96    1
     3    96    99    1
     4    96    95    1
     5    39    40    1
     6   112   110    1
     7   102   103    1
     8    99   100    1
     9    41    40    1
    10    41    42    2
    11    87    86    2
    12    40    43    1
    13   107   108    1
    14   107   106    1
    15    95    86   am
    16    95   101    1
    17   110   111    1
    18   110   109    2
    19   108   109    1
    20   100   101    1
    21    86    85    1
    22   103   106    1
    23   103   104    1
    24    48    47    1
    25    43    44    1
    26   105   104    2
    27    44    45    1
    28    45    46    1
    29    82    80    1
    30    47    46    2
    31    47    49    1
    32    85    88    1
    33    85    84    1
    34    88    89    1
    35    84    78   am
    36    83    81    1
    37    80    81    1
    38    80    77    1
    39    58    59   ar
    40    58    56   ar
    41    78    77    1
    42    78    79    2
    43    89    90   ar
    44    89    91   ar
    45    50    51    1
    46    59    57   ar
    47    77    76    1
    48    56    55   ar
    49    90    92   ar
    50    91    93   ar
    51    57    55   ar
    52    71    70    1
    53    55    54    1
    54    68    70   ar
    55    68    66   ar
    56    70    69   ar
    57    66    65   ar
    58    75    74    2
    59    51    54    1
    60    51    52    1
    61    76    74   am
    62    34    33    2
    63    69    67   ar
    64    92    94   ar
    65    65    67   ar
    66    65    64    1
    67    93    94   ar
    68    74    73    1
    69    64    61    1
    70    52    53    2
    71    33    32    1
    72    32    35    1
    73    32    31    1
    74    60    61    1
    75    35    36    1
    76    36    37    2
    77    36    38   am
    78    63    62    2
    79    61    62    1
    80    73    72    1
    81    18    17    2
    82     4     3    2
    83    11     9    1
    84    17    19   am
    85    17    16    1
    86    15    14    2
    87    13    16    1
    88    13    14    1
    89    13    12    1
    90    10     9    1
    91    28    27    1
    92    28    29    1
    93     9     8    2
    94     3    12   am
    95     3     2    1
    96    14    20   am
    97     1     2    1
    98    27    22   am
    99    23    22    2
   100    29    30    2
   101     8     7    1
   102     2     5    1
   103    22    21    1
   104    20    21    1
   105     5     6    1
   106     6     7    1
   107    21    24    1
   108    24    26    1
   109    24    25    1
