@<TRIPOS>MOLECULE
tmp/4qg6B00.pdb
 105 101 0 0 0
SMALL
GASTEIGER

@<TRIPOS>ATOM
      1  N         13.8060  -17.3660   -0.0630 N.3    20  ARG20      -0.1231
      2  CA        13.6450  -15.9630   -0.4090 C.3    20  ARG20       0.1694
      3  C         14.9890  -15.3100   -0.0980 C.2    20  ARG20       0.2592
      4  O         15.5950  -15.6300    0.9010 O.2    20  ARG20      -0.2718
      5  CB        12.5350  -15.3180    0.4090 C.3    20  ARG20       0.0321
      6  CG        12.6880  -13.8090    0.5200 C.3    20  ARG20       0.0489
      7  CD        11.4200  -13.1460    1.0310 C.3    20  ARG20       0.2205
      8  NE        11.1020  -13.4820    2.4180 N.pl3  20  ARG20      -0.0865
      9  CZ        11.7060  -12.9620    3.4820 C.cat  20  ARG20       0.5346
     10  NH1       12.6880  -12.0780    3.3450 N.pl3  20  ARG20       0.1354
     11  NH2       11.3310  -13.3390    4.6920 N.pl3  20  ARG20       0.1354
     12  N         15.5010  -14.4430   -0.9500 N.am   21  ASN21      -0.1974
     13  CA        16.7960  -13.8370   -0.6490 C.3    21  ASN21       0.1688
     14  C         16.7090  -12.3210   -0.6440 C.2    21  ASN21       0.2292
     15  O         17.7310  -11.6120   -0.6600 O.2    21  ASN21      -0.2864
     16  CB        17.8680  -14.2940   -1.6300 C.3    21  ASN21       0.1181
     17  CG        18.1090  -15.7770   -1.5770 C.2    21  ASN21       0.2629
     18  OD1       18.9990  -16.2520   -0.8630 O.2    21  ASN21      -0.2716
     19  ND2       17.3290  -16.5280   -2.3460 N.am   21  ASN21      -0.0877
     20  N         15.3510   -9.4180    1.6520 N.3    23  GLY23      -0.1225
     21  CA        14.9070   -9.0920    2.9920 C.3    23  GLY23       0.1811
     22  C         13.7310   -8.1350    2.9360 C.2    23  GLY23       0.2280
     23  O         13.7520   -7.1790    2.1570 O.2    23  GLY23      -0.2866
     24  N         12.2320   -8.3440    8.7880 N.3    47  ASN47      -0.1240
     25  CA        13.6790   -8.3900    8.7570 C.3    47  ASN47       0.1653
     26  C         14.2090   -7.0790    9.2550 C.2    47  ASN47       0.2266
     27  O         15.3640   -6.9510    9.6550 O.2    47  ASN47      -0.2867
     28  CB        14.1700   -8.5410    7.3130 C.3    47  ASN47       0.1155
     29  CG        13.9010   -9.9190    6.7310 C.2    47  ASN47       0.2627
     30  OD1       14.7910  -10.7630    6.6640 O.2    47  ASN47      -0.2716
     31  ND2       12.6660  -10.1480    6.2880 N.am   47  ASN47      -0.0877
     32  N         15.2130  -14.9410   14.6160 N.3    83  ARG83      -0.1245
     33  CA        15.8400  -14.1760   13.5500 C.3    83  ARG83       0.1563
     34  C         16.2590  -12.8430   14.1100 C.2    83  ARG83       0.2260
     35  O         15.5850  -12.3270   14.9790 O.2    83  ARG83      -0.2867
     36  CB        14.8370  -13.9240   12.4350 C.3    83  ARG83       0.0307
     37  CG        14.1580  -15.1570   11.9190 C.3    83  ARG83       0.0489
     38  CD        15.1100  -15.9760   11.1110 C.3    83  ARG83       0.2205
     39  NE        14.4170  -17.1410   10.5970 N.pl3  83  ARG83      -0.0865
     40  CZ        14.2470  -18.2570   11.2950 C.cat  83  ARG83       0.5346
     41  NH1       14.7340  -18.3370   12.5270 N.pl3  83  ARG83       0.1354
     42  NH2       13.5970  -19.2890   10.7660 N.pl3  83  ARG83       0.1354
     43  N         20.6020   -7.6530    6.8840 N.3   435  HIS435     -0.1241
     44  CA        19.4290   -7.9620    6.0870 C.3   435  HIS435      0.1621
     45  C         19.3720   -7.0500    4.8670 C.2   435  HIS435      0.2264
     46  O         18.6780   -7.3200    3.8830 O.2   435  HIS435     -0.2867
     47  CB        18.1650   -7.8080    6.9030 C.3   435  HIS435      0.0745
     48  CG        17.9590   -8.9070    7.8870 C.ar  435  HIS435      0.0817
     49  ND1       18.7600   -9.0600    8.9970 N.ar  435  HIS435     -0.2268
     50  CD2       17.0510   -9.9030    7.9310 C.ar  435  HIS435      0.1154
     51  CE1       18.3440  -10.1100    9.6840 C.ar  435  HIS435      0.1986
     52  NE2       17.3060  -10.6390    9.0630 N.ar  435  HIS435     -0.2212
     53  N         21.3600   -7.0290    2.8190 N.3   437  TYR437     -0.1241
     54  CA        22.1340   -7.6920    1.7720 C.3   437  TYR437      0.1605
     55  C         21.4750   -8.9610    1.2190 C.2   437  TYR437      0.2264
     56  O         21.1000   -9.8740    1.9870 O.2   437  TYR437     -0.2867
     57  CB        23.5430   -7.9960    2.2560 C.3   437  TYR437      0.0534
     58  CG        24.4360   -6.7890    2.3990 C.ar  437  TYR437     -0.0201
     59  CD1       24.0780   -5.7030    3.1790 C.ar  437  TYR437     -0.0009
     60  CD2       25.6600   -6.7590    1.7970 C.ar  437  TYR437     -0.0009
     61  CE1       24.9250   -4.6100    3.3250 C.ar  437  TYR437      0.0417
     62  CE2       26.5000   -5.6700    1.9260 C.ar  437  TYR437      0.0417
     63  CZ        26.1360   -4.6050    2.6860 C.ar  437  TYR437      0.1957
     64  OH        27.0090   -3.5470    2.7790 O.3   437  TYR437     -0.2866
     65  N         20.5040  -12.4780   -0.3430 N.3   439  GLY439     -0.1210
     66  CA        20.9660  -13.8170   -0.0140 C.3   439  GLY439      0.1956
     67  C         22.0100  -13.9600    1.0880 C.2   439  GLY439      0.2612
     68  O         22.8220  -14.8700    1.0500 O.2   439  GLY439     -0.2717
     69  N         22.0160  -13.0510    2.0580 N.am  440  ILE440     -0.1965
     70  CA        22.7620  -13.2410    3.3100 C.3   440  ILE440      0.1727
     71  C         21.7500  -13.4760    4.4390 C.2   440  ILE440      0.2616
     72  O         20.7830  -12.7540    4.5540 O.2   440  ILE440     -0.2715
     73  CB        23.5560  -11.9980    3.6790 C.3   440  ILE440      0.0290
     74  CG1       24.5960  -11.6970    2.6270 C.3   440  ILE440      0.0022
     75  CG2       24.2530  -12.2110    4.9650 C.3   440  ILE440      0.0023
     76  CD1       25.6200  -10.6780    3.0680 C.3   440  ILE440      0.0001
     77  N         21.9460  -14.4910    5.2630 N.am  441  PHE441     -0.1960
     78  CA        21.0000  -14.7700    6.3370 C.3   441  PHE441      0.1756
     79  C         21.8220  -14.7520    7.5970 C.2   441  PHE441      0.2461
     80  O         22.6880  -15.6070    7.7830 O.2   441  PHE441     -0.2730
     81  CB        20.3480  -16.1380    6.1590 C.3   441  PHE441      0.0574
     82  CG        19.6290  -16.3000    4.8530 C.ar  441  PHE441     -0.0200
     83  CD1       20.3270  -16.2580    3.6390 C.ar  441  PHE441     -0.0042
     84  CD2       18.2620  -16.5190    4.8280 C.ar  441  PHE441     -0.0042
     85  CE1       19.6740  -16.3970    2.4240 C.ar  441  PHE441     -0.0003
     86  CE2       17.5940  -16.6680    3.6280 C.ar  441  PHE441     -0.0003
     87  CZ        18.2990  -16.6130    2.4170 C.ar  441  PHE441     -0.0000
     88  N         21.6030  -13.7500    8.4560 N.am  442  PRO442     -0.2727
     89  CA        22.4820  -13.6760    9.6180 C.3   442  PRO442      0.1402
     90  C         21.9580  -14.5200   10.7720 C.2   442  PRO442      0.2269
     91  O         20.7880  -14.9380   10.8570 O.2   442  PRO442     -0.2865
     92  CB        22.4830  -12.1880    9.9760 C.3   442  PRO442      0.0296
     93  CG        21.3880  -11.5480    9.1050 C.3   442  PRO442      0.0237
     94  CD        20.6100  -12.6700    8.4660 C.3   442  PRO442      0.0939
     95  N         16.8050  -24.6790   10.2360 N.3   471  ARG471     -0.1245
     96  CA        16.1930  -23.7740    9.2720 C.3   471  ARG471      0.1563
     97  C         15.7410  -24.5470    8.0280 C.2   471  ARG471      0.2260
     98  O         14.7090  -24.2360    7.4260 O.2   471  ARG471     -0.2867
     99  CB        17.1840  -22.6820    8.8680 C.3   471  ARG471      0.0307
    100  CG        16.6110  -21.2730    8.8820 C.3   471  ARG471      0.0489
    101  CD        16.3710  -20.7860   10.3080 C.3   471  ARG471      0.2205
    102  NE        17.4320  -19.9040   10.7990 N.pl3 471  ARG471     -0.0865
    103  CZ        17.6650  -18.6660   10.3550 C.cat 471  ARG471      0.5346
    104  NH1       16.9320  -18.1510    9.3730 N.pl3 471  ARG471      0.1354
    105  NH2       18.6500  -17.9430   10.8830 N.pl3 471  ARG471      0.1354
@<TRIPOS>BOND
     1    19    17   am
     2    16    17    1
     3    16    13    1
     4    17    18    2
     5    12    13    1
     6    12     3   am
     7    15    14    2
     8    13    14    1
     9     2     3    1
    10     2     1    1
    11     2     5    1
    12    65    66    1
    13     3     4    2
    14    66    67    1
    15     5     6    1
    16     6     7    1
    17     7     8    1
    18    68    67    2
    19    67    69   am
    20    55    54    1
    21    55    56    2
    22    20    21    1
    23    54    57    1
    24    54    53    1
    25    60    62   ar
    26    60    58   ar
    27    62    63   ar
    28    69    70    1
    29    23    22    2
    30    57    58    1
    31    58    59   ar
    32    87    85   ar
    33    87    86   ar
    34     8     9    2
    35    85    83   ar
    36    74    76    1
    37    74    73    1
    38    63    64    1
    39    63    61   ar
    40    22    21    1
    41    59    61   ar
    42    70    73    1
    43    70    71    1
    44    10     9    1
    45     9    11    1
    46    86    84   ar
    47    83    82   ar
    48    73    75    1
    49    46    45    2
    50    71    72    2
    51    71    77   am
    52    84    82   ar
    53    82    81    1
    54    45    44    1
    55    77    78    1
    56    44    43    1
    57    44    47    1
    58    81    78    1
    59    31    29   am
    60    78    79    1
    61    30    29    2
    62    29    28    1
    63    47    48    1
    64    28    25    1
    65    98    97    2
    66    79    80    2
    67    79    88   am
    68    48    50   ar
    69    48    49   ar
    70    50    52   ar
    71    97    96    1
    72    88    94    1
    73    88    89    1
    74    94    93    1
    75    25    24    1
    76    25    26    1
    77    99   100    1
    78    99    96    1
    79   100   101    1
    80    49    51   ar
    81    52    51   ar
    82    93    92    1
    83    26    27    2
    84    96    95    1
    85   104   103    1
    86    89    92    1
    87    89    90    1
    88   101   102    1
    89   103   102    2
    90   103   105    1
    91    39    38    1
    92    39    40    2
    93    42    40    1
    94    90    91    2
    95    38    37    1
    96    40    41    1
    97    37    36    1
    98    36    33    1
    99    33    34    1
   100    33    32    1
   101    34    35    2
