@<TRIPOS>MOLECULE
tmp/4qg7B00.pdb
 148 141 0 0 0
SMALL
GASTEIGER

@<TRIPOS>ATOM
      1  N         39.4740    1.3650  -23.7180 N.3    10  GLU10      -0.1245
      2  CA        40.7600    1.8810  -23.3000 C.3    10  GLU10       0.1567
      3  C         41.7010    1.7890  -24.5310 C.2    10  GLU10       0.2260
      4  O         41.4750    0.9780  -25.4360 O.2    10  GLU10      -0.2867
      5  CB        41.3070    1.0450  -22.1400 C.3    10  GLU10       0.0388
      6  CG        40.6190    1.3750  -20.8350 C.3    10  GLU10       0.1160
      7  CD        41.0590    0.4740  -19.6980 C.2    10  GLU10       0.3649
      8  OE1       42.2600    0.5020  -19.3350 O.co2  10  GLU10      -0.2457
      9  OE2       40.2020   -0.2820  -19.1880 O.co2  10  GLU10      -0.2457
     10  N         31.5350   10.6890  -14.4450 N.3    36  GLU36      -0.1231
     11  CA        30.8600   10.1310  -13.2790 C.3    36  GLU36       0.1684
     12  C         31.9210    9.5200  -12.3560 C.2    36  GLU36       0.2434
     13  O         32.8470    8.8620  -12.8540 O.2    36  GLU36      -0.2733
     14  CB        29.8550    9.0430  -13.6970 C.3    36  GLU36       0.0402
     15  CG        28.7490    9.5710  -14.5850 C.3    36  GLU36       0.1161
     16  CD        28.1880    8.5350  -15.5400 C.2    36  GLU36       0.3649
     17  OE1       27.0980    8.8000  -16.0930 O.co2  36  GLU36      -0.2457
     18  OE2       28.8110    7.4590  -15.7160 O.co2  36  GLU36      -0.2457
     19  N         31.7450    9.5950  -11.0190 N.am   37  PRO37      -0.2729
     20  CA        30.6880   10.3180  -10.2730 C.3    37  PRO37       0.1401
     21  C         30.8810   11.8560  -10.2260 C.2    37  PRO37       0.2269
     22  O         29.9410   12.5920   -9.9440 O.2    37  PRO37      -0.2865
     23  CB        30.7160    9.6440   -8.9000 C.3    37  PRO37       0.0296
     24  CG        32.1630    9.2120   -8.7160 C.3    37  PRO37       0.0237
     25  CD        32.6970    8.9110  -10.1100 C.3    37  PRO37       0.0939
     26  N         29.1520    5.5530   -3.8290 N.3    46  ILE46      -0.1231
     27  CA        28.8200    4.4050   -4.6920 C.3    46  ILE46       0.1692
     28  C         30.1060    3.8750   -5.3700 C.2    46  ILE46       0.2591
     29  O         30.3490    2.6570   -5.4000 O.2    46  ILE46      -0.2718
     30  CB        27.7160    4.7710   -5.7080 C.3    46  ILE46       0.0266
     31  CG1       26.3610    5.0410   -5.0140 C.3    46  ILE46       0.0019
     32  CG2       27.5660    3.6660   -6.7690 C.3    46  ILE46       0.0020
     33  CD1       25.3290    5.7700   -5.8840 C.3    46  ILE46       0.0001
     34  N         30.9370    4.7970   -5.8990 N.am   47  ARG47      -0.1980
     35  CA        32.2080    4.4600   -6.5480 C.3    47  ARG47       0.1597
     36  C         33.1020    3.6480   -5.5930 C.2    47  ARG47       0.2287
     37  O         33.6430    2.6320   -6.0090 O.2    47  ARG47      -0.2864
     38  CB        32.9140    5.7480   -7.0240 C.3    47  ARG47       0.0334
     39  CG        34.3240    5.5080   -7.5630 C.3    47  ARG47       0.0492
     40  CD        34.9890    6.8120   -7.9900 C.3    47  ARG47       0.2205
     41  NE        36.3840    6.5810   -8.3810 N.pl3  47  ARG47      -0.0865
     42  CZ        37.4270    6.5900   -7.5470 C.cat  47  ARG47       0.5346
     43  NH1       37.2500    6.8000   -6.2500 N.pl3  47  ARG47       0.1354
     44  NH2       38.6510    6.3620   -8.0030 N.pl3  47  ARG47       0.1354
     45  N         31.8540    0.0570   -5.3890 N.3    50  VAL50      -0.1231
     46  CA        32.2010   -0.6730   -6.6110 C.3    50  VAL50       0.1692
     47  C         33.6690   -1.0910   -6.5860 C.2    50  VAL50       0.2591
     48  O         33.9790   -2.2460   -6.8920 O.2    50  VAL50      -0.2718
     49  CB        31.8580    0.1460   -7.8840 C.3    50  VAL50       0.0266
     50  CG1       32.4120   -0.5170   -9.1510 C.3    50  VAL50       0.0020
     51  CG2       30.3510    0.3600   -7.9920 C.3    50  VAL50       0.0020
     52  N         34.5670   -0.1490   -6.2200 N.am   51  LEU51      -0.1980
     53  CA        36.0140   -0.3960   -6.2140 C.3    51  LEU51       0.1596
     54  C         36.4500   -1.3520   -5.1180 C.2    51  LEU51       0.2287
     55  O         37.3630   -2.1500   -5.3440 O.2    51  LEU51      -0.2864
     56  CB        36.8000    0.9160   -6.1780 C.3    51  LEU51       0.0297
     57  CG        36.6580    1.8210   -7.4060 C.3    51  LEU51       0.0022
     58  CD1       37.3160    3.1640   -7.1400 C.3    51  LEU51       0.0001
     59  CD2       37.2610    1.1850   -8.6480 C.3    51  LEU51       0.0001
     60  N         26.8510   -4.4680   -9.8300 N.3    61  GLU61      -0.1245
     61  CA        27.7880   -3.4880  -10.3830 C.3    61  GLU61       0.1567
     62  C         27.0960   -2.5650  -11.3890 C.2    61  GLU61       0.2260
     63  O         27.2460   -1.3470  -11.2990 O.2    61  GLU61      -0.2867
     64  CB        28.9980   -4.1930  -11.0070 C.3    61  GLU61       0.0388
     65  CG        30.1420   -3.2250  -11.2240 C.3    61  GLU61       0.1160
     66  CD        31.3680   -3.8390  -11.8540 C.2    61  GLU61       0.3649
     67  OE1       31.2650   -4.3180  -13.0040 O.co2  61  GLU61      -0.2457
     68  OE2       32.4460   -3.7910  -11.2230 O.co2  61  GLU61      -0.2457
     69  N         24.9050   -0.1170   -9.6360 N.3    64  LEU64      -0.1231
     70  CA        25.6950    0.9250   -8.9880 C.3    64  LEU64       0.1693
     71  C         26.2190    1.9510  -10.0030 C.2    64  LEU64       0.2592
     72  O         26.1750    3.1550   -9.7160 O.2    64  LEU64      -0.2718
     73  CB        26.8040    0.3570   -8.0950 C.3    64  LEU64       0.0284
     74  CG        26.2910   -0.4400   -6.8820 C.3    64  LEU64       0.0019
     75  CD1       27.4300   -1.0580   -6.1210 C.3    64  LEU64       0.0001
     76  CD2       25.3540    0.4190   -5.9940 C.3    64  LEU64       0.0001
     77  N         26.6740    1.5060  -11.1900 N.am   65  PHE65      -0.1976
     78  CA        27.0690    2.4590  -12.2280 C.3    65  PHE65       0.1639
     79  C         25.8560    3.3470  -12.5920 C.2    65  PHE65       0.2290
     80  O         26.0100    4.5540  -12.7710 O.2    65  PHE65      -0.2864
     81  CB        27.5640    1.7440  -13.4900 C.3    65  PHE65       0.0560
     82  CG        29.0060    1.3210  -13.4240 C.ar   65  PHE65      -0.0200
     83  CD1       30.0230    2.2690  -13.3540 C.ar   65  PHE65      -0.0042
     84  CD2       29.3540   -0.0230  -13.4900 C.ar   65  PHE65      -0.0042
     85  CE1       31.3700    1.8790  -13.3660 C.ar   65  PHE65      -0.0003
     86  CE2       30.6970   -0.4120  -13.4740 C.ar   65  PHE65      -0.0003
     87  CZ        31.6960    0.5340  -13.3850 C.ar   65  PHE65      -0.0000
     88  N         25.1830    5.9610   -9.6450 N.3    68  SER68      -0.1202
     89  CA        26.2080    7.0120   -9.7770 C.3    68  SER68       0.2020
     90  C         25.8440    7.9400  -10.9680 C.2    68  SER68       0.2618
     91  O         25.9220    9.1760  -10.8560 O.2    68  SER68      -0.2717
     92  CB        27.5850    6.3900  -10.0050 C.3    68  SER68       0.2103
     93  OG        28.4760    7.2720  -10.6880 O.3    68  SER68      -0.2182
     94  N         25.4060    7.3320  -12.0970 N.am   69  ARG69      -0.1979
     95  CA        25.0250    8.0640  -13.3210 C.3    69  ARG69       0.1597
     96  C         23.8960    9.0420  -13.0320 C.2    69  ARG69       0.2287
     97  O         23.9790   10.2070  -13.4150 O.2    69  ARG69      -0.2864
     98  CB        24.6290    7.0750  -14.4280 C.3    69  ARG69       0.0334
     99  CG        24.0730    7.6940  -15.7370 C.3    69  ARG69       0.0492
    100  CD        24.3640    6.8100  -16.9420 C.3    69  ARG69       0.2205
    101  NE        25.8030    6.5310  -17.0240 N.pl3  69  ARG69      -0.0865
    102  CZ        26.3540    5.3200  -17.0000 C.cat  69  ARG69       0.5346
    103  NH1       25.5960    4.2350  -17.0990 N.pl3  69  ARG69       0.1354
    104  NH2       27.6670    5.1870  -16.9860 N.pl3  69  ARG69       0.1354
    105  N         32.2300    9.2970  -20.7960 N.3    91  ARG91      -0.1245
    106  CA        31.5180    8.0420  -20.5090 C.3    91  ARG91       0.1563
    107  C         30.1330    8.3200  -19.9260 C.2    91  ARG91       0.2260
    108  O         29.9810    9.1070  -18.9930 O.2    91  ARG91      -0.2867
    109  CB        32.2800    7.0460  -19.5910 C.3    91  ARG91       0.0307
    110  CG        33.6390    6.6150  -20.1560 C.3    91  ARG91       0.0489
    111  CD        34.2010    5.4230  -19.3960 C.3    91  ARG91       0.2205
    112  NE        35.4520    4.9020  -19.9920 N.pl3  91  ARG91      -0.0865
    113  CZ        35.5260    4.1320  -21.0770 C.cat  91  ARG91       0.5346
    114  NH1       34.4280    3.8270  -21.7580 N.pl3  91  ARG91       0.1354
    115  NH2       36.7090    3.7270  -21.5340 N.pl3  91  ARG91       0.1354
    116  N         28.7910    3.3620  -22.1340 N.3    95  SER95      -0.1202
    117  CA        29.8240    2.6080  -21.4130 C.3    95  SER95       0.2020
    118  C         29.1580    1.4470  -20.6530 C.2    95  SER95       0.2619
    119  O         29.6630    0.3300  -20.6770 O.2    95  SER95      -0.2717
    120  CB        30.5630    3.5110  -20.4360 C.3    95  SER95       0.2103
    121  OG        31.5880    4.1870  -21.1400 O.3    95  SER95      -0.2182
    122  N         27.9830    1.6970  -20.0270 N.am   96  SER96      -0.1951
    123  CA        27.3050    0.5960  -19.3490 C.3    96  SER96       0.1924
    124  C         26.8280   -0.4310  -20.3940 C.2    96  SER96       0.2314
    125  O         27.0080   -1.6280  -20.1970 O.2    96  SER96      -0.2863
    126  CB        26.1560    1.0970  -18.4750 C.3    96  SER96       0.2116
    127  OG        26.6570    1.5350  -17.2170 O.3    96  SER96      -0.2180
    128  N         30.2190   -2.3110  -21.7330 N.3    99  TYR99      -0.1227
    129  CA        30.9260   -3.0480  -20.6750 C.3    99  TYR99       0.1736
    130  C         30.0060   -4.0130  -19.9220 C.2    99  TYR99       0.2595
    131  O         30.2640   -5.2170  -19.9180 O.2    99  TYR99      -0.2718
    132  CB        31.6180   -2.0860  -19.7070 C.3    99  TYR99       0.0548
    133  CG        32.8420   -1.4010  -20.2790 C.ar   99  TYR99      -0.0200
    134  CD1       32.7180   -0.3520  -21.1920 C.ar   99  TYR99      -0.0009
    135  CD2       34.1240   -1.8180  -19.9300 C.ar   99  TYR99      -0.0009
    136  CE1       33.8400    0.2670  -21.7390 C.ar   99  TYR99       0.0417
    137  CE2       35.2560   -1.1860  -20.4530 C.ar   99  TYR99       0.0417
    138  CZ        35.1050   -0.1410  -21.3530 C.ar   99  TYR99       0.1957
    139  OH        36.2010    0.4740  -21.9110 O.3    99  TYR99      -0.2866
    140  N         28.9540   -3.4960  -19.2630 N.am  100  GLN100     -0.1979
    141  CA        28.0400   -4.3740  -18.5220 C.3   100  GLN100      0.1601
    142  C         27.1720   -5.2340  -19.4400 C.2   100  GLN100      0.2287
    143  O         27.0330   -6.4350  -19.2180 O.2   100  GLN100     -0.2864
    144  CB        27.1480   -3.5370  -17.5720 C.3   100  GLN100      0.0394
    145  CG        27.8810   -3.1400  -16.2880 C.3   100  GLN100      0.0908
    146  CD        29.0620   -2.2190  -16.5270 C.2   100  GLN100      0.2608
    147  OE1       28.9160   -1.1420  -17.0890 O.2   100  GLN100     -0.2717
    148  NE2       30.2580   -2.6210  -16.1090 N.am  100  GLN100     -0.0878
@<TRIPOS>BOND
     1     4     3    2
     2     3     2    1
     3     1     2    1
     4     2     5    1
     5     5     6    1
     6   116   117    1
     7   139   138    1
     8   114   113    1
     9   136   138   ar
    10   136   134   ar
    11   128   129    1
    12   115   113    1
    13   117   118    1
    14   117   120    1
    15   138   137   ar
    16   134   133   ar
    17   121   120    1
    18   113   112    2
    19     6     7    1
    20   105   106    1
    21   119   118    2
    22   129   130    1
    23   129   132    1
    24   118   122   am
    25   106   107    1
    26   106   109    1
    27   137   135   ar
    28   124   125    2
    29   124   123    1
    30   133   135   ar
    31   133   132    1
    32   110   109    1
    33   110   111    1
    34   122   123    1
    35   112   111    1
    36   107   108    2
    37   130   131    2
    38   130   140   am
    39     7     8   ar
    40     7     9   ar
    41   142   143    2
    42   142   141    1
    43   123   126    1
    44   140   141    1
    45   141   144    1
    46   126   127    1
    47   144   145    1
    48   103   102    1
    49   147   146    2
    50   101   102    2
    51   101   100    1
    52   102   104    1
    53   100    99    1
    54   146   145    1
    55   146   148   am
    56    17    16   ar
    57    99    98    1
    58    18    16   ar
    59    16    15    1
    60    15    14    1
    61    10    11    1
    62    98    95    1
    63    14    11    1
    64    84    86   ar
    65    84    82   ar
    66    81    82    1
    67    81    78    1
    68    86    87   ar
    69    82    83   ar
    70    97    96    2
    71    87    85   ar
    72    85    83   ar
    73    95    96    1
    74    95    94    1
    75    11    12    1
    76    67    66   ar
    77    13    12    2
    78    80    79    2
    79    79    78    1
    80    12    19   am
    81    78    77    1
    82    94    90   am
    83    66    65    1
    84    66    68   ar
    85    62    63    2
    86    62    61    1
    87    65    64    1
    88    77    71   am
    89    19    20    1
    90    19    25    1
    91    64    61    1
    92    90    91    2
    93    90    89    1
    94    93    92    1
    95    61    60    1
    96    20    21    1
    97    20    23    1
    98    21    22    2
    99    25    24    1
   100    92    89    1
   101    71    72    2
   102    71    70    1
   103    89    88    1
   104    69    70    1
   105    50    49    1
   106    70    73    1
   107    23    24    1
   108    59    57    1
   109    41    40    1
   110    41    42    2
   111    73    74    1
   112    44    42    1
   113    51    49    1
   114    40    39    1
   115    49    46    1
   116    39    38    1
   117    42    43    1
   118    57    58    1
   119    57    56    1
   120    38    35    1
   121    48    47    2
   122    74    75    1
   123    74    76    1
   124    32    30    1
   125    46    47    1
   126    46    45    1
   127    47    52   am
   128    35    34    1
   129    35    36    1
   130    52    53    1
   131    53    56    1
   132    53    54    1
   133    37    36    2
   134    34    28   am
   135    33    31    1
   136    30    31    1
   137    30    27    1
   138    29    28    2
   139    28    27    1
   140    55    54    2
   141    27    26    1
