@<TRIPOS>MOLECULE
tmp/4qg8B00.pdb
 91 80 0 0 0
SMALL
GASTEIGER

@<TRIPOS>ATOM
      1  N        -35.7340  -23.4080  -60.5920 N.3    49  ARG49      -0.1245
      2  CA       -35.3540  -22.0150  -60.8020 C.3    49  ARG49       0.1563
      3  C        -35.5410  -21.5940  -62.2530 C.2    49  ARG49       0.2260
      4  O        -35.0040  -22.2260  -63.1640 O.2    49  ARG49      -0.2867
      5  CB       -33.9010  -21.7740  -60.3860 C.3    49  ARG49       0.0307
      6  CG       -33.4480  -20.3280  -60.5550 C.3    49  ARG49       0.0489
      7  CD       -32.0130  -20.1200  -60.0940 C.3    49  ARG49       0.2205
      8  NE       -31.0430  -20.5730  -61.0850 N.pl3  49  ARG49      -0.0865
      9  CZ       -30.3020  -19.7620  -61.8340 C.cat  49  ARG49       0.5346
     10  NH1      -30.4080  -18.4470  -61.7040 N.pl3  49  ARG49       0.1354
     11  NH2      -29.4460  -20.2690  -62.7100 N.pl3  49  ARG49       0.1354
     12  N        -34.7010  -18.6140  -64.7670 N.3    51  ASN51      -0.1240
     13  CA       -33.8560  -17.4380  -64.9190 C.3    51  ASN51       0.1653
     14  C        -34.4180  -16.4390  -65.9250 C.2    51  ASN51       0.2266
     15  O        -34.3900  -16.6750  -67.1330 O.2    51  ASN51      -0.2867
     16  CB       -32.4330  -17.8480  -65.3090 C.3    51  ASN51       0.1155
     17  CG       -31.4500  -16.6990  -65.2170 C.2    51  ASN51       0.2627
     18  OD1      -31.7980  -15.6050  -64.7730 O.2    51  ASN51      -0.2716
     19  ND2      -30.2110  -16.9430  -65.6270 N.am   51  ASN51      -0.0877
     20  N        -35.9270  -16.1170  -60.8680 N.3    89  ASP89      -0.1239
     21  CA       -34.6410  -15.4390  -60.7800 C.3    89  ASP89       0.1674
     22  C        -34.6720  -14.1900  -61.6530 C.2    89  ASP89       0.2266
     23  O        -34.7720  -14.2800  -62.8790 O.2    89  ASP89      -0.2867
     24  CB       -33.5180  -16.3770  -61.2290 C.3    89  ASP89       0.1410
     25  CG       -32.1730  -16.0040  -60.6370 C.2    89  ASP89       0.3668
     26  OD1      -31.5700  -15.0140  -61.0980 O.co2  89  ASP89      -0.2456
     27  OD2      -31.7130  -16.7080  -59.7130 O.co2  89  ASP89      -0.2456
     28  N        -29.7440  -12.2820  -53.5830 N.3   243  LYS243     -0.1245
     29  CA       -28.5120  -12.8280  -54.1260 C.3   243  LYS243      0.1561
     30  C        -27.3680  -11.8570  -53.8750 C.2   243  LYS243      0.2260
     31  O        -27.4150  -10.7040  -54.3070 O.2   243  LYS243     -0.2867
     32  CB       -28.6580  -13.0910  -55.6270 C.3   243  LYS243      0.0271
     33  CG       -29.7880  -14.0460  -55.9780 C.3   243  LYS243      0.0035
     34  CD       -30.1150  -13.9960  -57.4610 C.3   243  LYS243      0.0206
     35  CE       -28.9100  -14.3600  -58.3150 C.3   243  LYS243      0.1093
     36  NZ       -29.2420  -14.3220  -59.7690 N.3   243  LYS243     -0.1314
     37  N        -23.8190  -10.9180  -54.8190 N.3   245  GLU245     -0.1245
     38  CA       -22.8810  -11.1800  -55.9050 C.3   245  GLU245      0.1567
     39  C        -21.9390  -10.0170  -56.2010 C.2   245  GLU245      0.2260
     40  O        -21.3520   -9.9470  -57.2780 O.2   245  GLU245     -0.2867
     41  CB       -23.6330  -11.6040  -57.1700 C.3   245  GLU245      0.0388
     42  CG       -24.9840  -10.9310  -57.3550 C.3   245  GLU245      0.1160
     43  CD       -25.7870  -11.5420  -58.4910 C.2   245  GLU245      0.3649
     44  OE1      -25.2380  -12.3990  -59.2150 O.co2 245  GLU245     -0.2457
     45  OE2      -26.9680  -11.1680  -58.6590 O.co2 245  GLU245     -0.2457
     46  N        -28.9240  -15.9680  -51.0840 N.3   264  MET264     -0.1245
     47  CA       -28.1680  -16.8320  -51.9850 C.3   264  MET264      0.1570
     48  C        -26.7400  -16.3220  -52.1210 C.2   264  MET264      0.2261
     49  O        -26.5180  -15.1640  -52.4690 O.2   264  MET264     -0.2867
     50  CB       -28.8110  -16.9070  -53.3750 C.3   264  MET264      0.0387
     51  CG       -27.9400  -17.6560  -54.3920 C.3   264  MET264      0.0595
     52  SD       -28.4440  -17.4820  -56.1180 S.3   264  MET264     -0.1393
     53  CE       -30.0720  -18.2240  -56.0650 C.3   264  MET264      0.0692
     54  N        -24.2290  -16.0240  -54.3830 N.3   266  ALA266     -0.1245
     55  CA       -24.1150  -16.1070  -55.8360 C.3   266  ALA266      0.1562
     56  C        -22.6560  -16.0200  -56.2830 C.2   266  ALA266      0.2260
     57  O        -22.2130  -14.9910  -56.7950 O.2   266  ALA266     -0.2867
     58  CB       -24.9410  -15.0130  -56.4870 C.3   266  ALA266      0.0290
     59  N        -20.8490  -16.9610  -58.6840 N.3   268  GLY268     -0.1210
     60  CA       -20.4980  -16.6690  -60.0650 C.3   268  GLY268      0.1956
     61  C        -20.0540  -15.2360  -60.2840 C.2   268  GLY268      0.2611
     62  O        -18.8850  -14.9790  -60.5750 O.2   268  GLY268     -0.2717
     63  N        -20.9850  -14.2980  -60.1460 N.am  269  ASP269     -0.1973
     64  CA       -20.6490  -12.8850  -60.2760 C.3   269  ASP269      0.1709
     65  C        -19.7620  -12.4130  -59.1280 C.2   269  ASP269      0.2293
     66  O        -18.8970  -11.5570  -59.3160 O.2   269  ASP269     -0.2864
     67  CB       -21.9120  -12.0260  -60.3650 C.3   269  ASP269      0.1436
     68  CG       -22.4410  -11.9130  -61.7800 C.2   269  ASP269      0.3671
     69  OD1      -21.8900  -11.1030  -62.5540 O.co2 269  ASP269     -0.2456
     70  OD2      -23.4000  -12.6370  -62.1220 O.co2 269  ASP269     -0.2456
     71  N        -24.0060  -21.9320  -58.0390 N.3   301  THR301     -0.1218
     72  CA       -23.0810  -21.6680  -59.1430 C.3   301  THR301      0.1862
     73  C        -21.8400  -22.5610  -59.1970 C.2   301  THR301      0.2287
     74  O        -21.0040  -22.5530  -58.2880 O.2   301  THR301     -0.2866
     75  CB       -22.6610  -20.1840  -59.2130 C.3   301  THR301      0.1770
     76  OG1      -23.8130  -19.3530  -59.0340 O.3   301  THR301     -0.2211
     77  CG2      -22.0130  -19.8790  -60.5560 C.3   301  THR301      0.0375
     78  N        -27.5160  -25.6220  -55.1900 N.3   333  MET333     -0.1245
     79  CA       -28.0950  -25.2600  -56.4830 C.3   333  MET333      0.1570
     80  C        -27.3270  -25.7960  -57.6910 C.2   333  MET333      0.2261
     81  O        -26.1040  -25.9430  -57.6590 O.2   333  MET333     -0.2867
     82  CB       -28.2500  -23.7390  -56.6020 C.3   333  MET333      0.0387
     83  CG       -29.2550  -23.3040  -57.6610 C.3   333  MET333      0.0595
     84  SD       -29.5690  -21.5280  -57.6860 S.3   333  MET333     -0.1393
     85  CE       -28.4630  -21.0070  -58.9990 C.3   333  MET333      0.0692
     86  N        -27.0740  -25.0030  -61.9560 N.3   335  SER335     -0.1217
     87  CA       -27.4210  -24.0540  -63.0070 C.3   335  SER335      0.1889
     88  C        -27.3420  -24.6980  -64.3880 C.2   335  SER335      0.2288
     89  O        -28.2820  -25.3630  -64.8190 O.2   335  SER335     -0.2866
     90  CB       -26.5260  -22.8160  -62.9380 C.3   335  SER335      0.2089
     91  OG       -26.7190  -22.1200  -61.7190 O.3   335  SER335     -0.2183
@<TRIPOS>BOND
     1    15    14    2
     2    14    13    1
     3    19    17   am
     4    16    17    1
     5    16    13    1
     6    17    18    2
     7    13    12    1
     8    89    88    2
     9    88    87    1
    10     4     3    2
    11    87    90    1
    12    87    86    1
    13    90    91    1
    14    23    22    2
    15    11     9    1
    16    69    68   ar
    17     3     2    1
    18    70    68   ar
    19     9    10    1
    20     9     8    2
    21    68    67    1
    22    22    21    1
    23    24    21    1
    24    24    25    1
    25    26    25   ar
    26     8     7    1
    27    20    21    1
    28     2     1    1
    29     2     5    1
    30    25    27   ar
    31    62    61    2
    32    77    75    1
    33     6     5    1
    34     6     7    1
    35    67    64    1
    36    61    63   am
    37    61    60    1
    38    64    63    1
    39    64    65    1
    40    60    59    1
    41    36    35    1
    42    66    65    2
    43    44    43   ar
    44    75    72    1
    45    75    76    1
    46    73    72    1
    47    73    74    2
    48    72    71    1
    49    85    84    1
    50    45    43   ar
    51    43    42    1
    52    35    34    1
    53    80    81    2
    54    80    79    1
    55    84    83    1
    56    83    82    1
    57    34    33    1
    58    42    41    1
    59    40    39    2
    60    41    38    1
    61    57    56    2
    62    82    79    1
    63    58    55    1
    64    79    78    1
    65    56    55    1
    66    39    38    1
    67    52    53    1
    68    52    51    1
    69    33    32    1
    70    38    37    1
    71    55    54    1
    72    32    29    1
    73    51    50    1
    74    31    30    2
    75    29    30    1
    76    29    28    1
    77    50    47    1
    78    49    48    2
    79    48    47    1
    80    47    46    1
