@<TRIPOS>MOLECULE
tmp/4qgeA00.pdb
 150 144 0 0 0
SMALL
GASTEIGER

@<TRIPOS>ATOM
      1  N         86.3540   57.1770   43.2110 N.3    67  PHE67      -0.1227
      2  CA        85.7680   55.9220   43.6890 C.3    67  PHE67       0.1736
      3  C         86.6690   54.6890   43.5260 C.2    67  PHE67       0.2595
      4  O         87.0220   54.0420   44.5110 O.2    67  PHE67      -0.2718
      5  CB        84.4400   55.6830   42.9610 C.3    67  PHE67       0.0547
      6  CG        83.6400   54.5370   43.5020 C.ar   67  PHE67      -0.0202
      7  CD1       82.6030   54.7630   44.4060 C.ar   67  PHE67      -0.0042
      8  CD2       83.8940   53.2290   43.0800 C.ar   67  PHE67      -0.0042
      9  CE1       81.8190   53.7040   44.8790 C.ar   67  PHE67      -0.0003
     10  CE2       83.1230   52.1630   43.5450 C.ar   67  PHE67      -0.0003
     11  CZ        82.0810   52.3970   44.4450 C.ar   67  PHE67      -0.0000
     12  N         87.0390   54.3720   42.2870 N.am   68  HIS68      -0.1975
     13  CA        87.8680   53.2030   42.0040 C.3    68  HIS68       0.1656
     14  C         89.3370   53.3680   42.3500 C.2    68  HIS68       0.2291
     15  O         90.2170   53.3580   41.4830 O.2    68  HIS68      -0.2864
     16  CB        87.7050   52.7860   40.5370 C.3    68  HIS68       0.0771
     17  CG        86.3500   52.2330   40.2270 C.ar   68  HIS68       0.0820
     18  ND1       85.3200   53.0120   39.7420 N.ar   68  HIS68      -0.2267
     19  CD2       85.8250   50.9990   40.4250 C.ar   68  HIS68       0.1154
     20  CE1       84.2190   52.2850   39.6590 C.ar   68  HIS68       0.1986
     21  NE2       84.4970   51.0600   40.0690 N.ar   68  HIS68      -0.2212
     22  N         79.6020   44.4410   35.7350 N.3   181  MET181     -0.1245
     23  CA        78.1560   44.5530   35.9300 C.3   181  MET181      0.1570
     24  C         77.2940   44.2680   34.6990 C.2   181  MET181      0.2261
     25  O         76.0980   44.0070   34.8220 O.2   181  MET181     -0.2867
     26  CB        77.8060   45.9270   36.4960 C.3   181  MET181      0.0387
     27  CG        78.1290   46.0680   37.9710 C.3   181  MET181      0.0595
     28  SD        77.3570   44.7380   38.9360 S.3   181  MET181     -0.1393
     29  CE        75.6290   45.2440   38.9170 C.3   181  MET181      0.0692
     30  N         75.8230   41.0720   35.1330 N.3   184  HIS184     -0.1241
     31  CA        75.0810   40.8590   36.3620 C.3   184  HIS184      0.1621
     32  C         73.8480   39.9690   36.2170 C.2   184  HIS184      0.2264
     33  O         73.7000   38.9910   36.9500 O.2   184  HIS184     -0.2867
     34  CB        74.6480   42.1840   36.9760 C.3   184  HIS184      0.0745
     35  CG        73.8990   42.0180   38.2590 C.ar  184  HIS184      0.0817
     36  ND1       74.5230   41.6980   39.4460 N.ar  184  HIS184     -0.2268
     37  CD2       72.5720   42.0490   38.5280 C.ar  184  HIS184      0.1154
     38  CE1       73.6130   41.5380   40.3910 C.ar  184  HIS184      0.1986
     39  NE2       72.4210   41.7450   39.8600 N.ar  184  HIS184     -0.2212
     40  N         82.1240   43.5430   46.0410 N.3   218  ASP218     -0.1225
     41  CA        82.4680   44.6440   45.1620 C.3   218  ASP218      0.1805
     42  C         81.4730   45.8010   45.2630 C.2   218  ASP218      0.2597
     43  O         81.8740   46.9540   45.2970 O.2   218  ASP218     -0.2718
     44  CB        82.5630   44.1160   43.7270 C.3   218  ASP218      0.1424
     45  CG        83.0410   45.1590   42.7360 C.2   218  ASP218      0.3668
     46  OD1       83.8410   46.0540   43.1030 O.co2 218  ASP218     -0.2456
     47  OD2       82.6250   45.0610   41.5640 O.co2 218  ASP218     -0.2456
     48  N         80.1840   45.4970   45.3410 N.am  219  ILE219     -0.1980
     49  CA        79.1770   46.5450   45.4210 C.3   219  ILE219      0.1595
     50  C         78.4940   46.6030   46.7870 C.2   219  ILE219      0.2287
     51  O         77.3650   47.0750   46.8930 O.2   219  ILE219     -0.2864
     52  CB        78.0870   46.3450   44.3310 C.3   219  ILE219      0.0276
     53  CG1       77.3210   45.0430   44.5860 C.3   219  ILE219      0.0022
     54  CG2       78.7240   46.2810   42.9510 C.3   219  ILE219      0.0022
     55  CD1       76.1500   44.8280   43.6460 C.3   219  ILE219      0.0001
     56  N         79.0550   48.5250   49.5290 N.3   221  ASN221     -0.1225
     57  CA        79.0730   49.7430   50.3360 C.3   221  ASN221      0.1785
     58  C         77.8140   49.9930   51.1650 C.2   221  ASN221      0.2597
     59  O         77.9010   50.2610   52.3550 O.2   221  ASN221     -0.2718
     60  CB        79.3470   50.9710   49.4640 C.3   221  ASN221      0.1169
     61  CG        80.7900   51.0540   49.0160 C.2   221  ASN221      0.2627
     62  OD1       81.6790   50.4850   49.6510 O.2   221  ASN221     -0.2716
     63  ND2       81.0380   51.7810   47.9270 N.am  221  ASN221     -0.0877
     64  N         76.6420   49.9050   50.5490 N.am  222  GLU222     -0.1979
     65  CA        75.4090   50.1550   51.2800 C.3   222  GLU222      0.1602
     66  C         75.0750   49.1340   52.3760 C.2   222  GLU222      0.2287
     67  O         74.1080   49.2990   53.1200 O.2   222  GLU222     -0.2864
     68  CB        74.2520   50.2920   50.2930 C.3   222  GLU222      0.0415
     69  CG        74.3340   51.5800   49.4820 C.3   222  GLU222      0.1163
     70  CD        74.1710   52.8210   50.3460 C.2   222  GLU222      0.3649
     71  OE1       74.5370   53.9320   49.9020 O.co2 222  GLU222     -0.2457
     72  OE2       73.6630   52.6840   51.4740 O.co2 222  GLU222     -0.2457
     73  N         78.8350   57.3360   48.0470 N.3   233  VAL233     -0.1245
     74  CA        77.9630   57.7800   46.9740 C.3   233  VAL233      0.1561
     75  C         78.5170   59.0420   46.3250 C.2   233  VAL233      0.2260
     76  O         78.5080   59.1740   45.1040 O.2   233  VAL233     -0.2867
     77  CB        76.5370   58.0730   47.4640 C.3   233  VAL233      0.0252
     78  CG1       75.6490   58.3580   46.2700 C.3   233  VAL233      0.0019
     79  CG2       75.9930   56.8910   48.2490 C.3   233  VAL233      0.0019
     80  N         81.3170   58.1110   44.1440 N.3   236  LEU236     -0.1231
     81  CA        80.8090   57.4650   42.9410 C.3   236  LEU236      0.1693
     82  C         80.2960   58.4940   41.9410 C.2   236  LEU236      0.2591
     83  O         80.6440   58.4640   40.7610 O.2   236  LEU236     -0.2718
     84  CB        79.6640   56.5100   43.2910 C.3   236  LEU236      0.0284
     85  CG        79.0430   55.7690   42.0990 C.3   236  LEU236      0.0019
     86  CD1       80.0100   54.6950   41.5900 C.3   236  LEU236      0.0001
     87  CD2       77.7230   55.1370   42.5210 C.3   236  LEU236      0.0001
     88  N         79.4460   59.3960   42.4110 N.am  237  LEU237     -0.1980
     89  CA        78.8960   60.4080   41.5300 C.3   237  LEU237      0.1596
     90  C         79.9780   61.3350   41.0010 C.2   237  LEU237      0.2287
     91  O         79.8780   61.8440   39.8860 O.2   237  LEU237     -0.2864
     92  CB        77.8140   61.2070   42.2480 C.3   237  LEU237      0.0297
     93  CG        76.5930   60.3600   42.5990 C.3   237  LEU237      0.0022
     94  CD1       75.4820   61.2750   43.1030 C.3   237  LEU237      0.0001
     95  CD2       76.1240   59.5800   41.3710 C.3   237  LEU237      0.0001
     96  N         81.4800   59.3960   38.2220 N.3   240  TYR240     -0.1241
     97  CA        80.4700   59.2930   37.1770 C.3   240  TYR240      0.1605
     98  C         80.3130   60.5960   36.3860 C.2   240  TYR240      0.2264
     99  O         80.1660   60.5780   35.1580 O.2   240  TYR240     -0.2867
    100  CB        79.1210   58.9360   37.7930 C.3   240  TYR240      0.0534
    101  CG        78.8580   57.4600   37.9390 C.ar  240  TYR240     -0.0201
    102  CD1       79.9010   56.5330   37.9180 C.ar  240  TYR240     -0.0009
    103  CD2       77.5600   56.9900   38.1160 C.ar  240  TYR240     -0.0009
    104  CE1       79.6540   55.1790   38.0660 C.ar  240  TYR240      0.0417
    105  CE2       77.3030   55.6350   38.2670 C.ar  240  TYR240      0.0417
    106  CZ        78.3530   54.7360   38.2390 C.ar  240  TYR240      0.1957
    107  OH        78.0910   53.3940   38.3740 O.3   240  TYR240     -0.2866
    108  N         71.8120   57.5870   34.4550 N.3   257  PHE257     -0.1241
    109  CA        72.2700   57.3850   35.8270 C.3   257  PHE257      0.1605
    110  C         73.6330   58.0030   36.0900 C.2   257  PHE257      0.2264
    111  O         74.1240   57.9740   37.2170 O.2   257  PHE257     -0.2867
    112  CB        72.2660   55.8870   36.1940 C.3   257  PHE257      0.0534
    113  CG        73.3050   55.0620   35.4730 C.ar  257  PHE257     -0.0203
    114  CD1       74.5730   54.8820   36.0180 C.ar  257  PHE257     -0.0042
    115  CD2       73.0040   54.4450   34.2610 C.ar  257  PHE257     -0.0042
    116  CE1       75.5290   54.0960   35.3690 C.ar  257  PHE257     -0.0003
    117  CE2       73.9520   53.6570   33.6030 C.ar  257  PHE257     -0.0003
    118  CZ        75.2170   53.4820   34.1600 C.ar  257  PHE257     -0.0000
    119  N         70.2940   57.6190   42.8860 N.3   268  ALA268     -0.1231
    120  CA        71.4260   56.8100   42.4610 C.3   268  ALA268      0.1694
    121  C         71.4650   55.5160   43.2690 C.2   268  ALA268      0.2591
    122  O         71.9650   54.4950   42.7880 O.2   268  ALA268     -0.2718
    123  CB        72.7320   57.5810   42.6610 C.3   268  ALA268      0.0304
    124  N         70.9250   55.5670   44.4890 N.am  269  GLN269     -0.1979
    125  CA        70.9270   54.4220   45.3970 C.3   269  GLN269      0.1601
    126  C         69.6450   53.6050   45.5040 C.2   269  GLN269      0.2287
    127  O         69.6960   52.3770   45.5600 O.2   269  GLN269     -0.2864
    128  CB        71.3150   54.8760   46.8060 C.3   269  GLN269      0.0394
    129  CG        72.7020   55.4690   46.9160 C.3   269  GLN269      0.0908
    130  CD        73.7530   54.5850   46.2800 C.2   269  GLN269      0.2608
    131  OE1       73.8770   54.5340   45.0540 O.2   269  GLN269     -0.2717
    132  NE2       74.5060   53.8700   47.1080 N.am  269  GLN269     -0.0878
    133  N         69.3470   50.9360   42.7590 N.3   272  PHE272     -0.1241
    134  CA        70.4630   50.0240   42.8990 C.3   272  PHE272      0.1605
    135  C         70.2390   49.0940   44.0900 C.2   272  PHE272      0.2264
    136  O         70.5250   47.8990   44.0140 O.2   272  PHE272     -0.2867
    137  CB        71.7540   50.8010   43.1100 C.3   272  PHE272      0.0534
    138  CG        72.9890   49.9570   42.9860 C.ar  272  PHE272     -0.0203
    139  CD1       73.4170   49.5080   41.7410 C.ar  272  PHE272     -0.0042
    140  CD2       73.7180   49.6040   44.1110 C.ar  272  PHE272     -0.0042
    141  CE1       74.5600   48.7150   41.6200 C.ar  272  PHE272     -0.0003
    142  CE2       74.8600   48.8110   44.0030 C.ar  272  PHE272     -0.0003
    143  CZ        75.2820   48.3670   42.7560 C.ar  272  PHE272     -0.0000
    144  N         69.1900   45.5490   42.6690 N.3   276  VAL276     -0.1245
    145  CA        70.4820   44.9150   42.4810 C.3   276  VAL276      0.1561
    146  C         70.9750   44.2860   43.7750 C.2   276  VAL276      0.2260
    147  O         71.1080   43.0720   43.8590 O.2   276  VAL276     -0.2867
    148  CB        71.5360   45.9080   41.9570 C.3   276  VAL276      0.0252
    149  CG1       72.8690   45.1920   41.7440 C.3   276  VAL276      0.0019
    150  CG2       71.0550   46.5220   40.6510 C.3   276  VAL276      0.0019
@<TRIPOS>BOND
     1   117   118   ar
     2   117   115   ar
     3   118   116   ar
     4   115   113   ar
     5   108   109    1
     6    24    25    2
     7    24    23    1
     8    30    31    1
     9    99    98    2
    10   116   114   ar
    11   113   114   ar
    12   113   112    1
    13    22    23    1
    14   109   110    1
    15   109   112    1
    16    23    26    1
    17   110   111    2
    18    32    31    1
    19    32    33    2
    20    31    34    1
    21    98    97    1
    22    26    27    1
    23    34    35    1
    24    97   100    1
    25    97    96    1
    26   100   101    1
    27   102   101   ar
    28   102   104   ar
    29   101   103   ar
    30    27    28    1
    31   104   106   ar
    32   103   105   ar
    33   106   105   ar
    34   106   107    1
    35    35    37   ar
    36    35    36   ar
    37    37    39   ar
    38    29    28    1
    39    36    38   ar
    40    20    18   ar
    41    20    21   ar
    42    18    17   ar
    43    39    38   ar
    44    91    90    2
    45    21    19   ar
    46    17    19   ar
    47    17    16    1
    48    16    13    1
    49   150   148    1
    50    83    82    2
    51    90    89    1
    52    95    93    1
    53    15    14    2
    54    89    92    1
    55    89    88    1
    56    47    45   ar
    57    86    85    1
    58   141   139   ar
    59   141   143   ar
    60   139   138   ar
    61   149   148    1
    62    82    88   am
    63    82    81    1
    64   148   145    1
    65    13    12    1
    66    13    14    1
    67    85    87    1
    68    85    84    1
    69    92    93    1
    70    12     3   am
    71   120   123    1
    72   120   119    1
    73   120   121    1
    74   145   144    1
    75   145   146    1
    76    93    94    1
    77    45    46   ar
    78    45    44    1
    79   143   142   ar
    80   133   134    1
    81   122   121    2
    82   134   137    1
    83   134   135    1
    84    81    84    1
    85    81    80    1
    86    54    52    1
    87     5     6    1
    88     5     2    1
    89   138   137    1
    90   138   140   ar
    91     8     6   ar
    92     8    10   ar
    93     1     2    1
    94   121   124   am
    95     6     7   ar
    96     3     2    1
    97     3     4    2
    98    10    11   ar
    99    55    53    1
   100    44    41    1
   101   146   147    2
   102   142   140   ar
   103   136   135    2
   104    52    53    1
   105    52    49    1
   106     7     9   ar
   107    11     9   ar
   108   124   125    1
   109   131   130    2
   110    76    75    2
   111    41    42    1
   112    41    40    1
   113    42    43    2
   114    42    48   am
   115    48    49    1
   116   125   126    1
   117   125   128    1
   118    49    50    1
   119   126   127    2
   120    78    77    1
   121   130   129    1
   122   130   132   am
   123    75    74    1
   124    50    51    2
   125   128   129    1
   126    74    77    1
   127    74    73    1
   128    77    79    1
   129    63    61   am
   130    61    60    1
   131    61    62    2
   132    60    57    1
   133    69    68    1
   134    69    70    1
   135    56    57    1
   136    71    70   ar
   137    68    65    1
   138    57    58    1
   139    70    72   ar
   140    64    58   am
   141    64    65    1
   142    58    59    2
   143    65    66    1
   144    66    67    2
