@<TRIPOS>MOLECULE
tmp/4qgrA00.pdb
 137 128 0 0 0
SMALL
GASTEIGER

@<TRIPOS>ATOM
      1  N         24.7730   32.3980   73.6010 N.3    60  ASN60      -0.1225
      2  CA        25.4610   32.3280   74.8590 C.3    60  ASN60       0.1785
      3  C         25.3360   33.6600   75.5890 C.2    60  ASN60       0.2598
      4  O         24.8230   34.6510   75.0380 O.2    60  ASN60      -0.2718
      5  CB        26.9490   31.9060   74.6890 C.3    60  ASN60       0.1169
      6  CG        27.7510   32.9560   73.9530 C.2    60  ASN60       0.2627
      7  OD1       27.9150   34.0750   74.4360 O.2    60  ASN60      -0.2716
      8  ND2       28.2000   32.6270   72.7690 N.am   60  ASN60      -0.0877
      9  N         25.7540   33.6540   76.8430 N.am   61  GLY61      -0.1942
     10  CA        25.5880   34.8170   77.7340 C.3    61  GLY61       0.2014
     11  C         26.5560   35.9400   77.4890 C.2    61  GLY61       0.2639
     12  O         26.3940   37.0340   78.0570 O.2    61  GLY61      -0.2714
     13  N         27.5830   35.6890   76.6880 N.am   62  THR62      -0.1950
     14  CA        28.5530   36.7260   76.3230 C.3    62  THR62       0.1897
     15  C         27.9440   37.5320   75.1720 C.2    62  THR62       0.2313
     16  O         27.8240   38.7880   75.2360 O.2    62  THR62      -0.2863
     17  CB        29.9010   36.0930   75.9070 C.3    62  THR62       0.1794
     18  OG1       30.4200   35.3320   77.0020 O.3    62  THR62      -0.2208
     19  CG2       30.8820   37.1750   75.5030 C.3    62  THR62       0.0378
     20  N         25.2620   39.9930   76.2590 N.3    65  LEU65      -0.1245
     21  CA        25.7240   41.3090   76.7390 C.3    65  LEU65       0.1561
     22  C         26.2190   42.1970   75.5980 C.2    65  LEU65       0.2260
     23  O         26.0270   43.4190   75.6390 O.2    65  LEU65      -0.2867
     24  CB        26.8660   41.1110   77.7430 C.3    65  LEU65       0.0270
     25  CG        26.5210   40.3360   79.0270 C.3    65  LEU65       0.0019
     26  CD1       27.7650   39.8860   79.7530 C.3    65  LEU65       0.0001
     27  CD2       25.7230   41.2610   79.9380 C.3    65  LEU65       0.0001
     28  N         33.9410   39.7940   88.6340 N.3    86  THR86      -0.1203
     29  CA        32.9450   39.1310   87.8260 C.3    86  THR86       0.1994
     30  C         33.6790   38.2850   86.7720 C.2    86  THR86       0.2617
     31  O         34.9230   38.3520   86.6420 O.2    86  THR86      -0.2717
     32  CB        32.0050   40.1590   87.1490 C.3    86  THR86       0.1784
     33  OG1       30.9710   39.4840   86.4470 O.3    86  THR86      -0.2211
     34  CG2       32.7810   41.1190   86.1980 C.3    86  THR86       0.0376
     35  N         32.9070   37.5120   86.0110 N.am   87  PHE87      -0.1975
     36  CA        33.4270   36.7620   84.8760 C.3    87  PHE87       0.1639
     37  C         33.8670   37.6850   83.7580 C.2    87  PHE87       0.2290
     38  O         33.2740   38.7520   83.5500 O.2    87  PHE87      -0.2864
     39  CB        32.3390   35.8220   84.3620 C.3    87  PHE87       0.0560
     40  CG        32.7970   34.8930   83.2780 C.ar   87  PHE87      -0.0200
     41  CD1       33.6430   33.8210   83.5700 C.ar   87  PHE87      -0.0042
     42  CD2       32.3550   35.0570   81.9940 C.ar   87  PHE87      -0.0042
     43  CE1       34.0770   32.9690   82.5550 C.ar   87  PHE87      -0.0003
     44  CE2       32.7700   34.2130   80.9770 C.ar   87  PHE87      -0.0003
     45  CZ        33.6090   33.1480   81.2640 C.ar   87  PHE87      -0.0000
     46  N         33.5430   38.0340   80.5670 N.3    89  ALA89      -0.1231
     47  CA        32.5780   38.5010   79.5790 C.3    89  ALA89       0.1694
     48  C         32.0100   39.8930   79.8740 C.2    89  ALA89       0.2592
     49  O         31.8960   40.6470   78.9840 O.2    89  ALA89      -0.2718
     50  CB        31.4370   37.5210   79.4700 C.3    89  ALA89       0.0304
     51  N         31.6920   40.2180   81.1490 N.am   90  THR90      -0.1953
     52  CA        31.0650   41.5050   81.5210 C.3    90  THR90       0.1897
     53  C         31.8920   42.7100   80.9720 C.2    90  THR90       0.2313
     54  O         31.3400   43.6760   80.4600 O.2    90  THR90      -0.2863
     55  CB        30.8800   41.5810   83.0530 C.3    90  THR90       0.1794
     56  OG1       30.2780   40.3480   83.5490 O.3    90  THR90      -0.2208
     57  CG2       30.0210   42.7990   83.4690 C.3    90  THR90       0.0378
     58  N         26.2280   43.3050   87.7210 N.3   139  VAL139     -0.1245
     59  CA        26.1430   41.8370   87.7230 C.3   139  VAL139      0.1561
     60  C         25.4000   41.3720   88.9470 C.2   139  VAL139      0.2260
     61  O         25.6140   41.8930   90.0450 O.2   139  VAL139     -0.2867
     62  CB        27.5520   41.2070   87.7010 C.3   139  VAL139      0.0252
     63  CG1       27.4660   39.7030   87.7300 C.3   139  VAL139      0.0019
     64  CG2       28.3210   41.6950   86.4670 C.3   139  VAL139      0.0019
     65  N         23.4430   42.0260   83.9380 N.3   165  ASP165     -0.1239
     66  CA        24.1100   40.7430   83.6870 C.3   165  ASP165      0.1674
     67  C         23.5480   39.7120   84.7160 C.2   165  ASP165      0.2266
     68  O         24.0400   39.5880   85.8190 O.2   165  ASP165     -0.2867
     69  CB        25.6240   40.8410   83.7160 C.3   165  ASP165      0.1410
     70  CG        26.3140   39.5330   83.3560 C.2   165  ASP165      0.3668
     71  OD1       25.5770   38.5160   83.1500 O.co2 165  ASP165     -0.2456
     72  OD2       27.5760   39.5040   83.2850 O.co2 165  ASP165     -0.2456
     73  N         23.5260   36.4560   84.2050 N.3   167  ALA167     -0.1231
     74  CA        24.1010   35.1590   83.8620 C.3   167  ALA167      0.1694
     75  C         23.8710   34.1850   84.9910 C.2   167  ALA167      0.2591
     76  O         23.6420   32.9910   84.7420 O.2   167  ALA167     -0.2718
     77  CB        25.5920   35.2750   83.5970 C.3   167  ALA167      0.0304
     78  N         23.9660   34.6470   86.2270 N.am  168  GLN168     -0.1979
     79  CA        24.0010   33.7310   87.3560 C.3   168  GLN168      0.1601
     80  C         22.7500   33.7730   88.1680 C.2   168  GLN168      0.2287
     81  O         22.6930   33.1340   89.2300 O.2   168  GLN168     -0.2864
     82  CB        25.1970   34.0620   88.2580 C.3   168  GLN168      0.0394
     83  CG        26.5420   33.7790   87.6090 C.3   168  GLN168      0.0908
     84  CD        27.7420   34.1650   88.4730 C.2   168  GLN168      0.2608
     85  OE1       27.7090   34.1190   89.7090 O.2   168  GLN168     -0.2717
     86  NE2       28.8160   34.5210   87.8180 N.am  168  GLN168     -0.0878
     87  N         22.9470   33.4990   80.6690 N.3   189  SER189     -0.1217
     88  CA        23.6650   32.3750   80.1520 C.3   189  SER189      0.1889
     89  C         22.9240   31.1120   80.5190 C.2   189  SER189      0.2288
     90  O         22.4570   31.0070   81.6570 O.2   189  SER189     -0.2866
     91  CB        25.0440   32.3070   80.8360 C.3   189  SER189      0.2089
     92  OG        25.6890   31.0970   80.4230 O.3   189  SER189     -0.2183
     93  N         24.7970   28.2760   80.1180 N.3   191  TYR191     -0.1241
     94  CA        25.9490   27.4100   80.3080 C.3   191  TYR191      0.1605
     95  C         25.5330   26.3400   81.3010 C.2   191  TYR191      0.2264
     96  O         24.7350   26.6200   82.1710 O.2   191  TYR191     -0.2867
     97  CB        27.1280   28.2460   80.8030 C.3   191  TYR191      0.0534
     98  CG        28.3410   27.4460   81.1110 C.ar  191  TYR191     -0.0201
     99  CD1       29.2510   27.1660   80.1240 C.ar  191  TYR191     -0.0009
    100  CD2       28.5960   27.0130   82.3950 C.ar  191  TYR191     -0.0009
    101  CE1       30.3840   26.4300   80.3940 C.ar  191  TYR191      0.0417
    102  CE2       29.7720   26.3030   82.7060 C.ar  191  TYR191      0.0417
    103  CZ        30.6360   26.0020   81.6830 C.ar  191  TYR191      0.1957
    104  OH        31.7810   25.2830   81.9040 O.3   191  TYR191     -0.2866
    105  N         24.8960   26.7960   85.1650 N.3   194  LYS194     -0.1245
    106  CA        24.0800   27.8850   85.6990 C.3   194  LYS194      0.1561
    107  C         22.7860   27.3340   86.2790 C.2   194  LYS194      0.2260
    108  O         22.2870   26.2830   85.8740 O.2   194  LYS194     -0.2867
    109  CB        23.7420   28.9020   84.6050 C.3   194  LYS194      0.0271
    110  CG        24.9330   29.5770   83.9530 C.3   194  LYS194      0.0035
    111  CD        25.8060   30.3090   84.9620 C.3   194  LYS194      0.0206
    112  CE        26.7080   31.2000   84.1510 C.3   194  LYS194      0.1093
    113  NZ        27.9680   31.4900   84.8860 N.3   194  LYS194     -0.1314
    114  N         26.3030   25.4290   74.8690 N.3   201  ASP201     -0.1225
    115  CA        26.2120   26.8810   75.0700 C.3   201  ASP201      0.1805
    116  C         24.8140   27.3980   74.6850 C.2   201  ASP201      0.2598
    117  O         24.2180   26.9250   73.7260 O.2   201  ASP201     -0.2718
    118  CB        27.2930   27.6330   74.2900 C.3   201  ASP201      0.1424
    119  CG        28.6610   27.6370   75.0050 C.2   201  ASP201      0.3668
    120  OD1       28.7530   28.0970   76.1900 O.co2 201  ASP201     -0.2456
    121  OD2       29.6410   27.1140   74.4340 O.co2 201  ASP201     -0.2456
    122  N         24.3270   28.3780   75.4510 N.am  202  GLY202     -0.1957
    123  CA        23.0640   29.0610   75.1350 C.3   202  GLY202      0.1869
    124  C         22.9840   30.3150   75.9710 C.2   202  GLY202      0.2309
    125  O         23.6790   30.4430   76.9700 O.2   202  GLY202     -0.2863
    126  N         36.6020   34.7390   92.6920 N.3   318  TYR318     -0.1241
    127  CA        37.4310   34.6200   91.5040 C.3   318  TYR318      0.1605
    128  C         38.8590   34.8060   91.9460 C.2   318  TYR318      0.2264
    129  O         39.1500   35.5720   92.8820 O.2   318  TYR318     -0.2867
    130  CB        37.0810   35.7110   90.4820 C.3   318  TYR318      0.0534
    131  CG        35.7130   35.5170   89.9130 C.ar  318  TYR318     -0.0201
    132  CD1       35.5230   34.7230   88.8120 C.ar  318  TYR318     -0.0009
    133  CD2       34.5980   36.1340   90.4900 C.ar  318  TYR318     -0.0009
    134  CE1       34.2580   34.4900   88.3090 C.ar  318  TYR318      0.0417
    135  CE2       33.3360   35.9120   89.9930 C.ar  318  TYR318      0.0417
    136  CZ        33.1780   35.1090   88.8910 C.ar  318  TYR318      0.1957
    137  OH        31.9350   34.8480   88.3600 O.3   318  TYR318     -0.2866
@<TRIPOS>BOND
     1     8     6   am
     2     1     2    1
     3   117   116    2
     4     6     7    2
     5     6     5    1
     6   118   119    1
     7   118   115    1
     8   121   119   ar
     9   116   115    1
    10   116   122   am
    11     5     2    1
    12     2     3    1
    13   114   115    1
    14   119   120   ar
    15     4     3    2
    16   123   122    1
    17   123   124    1
    18    15    16    2
    19    15    14    1
    20    19    17    1
    21     3     9   am
    22    22    23    2
    23    22    21    1
    24    17    14    1
    25    17    18    1
    26   124   125    2
    27    20    21    1
    28    14    13    1
    29    13    11   am
    30    21    24    1
    31     9    10    1
    32    11    10    1
    33    11    12    2
    34    24    25    1
    35    49    48    2
    36    25    26    1
    37    25    27    1
    38    50    47    1
    39    47    48    1
    40    47    46    1
    41    48    51   am
    42    93    94    1
    43    99   101   ar
    44    99    98   ar
    45    88    89    1
    46    88    87    1
    47    88    91    1
    48    94    97    1
    49    94    95    1
    50   101   103   ar
    51    92    91    1
    52    54    53    2
    53    89    90    2
    54    97    98    1
    55    53    52    1
    56    44    45   ar
    57    44    42   ar
    58    98   100   ar
    59    51    52    1
    60    45    43   ar
    61    95    96    2
    62    52    55    1
    63   103   104    1
    64   103   102   ar
    65    42    40   ar
    66   100   102   ar
    67    43    41   ar
    68    55    57    1
    69    55    56    1
    70    71    70   ar
    71    40    41   ar
    72    40    39    1
    73    72    70   ar
    74    70    69    1
    75    38    37    2
    76    77    74    1
    77    66    69    1
    78    66    65    1
    79    66    67    1
    80    37    36    1
    81    74    73    1
    82    74    75    1
    83   110   109    1
    84   110   111    1
    85   112   113    1
    86   112   111    1
    87    39    36    1
    88   109   106    1
    89    67    68    2
    90    76    75    2
    91    36    35    1
    92    75    78   am
    93   105   106    1
    94   106   107    1
    95   108   107    2
    96    35    30   am
    97    34    32    1
    98    78    79    1
    99    33    32    1
   100    64    62    1
   101    31    30    2
   102    30    29    1
   103    32    29    1
   104    79    80    1
   105    79    82    1
   106    83    82    1
   107    83    84    1
   108    62    59    1
   109    62    63    1
   110    58    59    1
   111    59    60    1
   112    86    84   am
   113    29    28    1
   114    80    81    2
   115   134   132   ar
   116   134   136   ar
   117   137   136    1
   118    84    85    2
   119   132   131   ar
   120   136   135   ar
   121    60    61    2
   122   131   130    1
   123   131   133   ar
   124   135   133   ar
   125   130   127    1
   126   127   128    1
   127   127   126    1
   128   128   129    2
