@<TRIPOS>MOLECULE
tmp/4qgvB00.pdb
 163 150 0 0 0
SMALL
GASTEIGER

@<TRIPOS>ATOM
      1  N        -28.9540   -5.2300   21.5980 N.3    15  PHE15      -0.1241
      2  CA       -27.6510   -5.1640   20.9500 C.3    15  PHE15       0.1605
      3  C        -27.3300   -3.7560   20.4190 C.2    15  PHE15       0.2264
      4  O        -26.2620   -3.1980   20.7100 O.2    15  PHE15      -0.2867
      5  CB       -27.5270   -6.1980   19.8370 C.3    15  PHE15       0.0534
      6  CG       -26.2280   -6.0960   19.0770 C.ar   15  PHE15      -0.0203
      7  CD1      -25.0200   -6.2740   19.7320 C.ar   15  PHE15      -0.0042
      8  CD2      -26.2220   -5.8290   17.7210 C.ar   15  PHE15      -0.0042
      9  CE1      -23.8130   -6.1850   19.0370 C.ar   15  PHE15      -0.0003
     10  CE2      -25.0200   -5.7400   17.0200 C.ar   15  PHE15      -0.0003
     11  CZ       -23.8220   -5.9190   17.6830 C.ar   15  PHE15      -0.0000
     12  N        -24.2150   -8.7390   11.9710 N.3    36  ALA36      -0.1245
     13  CA       -24.4580   -9.6690   13.0750 C.3    36  ALA36       0.1562
     14  C        -25.6880  -10.5410   12.8300 C.2    36  ALA36       0.2260
     15  O        -26.2640  -11.0730   13.7790 O.2    36  ALA36      -0.2867
     16  CB       -24.5780   -8.9220   14.4140 C.3    36  ALA36       0.0290
     17  N        -26.4270  -14.6910   14.3100 N.3    39  PRO39      -0.2116
     18  CA       -25.2230  -14.9370   15.1090 C.3    39  PRO39       0.1372
     19  C        -25.2200  -16.3600   15.6630 C.2    39  PRO39       0.2244
     20  O        -26.2520  -16.8570   16.1360 O.2    39  PRO39      -0.2868
     21  CB       -25.3140  -13.8920   16.2290 C.3    39  PRO39       0.0268
     22  CG       -26.7570  -13.5220   16.3060 C.3    39  PRO39       0.0207
     23  CD       -27.3450  -13.7280   14.9470 C.3    39  PRO39       0.0892
     24  N        -22.4400  -19.5050   17.5650 N.3    41  VAL41      -0.1245
     25  CA       -21.2430  -19.6030   18.3760 C.3    41  VAL41       0.1561
     26  C        -20.8040  -21.0460   18.4420 C.2    41  VAL41       0.2260
     27  O        -21.5870  -21.9090   18.8240 O.2    41  VAL41      -0.2867
     28  CB       -21.5270  -19.1070   19.8130 C.3    41  VAL41       0.0252
     29  CG1      -20.2760  -19.1680   20.6500 C.3    41  VAL41       0.0019
     30  CG2      -22.0820  -17.6760   19.7870 C.3    41  VAL41       0.0019
     31  N        -13.5280  -20.3520   21.2910 N.3    52  ILE52      -0.1245
     32  CA       -14.8560  -19.8700   20.9680 C.3    52  ILE52       0.1561
     33  C        -14.7850  -19.1920   19.6250 C.2    52  ILE52       0.2260
     34  O        -14.0370  -18.2310   19.4470 O.2    52  ILE52      -0.2867
     35  CB       -15.3800  -18.8700   22.0160 C.3    52  ILE52       0.0252
     36  CG1      -15.5680  -19.5690   23.3670 C.3    52  ILE52       0.0019
     37  CG2      -16.6990  -18.2490   21.5440 C.3    52  ILE52       0.0019
     38  CD1      -16.1530  -18.6890   24.4560 C.3    52  ILE52       0.0001
     39  N        -17.1270  -17.2690   17.0240 N.3    54  THR54      -0.1218
     40  CA       -18.4160  -16.6260   16.8430 C.3    54  THR54       0.1862
     41  C        -18.6210  -16.3640   15.3620 C.2    54  THR54       0.2287
     42  O        -17.7840  -15.7500   14.7010 O.2    54  THR54      -0.2866
     43  CB       -18.4960  -15.3020   17.6150 C.3    54  THR54       0.1770
     44  OG1      -17.5160  -14.3960   17.0960 O.3    54  THR54      -0.2211
     45  CG2      -18.2120  -15.5400   19.0740 C.3    54  THR54       0.0375
     46  N        -21.1510  -15.1410   12.0670 N.3    56  THR56      -0.1218
     47  CA       -22.3350  -14.4910   11.5140 C.3    56  THR56       0.1862
     48  C        -22.3560  -14.7990   10.0150 C.2    56  THR56       0.2287
     49  O        -21.4810  -15.5060    9.5040 O.2    56  THR56      -0.2866
     50  CB       -22.3160  -12.9660   11.7190 C.3    56  THR56       0.1770
     51  OG1      -21.3280  -12.3820   10.8560 O.3    56  THR56      -0.2211
     52  CG2      -22.0010  -12.6090   13.1630 C.3    56  THR56       0.0375
     53  N        -18.9740  -12.8410    8.7670 N.3    59  ARG59      -0.1245
     54  CA       -17.6530  -12.9700    9.3780 C.3    59  ARG59       0.1563
     55  C        -17.5540  -14.0600   10.4340 C.2    59  ARG59       0.2260
     56  O        -18.5580  -14.6340   10.8720 O.2    59  ARG59      -0.2867
     57  CB       -17.2390  -11.6480   10.0170 C.3    59  ARG59       0.0307
     58  CG       -18.1240  -11.3000   11.1910 C.3    59  ARG59       0.0489
     59  CD       -17.4710  -10.3250   12.1420 C.3    59  ARG59       0.2205
     60  NE       -18.1750  -10.3350   13.4200 N.pl3  59  ARG59      -0.0865
     61  CZ       -19.1290   -9.4750   13.7600 C.cat  59  ARG59       0.5346
     62  NH1      -19.4910   -8.5120   12.9210 N.pl3  59  ARG59       0.1354
     63  NH2      -19.7180   -9.5790   14.9450 N.pl3  59  ARG59       0.1354
     64  N        -11.6920  -16.4950   19.7770 N.3    63  ILE63      -0.1245
     65  CA       -10.9110  -16.2020   20.9740 C.3    63  ILE63       0.1561
     66  C        -10.5220  -17.5130   21.6340 C.2    63  ILE63       0.2260
     67  O        -11.2450  -18.5020   21.5470 O.2    63  ILE63      -0.2867
     68  CB       -11.6320  -15.2800   22.0060 C.3    63  ILE63       0.0252
     69  CG1      -12.9340  -15.9030   22.5000 C.3    63  ILE63       0.0019
     70  CG2      -11.8550  -13.8810   21.4240 C.3    63  ILE63       0.0019
     71  CD1      -13.5760  -15.1160   23.6560 C.3    63  ILE63       0.0001
     72  N         -8.5550   -9.5810   23.6970 N.3    73  GLU73      -0.1231
     73  CA        -9.6160   -9.6180   22.7070 C.3    73  GLU73       0.1699
     74  C         -9.9980   -8.1830   22.3650 C.2    73  GLU73       0.2592
     75  O         -9.1850   -7.2740   22.5080 O.2    73  GLU73      -0.2718
     76  CB       -10.8330  -10.4370   23.1900 C.3    73  GLU73       0.0402
     77  CG       -11.4370   -9.9620   24.5060 C.3    73  GLU73       0.1161
     78  CD       -12.8110  -10.5660   24.8130 C.2    73  GLU73       0.3649
     79  OE1      -13.5000  -11.0780   23.8980 O.co2  73  GLU73      -0.2457
     80  OE2      -13.2100  -10.5110   25.9940 O.co2  73  GLU73      -0.2457
     81  N        -11.2200   -7.9880   21.8930 N.am   74  GLN74      -0.1979
     82  CA       -11.7370   -6.6420   21.6640 C.3    74  GLN74       0.1601
     83  C        -13.0690   -6.4720   22.3850 C.2    74  GLN74       0.2287
     84  O        -13.8040   -7.4350   22.5580 O.2    74  GLN74      -0.2864
     85  CB       -11.9530   -6.4000   20.1650 C.3    74  GLN74       0.0394
     86  CG       -10.6740   -6.3310   19.3410 C.3    74  GLN74       0.0908
     87  CD       -10.9240   -5.9230   17.8950 C.2    74  GLN74       0.2608
     88  OE1      -12.0570   -5.9550   17.4110 O.2    74  GLN74      -0.2717
     89  NE2       -9.8620   -5.5300   17.2010 N.am   74  GLN74      -0.0878
     90  N        -17.0380   -4.9870   22.5270 N.3    76  VAL76      -0.1245
     91  CA       -18.0910   -5.2380   21.5490 C.3    76  VAL76       0.1561
     92  C        -18.0630   -4.1680   20.4620 C.2    76  VAL76       0.2260
     93  O        -18.4630   -4.4220   19.3250 O.2    76  VAL76      -0.2867
     94  CB       -19.4870   -5.2810   22.2220 C.3    76  VAL76       0.0252
     95  CG1      -19.7720   -3.9690   22.9140 C.3    76  VAL76       0.0019
     96  CG2      -20.5820   -5.5980   21.2050 C.3    76  VAL76       0.0019
     97  N        -18.7060   -9.2050   29.9760 N.3   109  TRP109     -0.1241
     98  CA       -19.6220  -10.1870   29.4050 C.3   109  TRP109      0.1605
     99  C        -19.7220  -11.3980   30.3330 C.2   109  TRP109      0.2264
    100  O        -18.8420  -11.6310   31.1660 O.2   109  TRP109     -0.2867
    101  CB       -19.2750  -10.5730   27.9410 C.3   109  TRP109      0.0550
    102  CG       -17.9110  -11.2220   27.6640 C.ar  109  TRP109      0.0003
    103  CD1      -16.7820  -10.6030   27.1690 C.ar  109  TRP109      0.0946
    104  CD2      -17.5650  -12.6110   27.8190 C.ar  109  TRP109      0.0152
    105  NE1      -15.7650  -11.5180   27.0160 N.ar  109  TRP109     -0.2442
    106  CE2      -16.2110  -12.7520   27.4140 C.ar  109  TRP109      0.0810
    107  CE3      -18.2570  -13.7430   28.2830 C.ar  109  TRP109      0.0012
    108  CZ2      -15.5410  -13.9780   27.4550 C.ar  109  TRP109      0.0191
    109  CZ3      -17.5810  -14.9660   28.3360 C.ar  109  TRP109      0.0001
    110  CH2      -16.2350  -15.0690   27.9190 C.ar  109  TRP109      0.0015
    111  N        -21.3210  -15.6780   30.4270 N.3   111  LEU111     -0.1245
    112  CA       -21.8310  -16.7850   29.6380 C.3   111  LEU111      0.1561
    113  C        -22.3260  -17.8440   30.5980 C.2   111  LEU111      0.2260
    114  O        -21.5860  -18.2650   31.4900 O.2   111  LEU111     -0.2867
    115  CB       -20.6980  -17.3750   28.8140 C.3   111  LEU111      0.0270
    116  CG       -20.7570  -17.6780   27.3180 C.3   111  LEU111      0.0019
    117  CD1      -20.0580  -19.0090   27.0780 C.3   111  LEU111      0.0001
    118  CD2      -22.1540  -17.6460   26.7120 C.3   111  LEU111      0.0001
    119  N        -27.9710  -21.4900   26.3480 N.3   119  LEU119     -0.1245
    120  CA       -26.7310  -20.7590   26.5650 C.3   119  LEU119      0.1561
    121  C        -27.0920  -19.2930   26.5540 C.2   119  LEU119      0.2260
    122  O        -27.6380  -18.8040   25.5640 O.2   119  LEU119     -0.2867
    123  CB       -25.7550  -21.0360   25.4300 C.3   119  LEU119      0.0270
    124  CG       -24.3870  -20.3440   25.4920 C.3   119  LEU119      0.0019
    125  CD1      -23.5350  -20.9990   26.5690 C.3   119  LEU119      0.0001
    126  CD2      -23.6850  -20.3640   24.1130 C.3   119  LEU119      0.0001
    127  N        -25.8310  -15.4230   26.8330 N.3   121  LEU121     -0.1245
    128  CA       -24.7290  -14.4940   26.8020 C.3   121  LEU121      0.1561
    129  C        -25.2670  -13.1350   27.2050 C.2   121  LEU121      0.2260
    130  O        -26.2910  -12.6880   26.6760 O.2   121  LEU121     -0.2867
    131  CB       -24.1970  -14.3720   25.3740 C.3   121  LEU121      0.0270
    132  CG       -23.2420  -13.2070   25.0870 C.3   121  LEU121      0.0019
    133  CD1      -21.9110  -13.3840   25.7870 C.3   121  LEU121      0.0001
    134  CD2      -23.0210  -13.0580   23.5830 C.3   121  LEU121      0.0001
    135  N        -23.7890   -9.0080   27.5870 N.3   123  MET123     -0.1245
    136  CA       -22.7020   -8.0720   27.4350 C.3   123  MET123      0.1570
    137  C        -23.2130   -6.7720   28.0080 C.2   123  MET123      0.2261
    138  O        -24.3270   -6.3460   27.7020 O.2   123  MET123     -0.2867
    139  CB       -22.3710   -7.8930   25.9540 C.3   123  MET123      0.0387
    140  CG       -21.9130   -9.1840   25.3000 C.3   123  MET123      0.0595
    141  SD       -21.6090   -8.9500   23.5360 S.3   123  MET123     -0.1393
    142  CE       -23.3040   -8.8690   22.9920 C.3   123  MET123      0.0692
    143  N        -28.3200  -12.3780   24.7540 N.3   132  LYS132     -0.1245
    144  CA       -28.5450  -13.2480   23.6180 C.3   132  LYS132      0.1561
    145  C        -28.6210  -14.6730   24.1320 C.2   132  LYS132      0.2260
    146  O        -27.8210  -15.0760   24.9790 O.2   132  LYS132     -0.2867
    147  CB       -27.3940  -13.1080   22.6010 C.3   132  LYS132      0.0271
    148  CG       -27.1870  -11.6770   22.1400 C.3   132  LYS132      0.0035
    149  CD       -26.2050  -11.6170   20.9630 C.3   132  LYS132      0.0206
    150  CE       -26.0160  -10.1780   20.5070 C.3   132  LYS132      0.1093
    151  NZ       -25.7010  -10.0930   19.0550 N.3   132  LYS132     -0.1314
    152  N        -29.0340  -18.8410   23.1510 N.3   134  TYR134     -0.1241
    153  CA       -28.7780  -19.8380   22.1050 C.3   134  TYR134      0.1605
    154  C        -29.2030  -21.2240   22.5850 C.2   134  TYR134      0.2264
    155  O        -29.3270  -21.4760   23.7850 O.2   134  TYR134     -0.2867
    156  CB       -27.2750  -19.9050   21.7490 C.3   134  TYR134      0.0534
    157  CG       -26.6020  -18.5860   21.4120 C.ar  134  TYR134     -0.0201
    158  CD1      -26.3480  -17.6450   22.3990 C.ar  134  TYR134     -0.0009
    159  CD2      -26.1790  -18.3010   20.1190 C.ar  134  TYR134     -0.0009
    160  CE1      -25.7350  -16.4370   22.1070 C.ar  134  TYR134      0.0417
    161  CE2      -25.5610  -17.0850   19.8160 C.ar  134  TYR134      0.0417
    162  CZ       -25.3350  -16.1680   20.8200 C.ar  134  TYR134      0.1957
    163  OH       -24.7180  -14.9640   20.5430 O.3   134  TYR134     -0.2866
@<TRIPOS>BOND
     1    53    54    1
     2    54    57    1
     3    54    55    1
     4    49    48    2
     5    48    47    1
     6    57    58    1
     7    55    56    2
     8    51    50    1
     9    58    59    1
    10    47    50    1
    11    47    46    1
    12    50    52    1
    13    12    13    1
    14    59    60    1
    15    14    13    1
    16    14    15    2
    17    62    61    1
    18    13    16    1
    19    60    61    2
    20    61    63    1
    21    17    23    1
    22    17    18    1
    23    42    41    2
    24    23    22    1
    25    18    19    1
    26    18    21    1
    27    41    40    1
    28    19    20    2
    29    21    22    1
    30    40    39    1
    31    40    43    1
    32    10    11   ar
    33    10     8   ar
    34    44    43    1
    35    89    87   am
    36    88    87    2
    37    24    25    1
    38    43    45    1
    39    11     9   ar
    40     8     6   ar
    41    87    86    1
    42    25    26    1
    43    25    28    1
    44    26    27    2
    45     9     7   ar
    46   151   150    1
    47     6     7   ar
    48     6     5    1
    49    93    92    2
    50    86    85    1
    51    34    33    2
    52    33    32    1
    53    64    65    1
    54    30    28    1
    55    28    29    1
    56   161   159   ar
    57   161   162   ar
    58     5     2    1
    59   159   157   ar
    60    85    82    1
    61     3     4    2
    62     3     2    1
    63    92    91    1
    64   150   149    1
    65   163   162    1
    66   162   160   ar
    67     2     1    1
    68   149   148    1
    69    32    31    1
    70    32    35    1
    71    65    66    1
    72    65    68    1
    73    96    94    1
    74   157   156    1
    75   157   158   ar
    76    70    68    1
    77    37    35    1
    78    67    66    2
    79    91    94    1
    80    91    90    1
    81    82    81    1
    82    82    83    1
    83   156   153    1
    84    81    74   am
    85    68    69    1
    86    35    36    1
    87   153   154    1
    88   153   152    1
    89   160   158   ar
    90   148   147    1
    91    94    95    1
    92    74    75    2
    93    74    73    1
    94    83    84    2
    95    69    71    1
    96   154   155    2
    97   147   144    1
    98    73    76    1
    99    73    72    1
   100   142   141    1
   101    76    77    1
   102    36    38    1
   103   141   140    1
   104   134   132    1
   105   144   145    1
   106   144   143    1
   107    79    78   ar
   108   126   124    1
   109   145   146    2
   110    77    78    1
   111    78    80   ar
   112   132   131    1
   113   132   133    1
   114   140   139    1
   115   131   128    1
   116   123   124    1
   117   123   120    1
   118   124   125    1
   119   122   121    2
   120   139   136    1
   121   119   120    1
   122   121   120    1
   123   130   129    2
   124   118   116    1
   125   128   127    1
   126   128   129    1
   127   105   103   ar
   128   105   106   ar
   129   117   116    1
   130   103   102   ar
   131   116   115    1
   132   106   108   ar
   133   106   104   ar
   134   136   135    1
   135   136   137    1
   136   108   110   ar
   137   102   104   ar
   138   102   101    1
   139   138   137    2
   140   104   107   ar
   141   110   109   ar
   142   101    98    1
   143   107   109   ar
   144   115   112    1
   145    98    97    1
   146    98    99    1
   147   112   111    1
   148   112   113    1
   149    99   100    2
   150   113   114    2
