@<TRIPOS>MOLECULE
tmp/4qgwA01.pdb
 146 135 0 0 0
SMALL
GASTEIGER

@<TRIPOS>ATOM
      1  N         19.4340   -2.3910  -11.1640 N.3    15  PHE15      -0.1241
      2  CA        18.4480   -2.4290  -12.2410 C.3    15  PHE15       0.1605
      3  C         18.3290   -3.8140  -12.8930 C.2    15  PHE15       0.2264
      4  O         17.2220   -4.2800  -13.1680 O.2    15  PHE15      -0.2867
      5  CB        18.7130   -1.3490  -13.2880 C.3    15  PHE15       0.0534
      6  CG        17.6810   -1.3050  -14.3900 C.ar   15  PHE15      -0.0203
      7  CD1       16.3440   -1.0400  -14.1120 C.ar   15  PHE15      -0.0042
      8  CD2       18.0540   -1.5220  -15.7040 C.ar   15  PHE15      -0.0042
      9  CE1       15.3990   -1.0000  -15.1330 C.ar   15  PHE15      -0.0003
     10  CE2       17.1170   -1.4920  -16.7180 C.ar   15  PHE15      -0.0003
     11  CZ        15.7890   -1.2230  -16.4350 C.ar   15  PHE15      -0.0000
     12  N         18.9150    5.7340  -19.7220 N.3    39  PRO39      -0.2116
     13  CA        17.7530    6.6150  -19.8680 C.3    39  PRO39       0.1372
     14  C         18.0630    8.0960  -19.6640 C.2    39  PRO39       0.2244
     15  O         18.9080    8.4800  -18.8550 O.2    39  PRO39      -0.2868
     16  CB        16.7890    6.1170  -18.7810 C.3    39  PRO39       0.0268
     17  CG        17.6980    5.5660  -17.7130 C.3    39  PRO39       0.0207
     18  CD        18.8940    4.9780  -18.4530 C.3    39  PRO39       0.0892
     19  N         15.6170   11.5380  -18.8820 N.3    41  VAL41      -0.1245
     20  CA        14.2540   11.8530  -18.4780 C.3    41  VAL41       0.1561
     21  C         13.9480   13.3410  -18.6210 C.2    41  VAL41       0.2260
     22  O         14.6270   14.1930  -18.0350 O.2    41  VAL41      -0.2867
     23  CB        13.9840   11.4060  -17.0100 C.3    41  VAL41       0.0252
     24  CG1       12.5920   11.8530  -16.5630 C.3    41  VAL41       0.0019
     25  CG2       14.1320    9.8870  -16.8820 C.3    41  VAL41       0.0019
     26  N          6.0810   13.2660  -18.4580 N.3    52  ILE52      -0.1245
     27  CA         7.3990   12.6720  -18.2770 C.3    52  ILE52       0.1561
     28  C          7.7740   11.8420  -19.4920 C.2    52  ILE52       0.2260
     29  O          7.0950   10.8610  -19.8270 O.2    52  ILE52      -0.2867
     30  CB         7.4670   11.7920  -17.0010 C.3    52  ILE52       0.0252
     31  CG1        7.0520   12.6100  -15.7840 C.3    52  ILE52       0.0019
     32  CG2        8.8830   11.2630  -16.8040 C.3    52  ILE52       0.0019
     33  CD1        7.0050   11.8100  -14.4560 C.3    52  ILE52       0.0001
     34  N         10.6620    9.4850  -21.1380 N.3    54  THR54      -0.1218
     35  CA        11.8480    8.6950  -20.8460 C.3    54  THR54       0.1862
     36  C         12.3870    8.1270  -22.1460 C.2    54  THR54       0.2287
     37  O         11.7110    7.3440  -22.8290 O.2    54  THR54      -0.2866
     38  CB        11.5370    7.5530  -19.8390 C.3    54  THR54       0.1770
     39  OG1       11.0450    8.1170  -18.6130 O.3    54  THR54      -0.2211
     40  CG2       12.7980    6.7410  -19.5310 C.3    54  THR54       0.0375
     41  N          9.3370    6.9270  -24.5500 N.3    61  THR61      -0.1218
     42  CA         8.0210    6.7040  -23.9630 C.3    61  THR61       0.1862
     43  C          7.6020    7.9420  -23.1800 C.2    61  THR61       0.2287
     44  O          8.4090    8.5550  -22.4680 O.2    61  THR61      -0.2866
     45  CB         7.9710    5.4440  -23.0620 C.3    61  THR61       0.1770
     46  OG1        8.9900    5.5190  -22.0620 O.3    61  THR61      -0.2211
     47  CG2        8.1670    4.1790  -23.8730 C.3    61  THR61       0.0375
     48  N          4.6670    9.5830  -20.5730 N.3    63  ILE63      -0.1245
     49  CA         3.4580    9.5310  -19.7610 C.3    63  ILE63       0.1561
     50  C          2.9240   10.9070  -19.4130 C.2    63  ILE63       0.2260
     51  O          3.6830   11.8630  -19.2100 O.2    63  ILE63      -0.2867
     52  CB         3.6050    8.6980  -18.4690 C.3    63  ILE63       0.0252
     53  CG1        4.6820    9.2670  -17.5500 C.3    63  ILE63       0.0019
     54  CG2        3.8610    7.2260  -18.8110 C.3    63  ILE63       0.0019
     55  CD1        4.6320    8.6540  -16.1480 C.3    63  ILE63       0.0001
     56  N         -0.1760    3.1570  -18.1460 N.3    73  GLU73      -0.1245
     57  CA         1.1990    3.1250  -18.6200 C.3    73  GLU73       0.1567
     58  C          1.6010    1.6570  -18.7240 C.2    73  GLU73       0.2260
     59  O          0.7420    0.7890  -18.9020 O.2    73  GLU73      -0.2867
     60  CB         2.1210    3.9120  -17.6770 C.3    73  GLU73       0.0388
     61  CG         2.0820    3.4620  -16.2240 C.3    73  GLU73       0.1160
     62  CD         3.2080    4.0840  -15.3850 C.2    73  GLU73       0.3649
     63  OE1        4.1720    4.6180  -15.9780 O.co2  73  GLU73      -0.2457
     64  OE2        3.1350    4.0310  -14.1340 O.co2  73  GLU73      -0.2457
     65  N          4.3100   -1.5000  -16.9960 N.3    75  THR75      -0.1203
     66  CA         5.2780   -1.8690  -15.9780 C.3    75  THR75       0.1994
     67  C          6.6650   -1.8060  -16.6070 C.2    75  THR75       0.2617
     68  O          6.8010   -1.6100  -17.8160 O.2    75  THR75      -0.2717
     69  CB         5.0280   -3.2630  -15.4160 C.3    75  THR75       0.1784
     70  OG1        5.1310   -4.2320  -16.4700 O.3    75  THR75      -0.2211
     71  CG2        3.6430   -3.3220  -14.7850 C.3    75  THR75       0.0376
     72  N          7.6940   -1.9530  -15.7890 N.am   76  VAL76      -0.1979
     73  CA         9.0690   -1.8550  -16.2760 C.3    76  VAL76       0.1595
     74  C          9.2870   -2.8870  -17.3780 C.2    76  VAL76       0.2287
     75  O          9.9500   -2.6120  -18.3860 O.2    76  VAL76      -0.2864
     76  CB        10.0980   -2.0200  -15.1290 C.3    76  VAL76       0.0276
     77  CG1       11.5220   -2.1290  -15.6710 C.3    76  VAL76       0.0022
     78  CG2        9.9910   -0.8460  -14.1510 C.3    76  VAL76       0.0022
     79  N          0.7960    0.6170   -9.0040 N.3    97  GLN97      -0.1245
     80  CA         0.4250    0.0640  -10.3000 C.3    97  GLN97       0.1566
     81  C         -0.3680   -1.2150  -10.0850 C.2    97  GLN97       0.2260
     82  O         -0.0830   -1.9680   -9.1540 O.2    97  GLN97      -0.2867
     83  CB         1.6820   -0.2360  -11.1170 C.3    97  GLN97       0.0367
     84  CG         2.5370    0.9890  -11.4700 C.3    97  GLN97       0.0905
     85  CD         3.8060    0.6100  -12.2250 C.2    97  GLN97       0.2608
     86  OE1        4.3880   -0.4480  -11.9850 O.2    97  GLN97      -0.2717
     87  NE2        4.2310    1.4700  -13.1480 N.am   97  GLN97      -0.0878
     88  N          6.5240    2.7780   -8.2120 N.3   109  TRP109     -0.1241
     89  CA         7.6790    3.6650   -8.3510 C.3   109  TRP109      0.1605
     90  C          7.5000    4.9390   -7.5350 C.2   109  TRP109      0.2264
     91  O          6.3800    5.3330   -7.2280 O.2   109  TRP109     -0.2867
     92  CB         8.0120    3.9620   -9.8150 C.3   109  TRP109      0.0550
     93  CG         6.9310    4.5830  -10.6980 C.ar  109  TRP109      0.0003
     94  CD1        6.1320    3.9280  -11.5920 C.ar  109  TRP109      0.0946
     95  CD2        6.5950    5.9730  -10.8070 C.ar  109  TRP109      0.0152
     96  NE1        5.3060    4.8180  -12.2410 N.ar  109  TRP109     -0.2442
     97  CE2        5.5720    6.0790  -11.7810 C.ar  109  TRP109      0.0810
     98  CE3        7.0470    7.1340  -10.1700 C.ar  109  TRP109      0.0012
     99  CZ2        4.9990    7.3020  -12.1290 C.ar  109  TRP109      0.0191
    100  CZ3        6.4780    8.3430  -10.5140 C.ar  109  TRP109      0.0001
    101  CH2        5.4630    8.4200  -11.4870 C.ar  109  TRP109      0.0015
    102  N          9.1770    9.0740   -7.1210 N.3   111  LEU111     -0.1245
    103  CA        10.0930   10.1010   -7.6040 C.3   111  LEU111      0.1561
    104  C         10.1860   11.1510   -6.5250 C.2   111  LEU111      0.2260
    105  O          9.1690   11.6380   -6.0130 O.2   111  LEU111     -0.2867
    106  CB         9.5460   10.7920   -8.8540 C.3   111  LEU111      0.0270
    107  CG         9.8640   10.3160  -10.2620 C.3   111  LEU111      0.0019
    108  CD1        9.3040   11.3380  -11.2560 C.3   111  LEU111      0.0001
    109  CD2       11.3650   10.1230  -10.4740 C.3   111  LEU111      0.0001
    110  N         14.6890    8.3010   -8.5170 N.3   121  ASP121     -0.1239
    111  CA        13.6330    7.4390   -9.0260 C.3   121  ASP121      0.1674
    112  C         13.8150    6.0590   -8.4250 C.2   121  ASP121      0.2266
    113  O         14.8420    5.4130   -8.6220 O.2   121  ASP121     -0.2867
    114  CB        13.7420    7.3480  -10.5530 C.3   121  ASP121      0.1410
    115  CG        12.5400    6.6420  -11.2050 C.2   121  ASP121      0.3668
    116  OD1       11.4940    6.4220  -10.5390 O.co2 121  ASP121     -0.2456
    117  OD2       12.6200    6.3500  -12.4170 O.co2 121  ASP121     -0.2456
    118  N         12.2030    2.1600   -8.0800 N.3   123  MET123     -0.1245
    119  CA        11.2290    1.2220   -8.5890 C.3   123  MET123      0.1570
    120  C         11.3300   -0.0590   -7.7830 C.2   123  MET123      0.2261
    121  O         12.4190   -0.4750   -7.3730 O.2   123  MET123     -0.2867
    122  CB        11.4280    0.9890  -10.0860 C.3   123  MET123      0.0387
    123  CG        12.8840    0.8900  -10.5210 C.3   123  MET123      0.0595
    124  SD        13.2640    1.6470  -12.1210 S.3   123  MET123     -0.1393
    125  CE        13.9310    3.2250  -11.5910 C.3   123  MET123      0.0692
    126  N         17.5670    4.9240   -9.2140 N.3   132  LYS132     -0.1245
    127  CA        18.3000    5.7180  -10.1930 C.3   132  LYS132      0.1561
    128  C         18.3030    7.1650   -9.7330 C.2   132  LYS132      0.2260
    129  O         17.3070    7.6590   -9.1900 O.2   132  LYS132     -0.2867
    130  CB        17.6700    5.5530  -11.5750 C.3   132  LYS132      0.0271
    131  CG        17.8620    4.1480  -12.1190 C.3   132  LYS132      0.0035
    132  CD        17.0740    3.9380  -13.4140 C.3   132  LYS132      0.0206
    133  CE        17.2230    2.4930  -13.8620 C.3   132  LYS132      0.1093
    134  NZ        18.5190    2.2970  -14.5490 N.3   132  LYS132     -0.1314
    135  N         19.2930   11.1770  -10.8900 N.3   134  TYR134     -0.1241
    136  CA        19.5420   12.0810  -12.0090 C.3   134  TYR134      0.1605
    137  C         19.8890   13.4770  -11.5180 C.2   134  TYR134      0.2264
    138  O         19.5300   13.8570  -10.4080 O.2   134  TYR134     -0.2867
    139  CB        18.2890   12.2210  -12.8710 C.3   134  TYR134      0.0534
    140  CG        17.7710   10.9370  -13.4690 C.ar  134  TYR134     -0.0201
    141  CD1       17.0370   10.0270  -12.7010 C.ar  134  TYR134     -0.0009
    142  CD2       17.9830   10.6440  -14.8020 C.ar  134  TYR134     -0.0009
    143  CE1       16.5360    8.8580  -13.2630 C.ar  134  TYR134      0.0417
    144  CE2       17.5040    9.4620  -15.3690 C.ar  134  TYR134      0.0417
    145  CZ        16.7810    8.5740  -14.5920 C.ar  134  TYR134      0.1957
    146  OH        16.2890    7.4070  -15.1580 O.3   134  TYR134     -0.2866
@<TRIPOS>BOND
     1    41    42    1
     2    42    43    1
     3    42    45    1
     4    47    45    1
     5    43    44    2
     6    45    46    1
     7    37    36    2
     8    36    35    1
     9    34    35    1
    10    35    38    1
    11    48    49    1
    12    13    12    1
    13    13    14    1
    14    13    16    1
    15    38    40    1
    16    38    39    1
    17    29    28    2
    18    49    50    1
    19    49    52    1
    20    12    18    1
    21    14    15    2
    22    28    27    1
    23    50    51    2
    24    59    58    2
    25    19    20    1
    26    54    52    1
    27    16    17    1
    28    58    57    1
    29    21    20    1
    30    21    22    2
    31    57    56    1
    32    57    60    1
    33    20    23    1
    34    52    53    1
    35    26    27    1
    36    18    17    1
    37    75    74    2
    38    27    30    1
    39    68    67    2
    40    60    61    1
    41    53    55    1
    42    74    73    1
    43    23    25    1
    44    23    24    1
    45    30    32    1
    46    30    31    1
    47    65    66    1
    48    10    11   ar
    49    10     8   ar
    50    67    66    1
    51    67    72   am
    52    70    69    1
    53    11     9   ar
    54    73    72    1
    55    73    76    1
    56    61    62    1
    57    63    62   ar
    58    66    69    1
    59    31    33    1
    60     8     6   ar
    61    77    76    1
    62    69    71    1
    63    62    64   ar
    64   144   142   ar
    65   144   145   ar
    66   146   145    1
    67     9     7   ar
    68    76    78    1
    69   142   140   ar
    70   145   143   ar
    71   134   133    1
    72     6     7   ar
    73     6     5    1
    74   133   132    1
    75   140   139    1
    76   140   141   ar
    77   132   131    1
    78     5     2    1
    79   143   141   ar
    80     4     3    2
    81    87    85   am
    82     3     2    1
    83   139   136    1
    84   117   115   ar
    85     2     1    1
    86    96    97   ar
    87    96    94   ar
    88    85    86    2
    89    85    84    1
    90    99    97   ar
    91    99   101   ar
    92   124   125    1
    93   124   123    1
    94   131   130    1
    95   136   137    1
    96   136   135    1
    97    97    95   ar
    98    94    93   ar
    99   130   127    1
   100   137   138    2
   101   101   100   ar
   102    84    83    1
   103   108   107    1
   104   115   114    1
   105   115   116   ar
   106    83    80    1
   107    95    93   ar
   108    95    98   ar
   109    93    92    1
   110   114   111    1
   111   123   122    1
   112   100    98   ar
   113   109   107    1
   114    80    81    1
   115    80    79    1
   116   107   106    1
   117   127   128    1
   118   127   126    1
   119   122   119    1
   120    81    82    2
   121    92    89    1
   122   128   129    2
   123   111   110    1
   124   111   112    1
   125   106   103    1
   126   113   112    2
   127   119   118    1
   128   119   120    1
   129    89    88    1
   130    89    90    1
   131   120   121    2
   132   103   102    1
   133   103   104    1
   134    90    91    2
   135   104   105    2
