@<TRIPOS>MOLECULE
tmp/4qgwA00.pdb
 78 74 0 0 0
SMALL
GASTEIGER

@<TRIPOS>ATOM
      1  N         21.2050   10.6730  -16.0420 N.3     9  ILE9       -0.1245
      2  CA        21.4570    9.6850  -15.0020 C.3     9  ILE9        0.1561
      3  C         22.8970    9.7520  -14.5040 C.2     9  ILE9        0.2260
      4  O         23.8520    9.8430  -15.2970 O.2     9  ILE9       -0.2867
      5  CB        21.0510    8.2550  -15.4560 C.3     9  ILE9        0.0252
      6  CG1       20.9310    7.3110  -14.2470 C.3     9  ILE9        0.0019
      7  CG2       22.0080    7.7060  -16.5400 C.3     9  ILE9        0.0019
      8  CD1       20.2580    5.9840  -14.5850 C.3     9  ILE9        0.0001
      9  N         22.8920    4.4700  -10.8490 N.3    12  SER12      -0.1217
     10  CA        21.9200    3.4120  -11.0920 C.3    12  SER12       0.1889
     11  C         22.3190    2.1990  -10.2810 C.2    12  SER12       0.2288
     12  O         23.4430    1.6930  -10.4150 O.2    12  SER12      -0.2866
     13  CB        21.9080    3.0590  -12.5780 C.3    12  SER12       0.2089
     14  OG        20.8310    2.1740  -12.8820 O.3    12  SER12      -0.2183
     15  N         19.4340   -2.3910  -11.1640 N.3    15  PHE15      -0.1241
     16  CA        18.4480   -2.4290  -12.2410 C.3    15  PHE15       0.1605
     17  C         18.3290   -3.8140  -12.8930 C.2    15  PHE15       0.2264
     18  O         17.2220   -4.2800  -13.1680 O.2    15  PHE15      -0.2867
     19  CB        18.7130   -1.3490  -13.2880 C.3    15  PHE15       0.0534
     20  CG        17.6810   -1.3050  -14.3900 C.ar   15  PHE15      -0.0203
     21  CD1       16.3440   -1.0400  -14.1120 C.ar   15  PHE15      -0.0042
     22  CD2       18.0540   -1.5220  -15.7040 C.ar   15  PHE15      -0.0042
     23  CE1       15.3990   -1.0000  -15.1330 C.ar   15  PHE15      -0.0003
     24  CE2       17.1170   -1.4920  -16.7180 C.ar   15  PHE15      -0.0003
     25  CZ        15.7890   -1.2230  -16.4350 C.ar   15  PHE15      -0.0000
     26  N         18.8330   -4.3450  -22.3920 N.3    32  ALA32      -0.1231
     27  CA        18.1900   -3.3470  -21.5490 C.3    32  ALA32       0.1694
     28  C         19.1460   -2.6620  -20.5800 C.2    32  ALA32       0.2592
     29  O         18.8890   -1.5440  -20.1340 O.2    32  ALA32      -0.2718
     30  CB        17.0300   -3.9790  -20.7850 C.3    32  ALA32       0.0304
     31  N         20.2460   -3.3260  -20.2450 N.am   33  VAL33      -0.1966
     32  CA        21.1670   -2.7700  -19.2650 C.3    33  VAL33       0.1727
     33  C         22.4060   -2.2080  -19.9550 C.2    33  VAL33       0.2616
     34  O         23.3200   -1.7050  -19.3040 O.2    33  VAL33      -0.2715
     35  CB        21.5470   -3.8160  -18.1820 C.3    33  VAL33       0.0290
     36  CG1       22.6200   -4.7830  -18.7000 C.3    33  VAL33       0.0023
     37  CG2       21.9980   -3.1230  -16.8990 C.3    33  VAL33       0.0023
     38  N         22.4140   -2.2780  -21.2830 N.am   34  ALA34      -0.1963
     39  CA        23.5170   -1.7460  -22.0810 C.3    34  ALA34       0.1728
     40  C         23.4530   -0.2230  -22.1710 C.2    34  ALA34       0.2616
     41  O         22.3910    0.3690  -21.9830 O.2    34  ALA34      -0.2715
     42  CB        23.4970   -2.3560  -23.4730 C.3    34  ALA34       0.0334
     43  N         24.5900    0.4010  -22.4760 N.am   35  ALA35      -0.1977
     44  CA        24.6890    1.8610  -22.5240 C.3    35  ALA35       0.1597
     45  C         23.7260    2.4830  -23.5350 C.2    35  ALA35       0.2287
     46  O         23.2640    3.6120  -23.3520 O.2    35  ALA35      -0.2864
     47  CB        26.1240    2.2860  -22.8280 C.3    35  ALA35       0.0319
     48  N         20.8420    1.7250  -23.8610 N.3    37  SER37      -0.1202
     49  CA        19.5640    1.8050  -23.1570 C.3    37  SER37       0.2020
     50  C         19.5870    2.7980  -21.9960 C.2    37  SER37       0.2619
     51  O         18.6240    2.8830  -21.2350 O.2    37  SER37      -0.2717
     52  CB        19.1640    0.4300  -22.6220 C.3    37  SER37       0.2103
     53  OG        18.9750   -0.4910  -23.6800 O.3    37  SER37      -0.2182
     54  N         20.6760    3.5430  -21.8560 N.am   38  LYS38      -0.1966
     55  CA        20.8000    4.5230  -20.7700 C.3    38  LYS38       0.1713
     56  C         19.6520    5.5430  -20.8330 C.2    38  LYS38       0.2458
     57  O         19.4260    6.1520  -21.8820 O.2    38  LYS38      -0.2730
     58  CB        22.1440    5.2380  -20.9030 C.3    38  LYS38       0.0311
     59  CG        22.4100    6.3250  -19.8920 C.3    38  LYS38       0.0038
     60  CD        23.3920    7.3350  -20.4600 C.3    38  LYS38       0.0206
     61  CE        24.0690    8.1320  -19.3690 C.3    38  LYS38       0.1093
     62  NZ        24.9850    9.1630  -19.9290 N.3    38  LYS38      -0.1314
     63  N         18.9150    5.7340  -19.7220 N.am   39  PRO39      -0.2727
     64  CA        17.7530    6.6150  -19.8680 C.3    39  PRO39       0.1402
     65  C         18.0630    8.0960  -19.6640 C.2    39  PRO39       0.2269
     66  O         18.9080    8.4800  -18.8550 O.2    39  PRO39      -0.2865
     67  CB        16.7890    6.1170  -18.7810 C.3    39  PRO39       0.0296
     68  CG        17.6980    5.5660  -17.7130 C.3    39  PRO39       0.0237
     69  CD        18.8940    4.9780  -18.4530 C.3    39  PRO39       0.0939
     70  N         17.5670    4.9240   -9.2140 N.3   132  LYS132     -0.1245
     71  CA        18.3000    5.7180  -10.1930 C.3   132  LYS132      0.1561
     72  C         18.3030    7.1650   -9.7330 C.2   132  LYS132      0.2260
     73  O         17.3070    7.6590   -9.1900 O.2   132  LYS132     -0.2867
     74  CB        17.6700    5.5530  -11.5750 C.3   132  LYS132      0.0271
     75  CG        17.8620    4.1480  -12.1190 C.3   132  LYS132      0.0035
     76  CD        17.0740    3.9380  -13.4140 C.3   132  LYS132      0.0206
     77  CE        17.2230    2.4930  -13.8620 C.3   132  LYS132      0.1093
     78  NZ        18.5190    2.2970  -14.5490 N.3   132  LYS132     -0.1314
@<TRIPOS>BOND
     1    48    49    1
     2    53    52    1
     3    45    46    2
     4    45    44    1
     5    42    39    1
     6    49    52    1
     7    49    50    1
     8    47    44    1
     9    44    43    1
    10    43    40   am
    11    26    27    1
    12    40    39    1
    13    40    41    2
    14    39    38    1
    15    50    54   am
    16    50    51    2
    17    57    56    2
    18    54    55    1
    19    27    30    1
    20    27    28    1
    21    38    33   am
    22    58    55    1
    23    58    59    1
    24    56    55    1
    25    56    63   am
    26    28    31   am
    27    28    29    2
    28    60    59    1
    29    60    61    1
    30    31    32    1
    31    33    34    2
    32    33    32    1
    33    62    61    1
    34    64    63    1
    35    64    65    1
    36    64    67    1
    37    63    69    1
    38    65    66    2
    39    32    35    1
    40    67    68    1
    41    36    35    1
    42    69    68    1
    43    35    37    1
    44    24    25   ar
    45    24    22   ar
    46     7     5    1
    47    25    23   ar
    48     1     2    1
    49    22    20   ar
    50     5     2    1
    51     5     6    1
    52     4     3    2
    53    23    21   ar
    54     2     3    1
    55     8     6    1
    56    78    77    1
    57    20    21   ar
    58    20    19    1
    59    77    76    1
    60    76    75    1
    61    19    16    1
    62    18    17    2
    63    17    16    1
    64    14    13    1
    65    13    10    1
    66    16    15    1
    67    75    74    1
    68    74    71    1
    69    10     9    1
    70    10    11    1
    71    12    11    2
    72    71    72    1
    73    71    70    1
    74    72    73    2
