@<TRIPOS>MOLECULE
tmp/4qh6A00.pdb
 129 123 0 0 0
SMALL
GASTEIGER

@<TRIPOS>ATOM
      1  N         15.8610   28.7070   18.5610 N.3    19  GLN19      -0.1245
      2  CA        14.9220   29.7990   18.7330 C.3    19  GLN19       0.1566
      3  C         15.7140   31.0840   18.9330 C.2    19  GLN19       0.2260
      4  O         15.1870   32.1900   18.8070 O.2    19  GLN19      -0.2867
      5  CB        14.0070   29.5110   19.9180 C.3    19  GLN19       0.0367
      6  CG        14.6210   29.9130   21.2490 C.3    19  GLN19       0.0905
      7  CD        13.7470   29.5620   22.4270 C.2    19  GLN19       0.2608
      8  OE1       13.5100   28.3880   22.7130 O.2    19  GLN19      -0.2717
      9  NE2       13.2500   30.5840   23.1190 N.am   19  GLN19      -0.0878
     10  N         11.7950   34.7000   22.7780 N.3    23  GLY23      -0.1225
     11  CA        10.8770   33.8940   23.5620 C.3    23  GLY23       0.1811
     12  C          9.8280   33.1880   22.7210 C.2    23  GLY23       0.2280
     13  O          8.6330   33.3690   22.9350 O.2    23  GLY23      -0.2866
     14  N          9.5320   29.6800   22.0500 N.3    25  CYS25      -0.1221
     15  CA         9.4780   28.2200   22.1950 C.3    25  CYS25       0.1808
     16  C          8.0870   27.6470   21.9440 C.2    25  CYS25       0.2601
     17  O          7.9510   26.5010   21.5210 O.2    25  CYS25      -0.2717
     18  CB         9.9730   27.7850   23.5690 C.3    25  CYS25       0.0970
     19  SG         9.3430   28.7540   24.9290 S.3    25  CYS25      -0.0800
     20  N          7.0590   28.4250   22.2610 N.am   26  TRP26      -0.1976
     21  CA         5.6870   28.0090   22.0140 C.3    26  TRP26       0.1640
     22  C          5.5100   27.6650   20.5380 C.2    26  TRP26       0.2290
     23  O          4.9450   26.6200   20.1830 O.2    26  TRP26      -0.2864
     24  CB         4.7190   29.1130   22.4420 C.3    26  TRP26       0.0576
     25  CG         4.9800   30.4280   21.7770 C.ar   26  TRP26       0.0006
     26  CD1        5.9500   31.3360   22.1000 C.ar   26  TRP26       0.0946
     27  CD2        4.2290   31.0080   20.7040 C.ar   26  TRP26       0.0152
     28  NE1        5.8660   32.4320   21.2770 N.ar   26  TRP26      -0.2442
     29  CE2        4.8150   32.2590   20.4130 C.ar   26  TRP26       0.0810
     30  CE3        3.1240   30.5880   19.9540 C.ar   26  TRP26       0.0012
     31  CZ2        4.3330   33.0930   19.4020 C.ar   26  TRP26       0.0191
     32  CZ3        2.6470   31.4150   18.9540 C.ar   26  TRP26       0.0001
     33  CH2        3.2530   32.6530   18.6840 C.ar   26  TRP26       0.0015
     34  N         -0.9550   35.5150   20.2190 N.3    60  ASP60      -0.1225
     35  CA         0.2060   35.4110   21.0810 C.3    60  ASP60       0.1805
     36  C          1.0870   36.6500   20.9430 C.2    60  ASP60       0.2598
     37  O          0.7800   37.5620   20.1740 O.2    60  ASP60      -0.2718
     38  CB         0.9790   34.1380   20.7660 C.3    60  ASP60       0.1424
     39  CG         0.1810   32.8910   21.0990 C.2    60  ASP60       0.3668
     40  OD1       -0.0060   32.5950   22.2950 O.co2  60  ASP60      -0.2456
     41  OD2       -0.2760   32.2050   20.1660 O.co2  60  ASP60      -0.2456
     42  N          2.1780   36.6840   21.6980 N.am   61  SER61      -0.1952
     43  CA         2.9420   37.9140   21.8500 C.3    61  SER61       0.1924
     44  C          4.3440   37.8060   21.2790 C.2    61  SER61       0.2314
     45  O          5.3070   38.2490   21.9010 O.2    61  SER61      -0.2863
     46  CB         3.0210   38.3020   23.3290 C.3    61  SER61       0.2116
     47  OG         1.7360   38.2890   23.9280 O.3    61  SER61      -0.2180
     48  N          7.9740   37.6080   23.0600 N.3    64  SER64      -0.1202
     49  CA         7.8350   37.7570   24.5050 C.3    64  SER64       0.2020
     50  C          7.0730   36.5750   25.1090 C.2    64  SER64       0.2619
     51  O          7.0080   36.4250   26.3270 O.2    64  SER64      -0.2717
     52  CB         7.1520   39.0790   24.8490 C.3    64  SER64       0.2103
     53  OG         7.8700   40.1690   24.2980 O.3    64  SER64      -0.2182
     54  N          6.5040   35.7370   24.2480 N.am   65  GLY65      -0.1942
     55  CA         5.7970   34.5460   24.6840 C.3    65  GLY65       0.2014
     56  C          4.4930   34.2640   23.9570 C.2    65  GLY65       0.2639
     57  O          4.0330   35.0700   23.1480 O.2    65  GLY65      -0.2714
     58  N          3.8840   33.1210   24.2670 N.am   66  GLY66      -0.1939
     59  CA         2.6450   32.6950   23.6290 C.3    66  GLY66       0.2014
     60  C          2.2530   31.2930   24.0670 C.2    66  GLY66       0.2639
     61  O          2.9120   30.7510   24.9260 O.2    66  GLY66      -0.2714
     62  N          1.2000   30.7030   23.4980 N.am   67  LEU67      -0.1963
     63  CA         0.8010   29.3380   23.8790 C.3    67  LEU67       0.1728
     64  C          0.5840   28.4120   22.6760 C.2    67  LEU67       0.2616
     65  O          0.0890   28.8460   21.6350 O.2    67  LEU67      -0.2715
     66  CB        -0.4870   29.3670   24.7040 C.3    67  LEU67       0.0311
     67  CG        -0.5130   30.0210   26.0880 C.3    67  LEU67       0.0022
     68  CD1       -1.8380   29.7100   26.7630 C.3    67  LEU67       0.0001
     69  CD2        0.6630   29.6260   26.9710 C.3    67  LEU67       0.0001
     70  N          0.9230   27.1310   22.8330 N.am   68  MET68      -0.1977
     71  CA         0.7520   26.1600   21.7490 C.3    68  MET68       0.1605
     72  C         -0.7140   26.0090   21.3560 C.2    68  MET68       0.2287
     73  O         -1.0480   25.9400   20.1680 O.2    68  MET68      -0.2864
     74  CB         1.3140   24.7920   22.1420 C.3    68  MET68       0.0413
     75  CG         2.8260   24.7300   22.2050 C.3    68  MET68       0.0598
     76  SD         3.4800   25.5380   23.6660 S.3    68  MET68      -0.1393
     77  CE         3.3670   24.1850   24.8210 C.3    68  MET68       0.0692
     78  N         -3.0100   28.2490   21.6790 N.3    70  ASN70      -0.1240
     79  CA        -3.3490   29.4660   20.9460 C.3    70  ASN70       0.1653
     80  C         -2.8530   29.4250   19.5170 C.2    70  ASN70       0.2266
     81  O         -3.4990   29.9430   18.6130 O.2    70  ASN70      -0.2867
     82  CB        -2.7720   30.7060   21.6300 C.3    70  ASN70       0.1155
     83  CG        -3.4320   31.0090   22.9530 C.2    70  ASN70       0.2627
     84  OD1       -4.5160   30.5070   23.2590 O.2    70  ASN70      -0.2716
     85  ND2       -2.7880   31.8570   23.7410 N.am   70  ASN70      -0.0877
     86  N          4.1810   21.8140   27.7350 N.3   138  ALA138     -0.1245
     87  CA         4.7390   22.9380   28.4530 C.3   138  ALA138      0.1562
     88  C          5.4720   22.4100   29.6750 C.2   138  ALA138      0.2260
     89  O          5.0430   21.4250   30.2850 O.2   138  ALA138     -0.2867
     90  CB         3.6530   23.9020   28.8490 C.3   138  ALA138      0.0290
     91  N          5.2590   26.8480   34.8290 N.3   160  LEU160     -0.1231
     92  CA         5.5280   26.6820   33.4000 C.3   160  LEU160      0.1693
     93  C          6.1530   27.9210   32.7530 C.2   160  LEU160      0.2592
     94  O          5.6620   29.0360   32.9280 O.2   160  LEU160     -0.2718
     95  CB         4.2260   26.3430   32.6780 C.3   160  LEU160      0.0284
     96  CG         3.5310   25.0700   33.1430 C.3   160  LEU160      0.0019
     97  CD1        2.2340   24.8680   32.4040 C.3   160  LEU160      0.0001
     98  CD2        4.4480   23.8960   32.8990 C.3   160  LEU160      0.0001
     99  N          7.2100   27.7220   31.9670 N.am  161  ASP161     -0.1960
    100  CA         7.8710   28.8480   31.3090 C.3   161  ASP161      0.1840
    101  C          8.4290   28.4720   29.9390 C.2   161  ASP161      0.2622
    102  O          8.9780   29.3210   29.2350 O.2   161  ASP161     -0.2715
    103  CB         9.0160   29.3950   32.1650 C.3   161  ASP161      0.1450
    104  CG        10.0590   28.3390   32.4980 C.2   161  ASP161      0.3671
    105  OD1        9.8230   27.1450   32.2110 O.co2 161  ASP161     -0.2456
    106  OD2       11.1320   28.7120   33.0220 O.co2 161  ASP161     -0.2456
    107  N          8.3130   27.2020   29.5660 N.am  162  HIS162     -0.1959
    108  CA         8.9320   26.7490   28.3300 C.3   162  HIS162      0.1787
    109  C          8.0360   25.8230   27.5210 C.2   162  HIS162      0.2620
    110  O          7.2150   25.0970   28.0760 O.2   162  HIS162     -0.2715
    111  CB        10.2490   26.0520   28.6440 C.3   162  HIS162      0.0785
    112  CG        11.2030   26.0200   27.4950 C.ar  162  HIS162      0.0821
    113  ND1       11.3510   27.0770   26.6220 N.ar  162  HIS162     -0.2267
    114  CD2       12.0940   25.0780   27.1030 C.ar  162  HIS162      0.1154
    115  CE1       12.2800   26.7800   25.7300 C.ar  162  HIS162      0.1986
    116  NE2       12.7460   25.5740   26.0000 N.ar  162  HIS162     -0.2212
    117  N          8.1890   25.8700   26.2030 N.am  163  GLY163     -0.1954
    118  CA         7.4530   24.9860   25.3200 C.3   163  GLY163      0.1869
    119  C          8.3900   24.0180   24.6100 C.2   163  GLY163      0.2309
    120  O          9.3260   24.4190   23.9190 O.2   163  GLY163     -0.2863
    121  N          0.2520   20.7810   30.3710 N.3   208  GLU208     -0.1245
    122  CA        -0.3520   21.2540   29.1390 C.3   208  GLU208      0.1567
    123  C          0.2230   20.4620   27.9930 C.2   208  GLU208      0.2260
    124  O          1.2630   20.8080   27.4440 O.2   208  GLU208     -0.2867
    125  CB        -0.0820   22.7500   28.9190 C.3   208  GLU208      0.0388
    126  CG        -0.5680   23.7210   29.9970 C.3   208  GLU208      0.1160
    127  CD        -2.0330   24.1130   29.8610 C.2   208  GLU208      0.3649
    128  OE1       -2.6370   23.8380   28.8030 O.co2 208  GLU208     -0.2457
    129  OE2       -2.5680   24.7350   30.8050 O.co2 208  GLU208     -0.2457
@<TRIPOS>BOND
     1     1     2    1
     2    81    80    2
     3    33    32   ar
     4    33    31   ar
     5     2     3    1
     6     2     5    1
     7     4     3    2
     8    32    30   ar
     9    31    29   ar
    10    80    79    1
    11     5     6    1
    12    30    27   ar
    13    41    39   ar
    14    73    72    2
    15    37    36    2
    16    23    22    2
    17    34    35    1
    18    29    27   ar
    19    29    28   ar
    20    22    21    1
    21    27    25   ar
    22    38    35    1
    23    38    39    1
    24    36    35    1
    25    36    42   am
    26    79    82    1
    27    79    78    1
    28    39    40   ar
    29     6     7    1
    30    28    26   ar
    31    44    43    1
    32    44    45    2
    33    72    71    1
    34    17    16    2
    35    82    83    1
    36    65    64    2
    37    42    43    1
    38    71    74    1
    39    71    70    1
    40    25    26   ar
    41    25    24    1
    42    43    46    1
    43    16    15    1
    44    16    20   am
    45    21    20    1
    46    21    24    1
    47    14    15    1
    48    74    75    1
    49    15    18    1
    50    75    76    1
    51     7     8    2
    52     7     9   am
    53    64    70   am
    54    64    63    1
    55    12    13    2
    56    12    11    1
    57    10    11    1
    58    83    84    2
    59    83    85   am
    60    48    49    1
    61    57    56    2
    62    46    47    1
    63    62    63    1
    64    62    60   am
    65    18    19    1
    66    59    60    1
    67    59    58    1
    68    76    77    1
    69    63    66    1
    70   120   119    2
    71    56    58   am
    72    56    55    1
    73    60    61    2
    74    54    55    1
    75    54    50   am
    76    53    52    1
    77    49    52    1
    78    49    50    1
    79   119   118    1
    80    66    67    1
    81    50    51    2
    82   118   117    1
    83   115   116   ar
    84   115   113   ar
    85   116   114   ar
    86    67    68    1
    87    67    69    1
    88   117   109   am
    89   113   112   ar
    90   114   112   ar
    91   124   123    2
    92   112   111    1
    93   109   110    2
    94   109   108    1
    95    86    87    1
    96   123   122    1
    97   108   111    1
    98   108   107    1
    99    87    90    1
   100    87    88    1
   101   128   127   ar
   102   125   122    1
   103   125   126    1
   104   122   121    1
   105   102   101    2
   106   107   101   am
   107    88    89    2
   108   127   126    1
   109   127   129   ar
   110   101   100    1
   111   100    99    1
   112   100   103    1
   113    99    93   am
   114   103   104    1
   115   105   104   ar
   116    97    96    1
   117   104   106   ar
   118    95    96    1
   119    95    92    1
   120    93    94    2
   121    93    92    1
   122    98    96    1
   123    92    91    1
