@<TRIPOS>MOLECULE
tmp/4qh7F00.pdb
 171 168 0 0 0
SMALL
GASTEIGER

@<TRIPOS>ATOM
      1  N        -50.1460  -29.7950   33.4530 N.3     4  LYS4       -0.1231
      2  CA       -51.1900  -30.7880   33.1860 C.3     4  LYS4        0.1693
      3  C        -51.2780  -31.1570   31.7090 C.2     4  LYS4        0.2592
      4  O        -51.3780  -32.3320   31.3510 O.2     4  LYS4       -0.2718
      5  CB       -52.5450  -30.2680   33.6770 C.3     4  LYS4        0.0285
      6  CG       -52.6370  -30.1070   35.1970 C.3     4  LYS4        0.0035
      7  CD       -52.5490  -31.4640   35.8770 C.3     4  LYS4        0.0206
      8  CE       -52.9220  -31.3820   37.3500 C.3     4  LYS4        0.1093
      9  NZ       -52.8800  -32.7270   38.0010 N.3     4  LYS4       -0.1314
     10  N        -51.2480  -30.1450   30.8510 N.am    5  ASN5       -0.1974
     11  CA       -51.3340  -30.3580   29.4130 C.3     5  ASN5        0.1688
     12  C        -50.6040  -29.2290   28.7300 C.2     5  ASN5        0.2292
     13  O        -50.8960  -28.0620   28.9770 O.2     5  ASN5       -0.2864
     14  CB       -52.7980  -30.3830   28.9580 C.3     5  ASN5        0.1181
     15  CG       -52.9530  -30.7380   27.4880 C.2     5  ASN5        0.2629
     16  OD1      -51.9800  -31.0640   26.8050 O.2     5  ASN5       -0.2716
     17  ND2      -54.1860  -30.6800   26.9950 N.am    5  ASN5       -0.0877
     18  N        -48.8980  -27.7880   24.8610 N.3     7  ASP7       -0.1239
     19  CA       -48.4940  -27.8110   23.4610 C.3     7  ASP7        0.1674
     20  C        -47.7500  -26.5010   23.2760 C.2     7  ASP7        0.2266
     21  O        -48.3280  -25.5030   22.8560 O.2     7  ASP7       -0.2867
     22  CB       -49.7020  -27.8720   22.5180 C.3     7  ASP7        0.1410
     23  CG       -49.2940  -27.8510   21.0500 C.2     7  ASP7        0.3668
     24  OD1      -48.1310  -28.1960   20.7550 O.co2   7  ASP7       -0.2456
     25  OD2      -50.1250  -27.4830   20.1950 O.co2   7  ASP7       -0.2456
     26  N        -59.9730  -22.2370   40.5010 N.3    55  ARG55      -0.1231
     27  CA       -59.9150  -23.5020   41.2340 C.3    55  ARG55       0.1694
     28  C        -60.9700  -24.5150   40.7870 C.2    55  ARG55       0.2592
     29  O        -60.8400  -25.7120   41.0500 O.2    55  ARG55      -0.2718
     30  CB       -60.0590  -23.2420   42.7360 C.3    55  ARG55       0.0321
     31  CG       -58.8690  -22.5300   43.3500 C.3    55  ARG55       0.0489
     32  CD       -59.2280  -21.8850   44.6810 C.3    55  ARG55       0.2205
     33  NE       -58.1350  -21.0480   45.1670 N.pl3  55  ARG55      -0.0865
     34  CZ       -57.2040  -21.4540   46.0250 C.cat  55  ARG55       0.5346
     35  NH1      -57.2390  -22.6900   46.5100 N.pl3  55  ARG55       0.1354
     36  NH2      -56.2420  -20.6200   46.4040 N.pl3  55  ARG55       0.1354
     37  N        -62.0280  -24.0350   40.1400 N.am   56  ASN56      -0.1960
     38  CA       -63.1190  -24.9060   39.7200 C.3    56  ASN56       0.1819
     39  C        -63.6990  -24.4630   38.3880 C.2    56  ASN56       0.2621
     40  O        -64.5930  -23.6160   38.3520 O.2    56  ASN56      -0.2715
     41  CB       -64.2350  -24.9270   40.7690 C.3    56  ASN56       0.1195
     42  CG       -63.8390  -25.6790   42.0360 C.2    56  ASN56       0.2630
     43  OD1      -63.4620  -26.8510   41.9820 O.2    56  ASN56      -0.2716
     44  ND2      -63.9020  -24.9970   43.1780 N.am   56  ASN56      -0.0877
     45  N        -63.1800  -25.0250   37.3030 N.am   57  PHE57      -0.1960
     46  CA       -63.6980  -24.7240   35.9650 C.3    57  PHE57       0.1771
     47  C        -63.2840  -25.7630   34.9370 C.2    57  PHE57       0.2620
     48  O        -62.2880  -26.4730   35.1050 O.2    57  PHE57      -0.2715
     49  CB       -63.2800  -23.3160   35.4940 C.3    57  PHE57       0.0574
     50  CG       -61.8060  -23.1760   35.1550 C.ar   57  PHE57      -0.0200
     51  CD1      -61.3580  -23.3640   33.8480 C.ar   57  PHE57      -0.0042
     52  CD2      -60.8830  -22.8190   36.1330 C.ar   57  PHE57      -0.0042
     53  CE1      -60.0130  -23.2220   33.5250 C.ar   57  PHE57      -0.0003
     54  CE2      -59.5290  -22.6710   35.8240 C.ar   57  PHE57      -0.0003
     55  CZ       -59.0960  -22.8630   34.5170 C.ar   57  PHE57      -0.0000
     56  N        -64.0600  -25.8400   33.8630 N.am   58  GLY58      -0.1940
     57  CA       -63.6960  -26.6420   32.7150 C.3    58  GLY58       0.2014
     58  C        -63.7310  -25.7350   31.5010 C.2    58  GLY58       0.2640
     59  O        -64.3170  -24.6480   31.5460 O.2    58  GLY58      -0.2714
     60  N        -63.0960  -26.1530   30.4150 N.am   59  SER59      -0.1935
     61  CA       -63.0430  -25.2910   29.2470 C.3    59  SER59       0.2055
     62  C        -62.9410  -26.0930   27.9690 C.2    59  SER59       0.2643
     63  O        -62.5900  -27.2790   27.9730 O.2    59  SER59      -0.2714
     64  CB       -61.8440  -24.3420   29.3270 C.3    59  SER59       0.2130
     65  OG       -60.6440  -25.0170   28.9760 O.3    59  SER59      -0.2179
     66  N        -63.2600  -25.4330   26.8670 N.am   60  TYR60      -0.1959
     67  CA       -63.0030  -25.9930   25.5480 C.3    60  TYR60       0.1771
     68  C        -62.6920  -24.8160   24.6320 C.2    60  TYR60       0.2619
     69  O        -63.4980  -23.8910   24.4990 O.2    60  TYR60      -0.2715
     70  CB       -64.1990  -26.8030   25.0690 C.3    60  TYR60       0.0574
     71  CG       -63.8700  -27.7330   23.9270 C.ar   60  TYR60      -0.0198
     72  CD1      -63.1000  -28.8740   24.1320 C.ar   60  TYR60      -0.0009
     73  CD2      -64.3360  -27.4780   22.6520 C.ar   60  TYR60      -0.0009
     74  CE1      -62.7940  -29.7240   23.0750 C.ar   60  TYR60       0.0417
     75  CE2      -64.0350  -28.3140   21.5910 C.ar   60  TYR60       0.0417
     76  CZ       -63.2730  -29.4320   21.8090 C.ar   60  TYR60       0.1957
     77  OH       -62.9960  -30.2580   20.7480 O.3    60  TYR60      -0.2866
     78  N        -61.4960  -24.8240   24.0510 N.am   61  VAL61      -0.1963
     79  CA       -60.9730  -23.6420   23.3690 C.3    61  VAL61       0.1727
     80  C        -60.3440  -24.0910   22.0670 C.2    61  VAL61       0.2617
     81  O        -60.1850  -25.2870   21.8380 O.2    61  VAL61      -0.2715
     82  CB       -59.9050  -22.9110   24.2300 C.3    61  VAL61       0.0290
     83  CG1      -60.4740  -22.5150   25.6050 C.3    61  VAL61       0.0023
     84  CG2      -58.6490  -23.7820   24.4140 C.3    61  VAL61       0.0023
     85  N        -60.0110  -23.1320   21.2130 N.am   62  THR62      -0.1937
     86  CA       -59.2300  -23.4200   20.0120 C.3    62  THR62       0.2028
     87  C        -57.9310  -22.6330   20.1150 C.2    62  THR62       0.2642
     88  O        -57.9440  -21.4510   20.4530 O.2    62  THR62      -0.2714
     89  CB       -59.9790  -22.9870   18.7560 C.3    62  THR62       0.1808
     90  OG1      -61.1380  -23.8090   18.5960 O.3    62  THR62      -0.2208
     91  CG2      -59.0800  -23.1150   17.5160 C.3    62  THR62       0.0379
     92  N        -56.7990  -23.2760   19.8570 N.am   63  HIS63      -0.1959
     93  CA       -55.5340  -22.5680   19.9980 C.3    63  HIS63       0.1787
     94  C        -54.6140  -22.8590   18.8250 C.2    63  HIS63       0.2620
     95  O        -54.6980  -23.9230   18.2060 O.2    63  HIS63      -0.2715
     96  CB       -54.8350  -22.9510   21.3100 C.3    63  HIS63       0.0785
     97  CG       -54.3650  -24.3730   21.3510 C.ar   63  HIS63       0.0821
     98  ND1      -53.1430  -24.7730   20.8580 N.ar   63  HIS63      -0.2267
     99  CD2      -54.9680  -25.4940   21.8200 C.ar   63  HIS63       0.1154
    100  CE1      -53.0080  -26.0780   21.0240 C.ar   63  HIS63       0.1986
    101  NE2      -54.0970  -26.5370   21.6130 N.ar   63  HIS63      -0.2212
    102  N        -53.7340  -21.9110   18.5300 N.am   64  GLU64      -0.1963
    103  CA       -52.7180  -22.1400   17.5130 C.3    64  GLU64       0.1733
    104  C        -51.7690  -23.2110   18.0180 C.2    64  GLU64       0.2617
    105  O        -51.4780  -23.2890   19.2160 O.2    64  GLU64      -0.2715
    106  CB       -51.9320  -20.8660   17.2250 C.3    64  GLU64       0.0429
    107  CG       -52.7420  -19.7490   16.6050 C.3    64  GLU64       0.1163
    108  CD       -51.8620  -18.5930   16.1790 C.2    64  GLU64       0.3649
    109  OE1      -52.3880  -17.4700   16.0170 O.co2  64  GLU64      -0.2457
    110  OE2      -50.6420  -18.8170   16.0070 O.co2  64  GLU64      -0.2457
    111  N        -51.2850  -24.0380   17.1040 N.am   65  THR65      -0.1951
    112  CA       -50.3310  -25.0760   17.4590 C.3    65  THR65       0.1897
    113  C        -49.1300  -24.4540   18.1650 C.2    65  THR65       0.2313
    114  O        -48.7260  -23.3300   17.8420 O.2    65  THR65      -0.2863
    115  CB       -49.8840  -25.8690   16.2080 C.3    65  THR65       0.1794
    116  OG1      -48.8600  -26.8070   16.5660 O.3    65  THR65      -0.2208
    117  CG2      -49.3650  -24.9290   15.1520 C.3    65  THR65       0.0378
    118  N        -50.2720  -23.3360   23.7170 N.3    68  PHE68      -0.1241
    119  CA       -51.2460  -23.7630   24.7200 C.3    68  PHE68       0.1605
    120  C        -50.5120  -24.3420   25.9280 C.2    68  PHE68       0.2264
    121  O        -49.6090  -25.1680   25.7790 O.2    68  PHE68      -0.2867
    122  CB       -52.1780  -24.8200   24.1190 C.3    68  PHE68       0.0534
    123  CG       -53.1760  -25.4060   25.0990 C.ar   68  PHE68      -0.0203
    124  CD1      -54.4700  -24.9020   25.1760 C.ar   68  PHE68      -0.0042
    125  CD2      -52.8280  -26.4690   25.9220 C.ar   68  PHE68      -0.0042
    126  CE1      -55.3960  -25.4440   26.0630 C.ar   68  PHE68      -0.0003
    127  CE2      -53.7470  -27.0140   26.8140 C.ar   68  PHE68      -0.0003
    128  CZ       -55.0280  -26.5010   26.8780 C.ar   68  PHE68      -0.0000
    129  N        -51.6240  -25.5920   30.1710 N.3    70  TYR70      -0.1241
    130  CA       -52.5920  -25.6810   31.2530 C.3    70  TYR70       0.1605
    131  C        -51.8700  -26.2830   32.4440 C.2    70  TYR70       0.2264
    132  O        -51.3900  -27.4220   32.3900 O.2    70  TYR70      -0.2867
    133  CB       -53.7810  -26.5500   30.8390 C.3    70  TYR70       0.0534
    134  CG       -54.7470  -26.8380   31.9570 C.ar   70  TYR70      -0.0201
    135  CD1      -55.3550  -25.8000   32.6500 C.ar   70  TYR70      -0.0009
    136  CD2      -55.0570  -28.1450   32.3140 C.ar   70  TYR70      -0.0009
    137  CE1      -56.2370  -26.0500   33.6810 C.ar   70  TYR70       0.0417
    138  CE2      -55.9410  -28.4130   33.3480 C.ar   70  TYR70       0.0417
    139  CZ       -56.5340  -27.3570   34.0140 C.ar   70  TYR70       0.1957
    140  OH       -57.4170  -27.5940   35.0420 O.3    70  TYR70      -0.2866
    141  N        -50.9070  -26.0390   37.0260 N.3    72  TYR72      -0.1241
    142  CA       -51.2130  -25.6220   38.3840 C.3    72  TYR72       0.1605
    143  C        -50.0190  -24.9350   39.0240 C.2    72  TYR72       0.2264
    144  O        -48.8690  -25.3290   38.8090 O.2    72  TYR72      -0.2867
    145  CB       -51.6060  -26.8360   39.2410 C.3    72  TYR72       0.0534
    146  CG       -53.0910  -27.1100   39.2690 C.ar   72  TYR72      -0.0201
    147  CD1      -53.8770  -26.6520   40.3220 C.ar   72  TYR72      -0.0009
    148  CD2      -53.7090  -27.8180   38.2440 C.ar   72  TYR72      -0.0009
    149  CE1      -55.2450  -26.8940   40.3590 C.ar   72  TYR72       0.0417
    150  CE2      -55.0790  -28.0740   38.2670 C.ar   72  TYR72       0.0417
    151  CZ       -55.8390  -27.6050   39.3270 C.ar   72  TYR72       0.1957
    152  OH       -57.1980  -27.8520   39.3640 O.3    72  TYR72      -0.2866
    153  N        -55.2990  -23.3240   39.1540 N.3    77  ALA77      -0.1245
    154  CA       -55.0890  -23.7460   37.7660 C.3    77  ALA77       0.1562
    155  C        -54.9960  -22.5350   36.8550 C.2    77  ALA77       0.2260
    156  O        -55.7290  -21.5600   37.0320 O.2    77  ALA77      -0.2867
    157  CB       -56.2160  -24.6890   37.2860 C.3    77  ALA77       0.0290
    158  N        -54.8520  -21.5250   32.6940 N.3    79  LEU79      -0.1245
    159  CA       -54.9460  -21.8740   31.2860 C.3    79  LEU79       0.1561
    160  C        -54.5070  -20.6590   30.4880 C.2    79  LEU79       0.2260
    161  O        -55.0430  -19.5660   30.6800 O.2    79  LEU79      -0.2867
    162  CB       -56.3910  -22.2330   30.9370 C.3    79  LEU79       0.0270
    163  CG       -56.7740  -22.2460   29.4580 C.3    79  LEU79       0.0019
    164  CD1      -55.9730  -23.3030   28.7420 C.3    79  LEU79       0.0001
    165  CD2      -58.2730  -22.4870   29.2910 C.3    79  LEU79       0.0001
    166  N        -55.0170  -17.5620   20.4030 N.3    83  SER83      -0.1217
    167  CA       -56.0080  -17.7300   19.3480 C.3    83  SER83       0.1889
    168  C        -56.5430  -16.3670   18.9340 C.2    83  SER83       0.2288
    169  O        -57.1710  -15.6720   19.7350 O.2    83  SER83      -0.2866
    170  CB       -57.1650  -18.5760   19.8320 C.3    83  SER83       0.2089
    171  OG       -58.2510  -18.5120   18.9220 O.3    83  SER83      -0.2183
@<TRIPOS>BOND
     1   117   115    1
     2   110   108   ar
     3   109   108   ar
     4   108   107    1
     5   115   116    1
     6   115   112    1
     7   107   106    1
     8   111   112    1
     9   111   104   am
    10   106   103    1
    11   112   113    1
    12   103   104    1
    13   103   102    1
    14    91    89    1
    15   114   113    2
    16   104   105    2
    17    95    94    2
    18   102    94   am
    19    90    89    1
    20    89    86    1
    21    94    93    1
    22   171   170    1
    23   168   167    1
    24   168   169    2
    25   167   170    1
    26   167   166    1
    27    92    93    1
    28    92    87   am
    29    93    96    1
    30    86    87    1
    31    86    85    1
    32    87    88    2
    33    25    23   ar
    34    77    76    1
    35    24    23   ar
    36    98   100   ar
    37    98    97   ar
    38   100   101   ar
    39    23    22    1
    40    85    80   am
    41    96    97    1
    42    97    99   ar
    43    75    76   ar
    44    75    73   ar
    45   101    99   ar
    46    76    74   ar
    47    81    80    2
    48    80    79    1
    49    22    19    1
    50    73    71   ar
    51    21    20    2
    52    74    72   ar
    53    20    19    1
    54    79    78    1
    55    79    82    1
    56    19    18    1
    57   118   119    1
    58    71    72   ar
    59    71    70    1
    60    78    68   am
    61   122   119    1
    62   122   123    1
    63    82    84    1
    64    82    83    1
    65    69    68    2
    66    68    67    1
    67   119   120    1
    68    70    67    1
    69   123   124   ar
    70   123   125   ar
    71   124   126   ar
    72    67    66    1
    73   121   120    2
    74   125   127   ar
    75   126   128   ar
    76    16    15    2
    77   127   128   ar
    78    66    62   am
    79    17    15   am
    80    15    14    1
    81    62    63    2
    82    62    61    1
    83    12    13    2
    84    12    11    1
    85   164   163    1
    86    14    11    1
    87    65    64    1
    88    61    64    1
    89    61    60    1
    90   165   163    1
    91    11    10    1
    92   163   162    1
    93   129   130    1
    94    60    58   am
    95   160   161    2
    96   160   159    1
    97   133   130    1
    98   133   134    1
    99    10     3   am
   100   162   159    1
   101   130   131    1
   102   159   158    1
   103     4     3    2
   104    58    59    2
   105    58    57    1
   106     3     2    1
   107   134   136   ar
   108   134   135   ar
   109   136   138   ar
   110   132   131    2
   111   135   137   ar
   112    57    56    1
   113     2     1    1
   114     2     5    1
   115   138   139   ar
   116    53    51   ar
   117    53    55   ar
   118     5     6    1
   119   137   139   ar
   120    51    50   ar
   121    56    47   am
   122   139   140    1
   123    55    54   ar
   124    47    48    2
   125    47    46    1
   126    50    49    1
   127    50    52   ar
   128     6     7    1
   129    49    46    1
   130    54    52   ar
   131     7     8    1
   132    46    45    1
   133   155   156    2
   134   155   154    1
   135   141   142    1
   136   157   154    1
   137    45    39   am
   138     8     9    1
   139   154   153    1
   140   148   150   ar
   141   148   146   ar
   142   150   151   ar
   143    40    39    2
   144   142   143    1
   145   142   145    1
   146    39    38    1
   147   144   143    2
   148   145   146    1
   149   146   147   ar
   150   151   152    1
   151   151   149   ar
   152    38    37    1
   153    38    41    1
   154    37    28   am
   155   147   149   ar
   156    26    27    1
   157    41    42    1
   158    28    29    2
   159    28    27    1
   160    27    30    1
   161    43    42    2
   162    42    44   am
   163    30    31    1
   164    31    32    1
   165    32    33    1
   166    33    34    2
   167    34    36    1
   168    34    35    1
