@<TRIPOS>MOLECULE
tmp/4qh7E00.pdb
 190 188 0 0 0
SMALL
GASTEIGER

@<TRIPOS>ATOM
      1  N        -74.4990  -11.4110   33.4310 N.3     4  LYS4       -0.1231
      2  CA       -73.6430  -10.5030   34.1980 C.3     4  LYS4        0.1693
      3  C        -73.0280   -9.4390   33.3060 C.2     4  LYS4        0.2592
      4  O        -72.9860   -8.2580   33.6480 O.2     4  LYS4       -0.2718
      5  CB       -72.5390  -11.2820   34.9130 C.3     4  LYS4        0.0285
      6  CG       -73.0640  -12.3810   35.8100 C.3     4  LYS4        0.0035
      7  CD       -73.9470  -11.8180   36.9110 C.3     4  LYS4        0.0206
      8  CE       -73.1290  -11.2470   38.0440 C.3     4  LYS4        0.1093
      9  NZ       -73.9460  -11.1540   39.2890 N.3     4  LYS4       -0.1314
     10  N        -72.5590   -9.8670   32.1440 N.am    5  ASN5       -0.1974
     11  CA       -71.8920   -8.9650   31.2240 C.3     5  ASN5        0.1688
     12  C        -72.0780   -9.5130   29.8230 C.2     5  ASN5        0.2292
     13  O        -71.6140  -10.6070   29.5230 O.2     5  ASN5       -0.2864
     14  CB       -70.4060   -8.9000   31.5680 C.3     5  ASN5        0.1181
     15  CG       -69.6390   -7.9060   30.7230 C.2     5  ASN5        0.2629
     16  OD1      -70.1970   -7.2180   29.8670 O.2     5  ASN5       -0.2716
     17  ND2      -68.3390   -7.8110   30.9790 N.am    5  ASN5       -0.0877
     18  N        -71.9840   -8.5440   25.5190 N.3     7  ASP7       -0.1239
     19  CA       -71.8090   -7.6970   24.3570 C.3     7  ASP7        0.1674
     20  C        -72.2520   -8.6070   23.2260 C.2     7  ASP7        0.2266
     21  O        -71.4320   -9.2610   22.5780 O.2     7  ASP7       -0.2867
     22  CB       -70.3450   -7.2890   24.2040 C.3     7  ASP7        0.1410
     23  CG       -70.0930   -6.4830   22.9520 C.2     7  ASP7        0.3668
     24  OD1      -71.0460   -5.8440   22.4620 O.co2   7  ASP7       -0.2456
     25  OD2      -68.9450   -6.4850   22.4590 O.co2   7  ASP7       -0.2456
     26  N        -67.6160  -22.7700   38.7580 N.3    55  ARG55      -0.1231
     27  CA       -68.0170  -21.9880   39.9280 C.3    55  ARG55       0.1694
     28  C        -66.9530  -21.0110   40.3970 C.2    55  ARG55       0.2592
     29  O        -67.2590  -20.0390   41.0920 O.2    55  ARG55      -0.2718
     30  CB       -68.3570  -22.9110   41.1010 C.3    55  ARG55       0.0321
     31  CG       -69.6550  -23.6520   40.9580 C.3    55  ARG55       0.0489
     32  CD       -69.9950  -24.3960   42.2430 C.3    55  ARG55       0.2205
     33  NE       -71.2490  -25.1210   42.0780 N.pl3  55  ARG55      -0.0865
     34  CZ       -72.3450  -24.9000   42.7920 C.cat  55  ARG55       0.5346
     35  NH1      -72.3470  -23.9850   43.7520 N.pl3  55  ARG55       0.1354
     36  NH2      -73.4380  -25.6080   42.5500 N.pl3  55  ARG55       0.1354
     37  N        -65.6970  -21.2850   40.0590 N.am   56  ASN56      -0.1960
     38  CA       -64.6000  -20.4560   40.5560 C.3    56  ASN56       0.1819
     39  C        -63.5040  -20.2270   39.5330 C.2    56  ASN56       0.2621
     40  O        -62.6280  -21.0760   39.3460 O.2    56  ASN56      -0.2715
     41  CB       -63.9910  -21.0310   41.8470 C.3    56  ASN56       0.1195
     42  CG       -65.0300  -21.2590   42.9400 C.2    56  ASN56       0.2630
     43  OD1      -65.4840  -22.3910   43.1530 O.2    56  ASN56      -0.2716
     44  ND2      -65.4080  -20.1860   43.6420 N.am   56  ASN56      -0.0877
     45  N        -63.5590  -19.0710   38.8780 N.am   57  PHE57      -0.1960
     46  CA       -62.5200  -18.6620   37.9380 C.3    57  PHE57       0.1771
     47  C        -62.5760  -17.1780   37.6240 C.2    57  PHE57       0.2620
     48  O        -63.6220  -16.5270   37.7630 O.2    57  PHE57      -0.2715
     49  CB       -62.5810  -19.4870   36.6330 C.3    57  PHE57       0.0574
     50  CG       -63.7720  -19.1880   35.7560 C.ar   57  PHE57      -0.0200
     51  CD1      -63.6790  -18.2660   34.7240 C.ar   57  PHE57      -0.0042
     52  CD2      -64.9670  -19.8700   35.9280 C.ar   57  PHE57      -0.0042
     53  CE1      -64.7620  -18.0130   33.8990 C.ar   57  PHE57      -0.0003
     54  CE2      -66.0620  -19.6130   35.1090 C.ar   57  PHE57      -0.0003
     55  CZ       -65.9530  -18.6950   34.0920 C.ar   57  PHE57      -0.0000
     56  N        -61.4360  -16.6500   37.1970 N.am   58  GLY58      -0.1940
     57  CA       -61.3810  -15.3220   36.6410 C.3    58  GLY58       0.2014
     58  C        -60.7920  -15.4460   35.2600 C.2    58  GLY58       0.2640
     59  O        -60.1680  -16.4590   34.9350 O.2    58  GLY58      -0.2714
     60  N        -60.9780  -14.4250   34.4370 N.am   59  SER59      -0.1935
     61  CA       -60.4940  -14.4930   33.0710 C.3    59  SER59       0.2055
     62  C        -60.0860  -13.1190   32.5770 C.2    59  SER59       0.2643
     63  O        -60.5380  -12.0920   33.1000 O.2    59  SER59      -0.2714
     64  CB       -61.5940  -15.0410   32.1660 C.3    59  SER59       0.2130
     65  OG       -62.5510  -14.0250   31.9060 O.3    59  SER59      -0.2179
     66  N        -59.2180  -13.1080   31.5730 N.am   60  TYR60      -0.1959
     67  CA       -58.9350  -11.8970   30.8220 C.3    60  TYR60       0.1771
     68  C        -58.6710  -12.3090   29.3880 C.2    60  TYR60       0.2619
     69  O        -57.7310  -13.0560   29.1140 O.2    60  TYR60      -0.2715
     70  CB       -57.7470  -11.1340   31.4080 C.3    60  TYR60       0.0574
     71  CG       -57.6650   -9.7220   30.8970 C.ar   60  TYR60      -0.0198
     72  CD1      -58.5310   -8.7460   31.3710 C.ar   60  TYR60      -0.0009
     73  CD2      -56.7300   -9.3660   29.9300 C.ar   60  TYR60      -0.0009
     74  CE1      -58.4700   -7.4510   30.8910 C.ar   60  TYR60       0.0417
     75  CE2      -56.6580   -8.0670   29.4490 C.ar   60  TYR60       0.0417
     76  CZ       -57.5300   -7.1220   29.9360 C.ar   60  TYR60       0.1957
     77  OH       -57.4630   -5.8310   29.4660 O.3    60  TYR60      -0.2866
     78  N        -59.5300  -11.8450   28.4830 N.am   61  VAL61      -0.1963
     79  CA       -59.5650  -12.3740   27.1220 C.3    61  VAL61       0.1727
     80  C        -59.7470  -11.2390   26.1350 C.2    61  VAL61       0.2617
     81  O        -60.0840  -10.1160   26.5140 O.2    61  VAL61      -0.2715
     82  CB       -60.7280  -13.3850   26.9270 C.3    61  VAL61       0.0290
     83  CG1      -60.6850  -14.4960   27.9680 C.3    61  VAL61       0.0023
     84  CG2      -62.0790  -12.6690   27.0190 C.3    61  VAL61       0.0023
     85  N        -59.5330  -11.5410   24.8590 N.am   62  THR62      -0.1937
     86  CA       -59.8070  -10.5770   23.8040 C.3    62  THR62       0.2028
     87  C        -60.9050  -11.1660   22.9400 C.2    62  THR62       0.2642
     88  O        -60.7830  -12.3030   22.4900 O.2    62  THR62      -0.2714
     89  CB       -58.5700  -10.3500   22.9450 C.3    62  THR62       0.1808
     90  OG1      -57.5810   -9.6600   23.7210 O.3    62  THR62      -0.2208
     91  CG2      -58.9150   -9.5170   21.7100 C.3    62  THR62       0.0379
     92  N        -61.9850  -10.4140   22.7250 N.am   63  HIS63      -0.1959
     93  CA       -63.1060  -10.9300   21.9440 C.3    63  HIS63       0.1787
     94  C        -63.5000   -9.9800   20.8200 C.2    63  HIS63       0.2620
     95  O        -63.3040   -8.7670   20.9170 O.2    63  HIS63      -0.2715
     96  CB       -64.3180  -11.2400   22.8370 C.3    63  HIS63       0.0785
     97  CG       -64.9730  -10.0250   23.4270 C.ar   63  HIS63       0.0821
     98  ND1      -65.9430   -9.3050   22.7650 N.ar   63  HIS63      -0.2267
     99  CD2      -64.8060   -9.4160   24.6250 C.ar   63  HIS63       0.1154
    100  CE1      -66.3400   -8.2990   23.5250 C.ar   63  HIS63       0.1986
    101  NE2      -65.6710   -8.3480   24.6640 N.ar   63  HIS63      -0.2212
    102  N        -64.0440  -10.5430   19.7490 N.am   64  GLU64      -0.1963
    103  CA       -64.6320   -9.7330   18.6930 C.3    64  GLU64       0.1733
    104  C        -65.8260   -8.9910   19.2850 C.2    64  GLU64       0.2617
    105  O        -66.5990   -9.5690   20.0480 O.2    64  GLU64      -0.2715
    106  CB       -65.0710  -10.6290   17.5330 C.3    64  GLU64       0.0429
    107  CG       -63.9430  -11.5130   17.0180 C.3    64  GLU64       0.1163
    108  CD       -64.2570  -12.1950   15.6950 C.2    64  GLU64       0.3649
    109  OE1      -65.4100  -12.0890   15.2220 O.co2  64  GLU64      -0.2457
    110  OE2      -63.3320  -12.8170   15.1240 O.co2  64  GLU64      -0.2457
    111  N        -65.9630   -7.7040   18.9780 N.am   65  THR65      -0.1951
    112  CA       -67.0830   -6.9390   19.5190 C.3    65  THR65       0.1897
    113  C        -68.3980   -7.6050   19.1100 C.2    65  THR65       0.2313
    114  O        -68.4850   -8.1970   18.0300 O.2    65  THR65      -0.2863
    115  CB       -67.0550   -5.4560   19.0850 C.3    65  THR65       0.1794
    116  OG1      -67.0260   -5.3730   17.6630 O.3    65  THR65      -0.2208
    117  CG2      -65.8240   -4.7670   19.6290 C.3    65  THR65       0.0378
    118  N        -69.6650  -10.2430   20.2800 N.3    67  HIS67      -0.1226
    119  CA       -69.5770  -11.6960   20.3960 C.3    67  HIS67       0.1752
    120  C        -69.0070  -12.1400   21.7450 C.2    67  HIS67       0.2596
    121  O        -68.0740  -12.9440   21.7880 O.2    67  HIS67      -0.2718
    122  CB       -68.7150  -12.2640   19.2630 C.3    67  HIS67       0.0759
    123  CG       -69.2410  -11.9590   17.8910 C.ar   67  HIS67       0.0818
    124  ND1      -69.1580  -10.7070   17.3180 N.ar   67  HIS67      -0.2268
    125  CD2      -69.8410  -12.7560   16.9750 C.ar   67  HIS67       0.1154
    126  CE1      -69.6970  -10.7430   16.1120 C.ar   67  HIS67       0.1986
    127  NE2      -70.1290  -11.9700   15.8830 N.ar   67  HIS67      -0.2212
    128  N        -69.5810  -11.6280   22.8340 N.am   68  PHE68      -0.1976
    129  CA       -69.1200  -11.9270   24.1940 C.3    68  PHE68       0.1639
    130  C        -70.3200  -12.0520   25.1190 C.2    68  PHE68       0.2290
    131  O        -71.2120  -11.2050   25.0960 O.2    68  PHE68      -0.2864
    132  CB       -68.1990  -10.8040   24.6920 C.3    68  PHE68       0.0560
    133  CG       -67.7400  -10.9610   26.1230 C.ar   68  PHE68      -0.0200
    134  CD1      -66.5270  -11.5780   26.4120 C.ar   68  PHE68      -0.0042
    135  CD2      -68.4960  -10.4560   27.1740 C.ar   68  PHE68      -0.0042
    136  CE1      -66.0900  -11.7080   27.7240 C.ar   68  PHE68      -0.0003
    137  CE2      -68.0710  -10.6000   28.4930 C.ar   68  PHE68      -0.0003
    138  CZ       -66.8660  -11.2240   28.7610 C.ar   68  PHE68      -0.0000
    139  N        -71.1330  -13.3480   29.3860 N.3    70  TYR70      -0.1241
    140  CA       -70.7380  -13.9160   30.6680 C.3    70  TYR70       0.1605
    141  C        -72.0010  -13.9980   31.5170 C.2    70  TYR70       0.2264
    142  O        -72.6310  -12.9740   31.7960 O.2    70  TYR70      -0.2867
    143  CB       -69.6880  -13.0300   31.3440 C.3    70  TYR70       0.0534
    144  CG       -69.2890  -13.5260   32.7210 C.ar   70  TYR70      -0.0201
    145  CD1      -68.7200  -14.7820   32.8820 C.ar   70  TYR70      -0.0009
    146  CD2      -69.4650  -12.7330   33.8450 C.ar   70  TYR70      -0.0009
    147  CE1      -68.3500  -15.2420   34.1260 C.ar   70  TYR70       0.0417
    148  CE2      -69.1020  -13.1820   35.0980 C.ar   70  TYR70       0.0417
    149  CZ       -68.5460  -14.4370   35.2290 C.ar   70  TYR70       0.1957
    150  OH       -68.1860  -14.8860   36.4700 O.3    70  TYR70      -0.2866
    151  N        -74.6080  -16.5930   34.4590 N.3    72  TYR72      -0.1241
    152  CA       -74.7700  -17.6810   35.4010 C.3    72  TYR72       0.1605
    153  C        -76.0080  -18.4900   35.0710 C.2    72  TYR72       0.2264
    154  O        -77.0440  -17.9410   34.6900 O.2    72  TYR72      -0.2867
    155  CB       -74.9000  -17.1290   36.8150 C.3    72  TYR72       0.0534
    156  CG       -73.5950  -16.9900   37.5480 C.ar   72  TYR72      -0.0201
    157  CD1      -73.1790  -17.9740   38.4320 C.ar   72  TYR72      -0.0009
    158  CD2      -72.7870  -15.8680   37.3770 C.ar   72  TYR72      -0.0009
    159  CE1      -71.9960  -17.8540   39.1330 C.ar   72  TYR72       0.0417
    160  CE2      -71.5870  -15.7440   38.0760 C.ar   72  TYR72       0.0417
    161  CZ       -71.2070  -16.7450   38.9510 C.ar   72  TYR72       0.1957
    162  OH       -70.0310  -16.6580   39.6600 O.3    72  TYR72      -0.2866
    163  N        -71.0810  -20.3690   36.5000 N.3    77  ALA77      -0.1245
    164  CA       -70.8210  -19.2580   35.5770 C.3    77  ALA77       0.1562
    165  C        -70.3920  -19.7940   34.2170 C.2    77  ALA77       0.2260
    166  O        -69.6980  -20.8110   34.1420 O.2    77  ALA77      -0.2867
    167  CB       -69.7460  -18.3510   36.1440 C.3    77  ALA77       0.0290
    168  N        -68.6490  -18.4710   30.5320 N.3    79  LEU79      -0.1245
    169  CA       -68.0290  -17.4520   29.6950 C.3    79  LEU79       0.1561
    170  C        -67.9850  -18.0200   28.2920 C.2    79  LEU79       0.2260
    171  O        -67.4480  -19.0980   28.0880 O.2    79  LEU79      -0.2867
    172  CB       -66.6050  -17.1740   30.1770 C.3    79  LEU79       0.0270
    173  CG       -65.7210  -16.3470   29.2440 C.3    79  LEU79       0.0019
    174  CD1      -66.3510  -14.9810   28.9730 C.3    79  LEU79       0.0001
    175  CD2      -64.3270  -16.1950   29.8170 C.3    79  LEU79       0.0001
    176  N        -66.1010  -15.1110   21.1350 N.3    82  LYS82      -0.1231
    177  CA       -65.4390  -15.3940   19.8710 C.3    82  LYS82       0.1693
    178  C        -64.1800  -14.5480   19.8220 C.2    82  LYS82       0.2592
    179  O        -64.2260  -13.3310   20.0600 O.2    82  LYS82      -0.2718
    180  CB       -66.3570  -15.0380   18.6880 C.3    82  LYS82       0.0285
    181  CG       -65.8730  -15.5370   17.3150 C.3    82  LYS82       0.0035
    182  CD       -66.9040  -15.1590   16.2330 C.3    82  LYS82       0.0206
    183  CE       -66.5380  -15.7160   14.8670 C.3    82  LYS82       0.1093
    184  NZ       -65.3140  -15.0690   14.3040 N.3    82  LYS82      -0.1314
    185  N        -63.0520  -15.1810   19.5250 N.am   83  SER83      -0.1952
    186  CA       -61.7860  -14.4630   19.5310 C.3    83  SER83       0.1924
    187  C        -61.5580  -13.7040   18.2270 C.2    83  SER83       0.2314
    188  O        -60.8110  -12.7200   18.2080 O.2    83  SER83      -0.2863
    189  CB       -60.6260  -15.4140   19.8110 C.3    83  SER83       0.2116
    190  OG       -60.5440  -16.4390   18.8280 O.3    83  SER83      -0.2180
@<TRIPOS>BOND
     1   184   183    1
     2   183   182    1
     3   110   108   ar
     4   109   108   ar
     5   108   107    1
     6   127   126   ar
     7   127   125   ar
     8   126   124   ar
     9   182   181    1
    10   125   123   ar
    11   107   106    1
    12   181   180    1
    13   124   123   ar
    14   106   103    1
    15   116   115    1
    16   123   122    1
    17   114   113    2
    18   188   187    2
    19   187   186    1
    20   180   177    1
    21   103   104    1
    22   103   102    1
    23   190   189    1
    24   111   104   am
    25   111   112    1
    26   115   112    1
    27   115   117    1
    28   113   112    1
    29   122   119    1
    30   104   105    2
    31   185   186    1
    32   185   178   am
    33   186   189    1
    34   102    94   am
    35   178   177    1
    36   178   179    2
    37   177   176    1
    38   118   119    1
    39   119   120    1
    40    94    95    2
    41    94    93    1
    42    91    89    1
    43   120   121    2
    44   120   128   am
    45    93    92    1
    46    93    96    1
    47    25    23   ar
    48    24    23   ar
    49    88    87    2
    50    21    20    2
    51    92    87   am
    52    98    97   ar
    53    98   100   ar
    54   128   129    1
    55    96    97    1
    56    87    86    1
    57    89    90    1
    58    89    86    1
    59    23    22    1
    60    20    19    1
    61    97    99   ar
    62   100   101   ar
    63    86    85    1
    64   129   132    1
    65   129   130    1
    66    22    19    1
    67    19    18    1
    68    99   101   ar
    69   132   133    1
    70    85    80   am
    71   131   130    2
    72   133   134   ar
    73   133   135   ar
    74    80    81    2
    75    80    79    1
    76   134   136   ar
    77    82    84    1
    78    82    79    1
    79    82    83    1
    80    79    78    1
    81   135   137   ar
    82   136   138   ar
    83   171   170    2
    84   170   169    1
    85    78    68   am
    86   137   138   ar
    87   174   173    1
    88    69    68    2
    89   173   175    1
    90   173   172    1
    91   139   140    1
    92    68    67    1
    93    75    73   ar
    94    75    76   ar
    95    77    76    1
    96    13    12    2
    97   169   172    1
    98   169   168    1
    99    12    11    1
   100    16    15    2
   101    73    71   ar
   102    76    74   ar
   103   140   143    1
   104   140   141    1
   105    15    17   am
   106    15    14    1
   107    67    70    1
   108    67    66    1
   109    74    72   ar
   110    71    72   ar
   111    71    70    1
   112    11    14    1
   113    11    10    1
   114   143   144    1
   115   141   142    2
   116    66    62   am
   117    65    64    1
   118    10     3   am
   119    64    61    1
   120    62    61    1
   121    62    63    2
   122   144   145   ar
   123   144   146   ar
   124   145   147   ar
   125    61    60    1
   126     3     4    2
   127     3     2    1
   128     1     2    1
   129   146   148   ar
   130    53    55   ar
   131    53    51   ar
   132    55    54   ar
   133   147   149   ar
   134   166   165    2
   135     2     5    1
   136   165   164    1
   137    60    58   am
   138   151   152    1
   139   154   153    2
   140    51    50   ar
   141     5     6    1
   142    59    58    2
   143   153   152    1
   144   148   149   ar
   145    54    52   ar
   146   149   150    1
   147    58    57    1
   148   152   155    1
   149   164   167    1
   150   164   163    1
   151    50    52   ar
   152    50    49    1
   153     6     7    1
   154    49    46    1
   155    57    56    1
   156   155   156    1
   157     7     8    1
   158    56    47   am
   159   158   156   ar
   160   158   160   ar
   161   156   157   ar
   162    47    48    2
   163    47    46    1
   164    46    45    1
   165     8     9    1
   166   160   161   ar
   167   157   159   ar
   168    26    27    1
   169    45    39   am
   170   161   159   ar
   171   161   162    1
   172    40    39    2
   173    39    38    1
   174    27    28    1
   175    27    30    1
   176    37    28   am
   177    37    38    1
   178    28    29    2
   179    38    41    1
   180    31    30    1
   181    31    32    1
   182    41    42    1
   183    33    32    1
   184    33    34    2
   185    36    34    1
   186    34    35    1
   187    42    43    2
   188    42    44   am
