@<TRIPOS>MOLECULE
tmp/4qhbA02.pdb
 92 91 0 0 0
SMALL
GASTEIGER

@<TRIPOS>ATOM
      1  N         43.3670   20.3010   48.2350 N.3    73  TRP73      -0.1241
      2  CA        43.2160   21.3760   47.2610 C.3    73  TRP73       0.1605
      3  C         44.5070   22.1940   47.0210 C.2    73  TRP73       0.2264
      4  O         45.5460   22.0390   47.6780 O.2    73  TRP73      -0.2867
      5  CB        41.9510   22.2220   47.6250 C.3    73  TRP73       0.0550
      6  CG        40.5790   21.3100   47.6560 C.ar   73  TRP73       0.0003
      7  CD1       39.6170   21.3060   48.6300 C.ar   73  TRP73       0.0946
      8  CD2       40.1870   20.2400   46.7470 C.ar   73  TRP73       0.0152
      9  NE1       38.6370   20.3640   48.3470 N.ar   73  TRP73      -0.2442
     10  CE2       38.9670   19.6960   47.2080 C.ar   73  TRP73       0.0810
     11  CE3       40.7350   19.7230   45.5790 C.ar   73  TRP73       0.0012
     12  CZ2       38.2920   18.6420   46.5320 C.ar   73  TRP73       0.0191
     13  CZ3       40.0690   18.6820   44.8870 C.ar   73  TRP73       0.0001
     14  CH2       38.8660   18.1500   45.3750 C.ar   73  TRP73       0.0015
     15  N         47.7150   20.0700   43.9890 N.3   129  PHE129     -0.1241
     16  CA        46.6360   19.2300   44.5150 C.3   129  PHE129      0.1605
     17  C         47.1650   17.9670   45.1850 C.2   129  PHE129      0.2264
     18  O         47.4420   16.9880   44.5100 O.2   129  PHE129     -0.2867
     19  CB        45.6880   18.7870   43.4040 C.3   129  PHE129      0.0534
     20  CG        44.8140   19.8670   42.8350 C.ar  129  PHE129     -0.0203
     21  CD1       45.2120   20.6080   41.7480 C.ar  129  PHE129     -0.0042
     22  CD2       43.5590   20.0890   43.3480 C.ar  129  PHE129     -0.0042
     23  CE1       44.3920   21.5880   41.2160 C.ar  129  PHE129     -0.0003
     24  CE2       42.7250   21.0560   42.8190 C.ar  129  PHE129     -0.0003
     25  CZ        43.1400   21.8060   41.7420 C.ar  129  PHE129     -0.0000
     26  N         38.1860   30.0550   41.8180 N.3   250  GLY250     -0.1210
     27  CA        38.3250   28.7300   41.1930 C.3   250  GLY250      0.1956
     28  C         37.1210   28.0240   40.6240 C.2   250  GLY250      0.2612
     29  O         37.1980   26.8720   40.2210 O.2   250  GLY250     -0.2717
     30  N         36.0120   28.7330   40.5530 N.am  251  HIS251     -0.1961
     31  CA        34.8260   28.2140   39.9470 C.3   251  HIS251      0.1787
     32  C         34.9280   28.5060   38.4500 C.2   251  HIS251      0.2621
     33  O         35.7720   29.2880   37.9910 O.2   251  HIS251     -0.2715
     34  CB        33.6380   28.9190   40.5360 C.3   251  HIS251      0.0785
     35  CG        33.7410   30.4040   40.4200 C.ar  251  HIS251      0.0821
     36  ND1       34.4760   31.1690   41.3040 N.ar  251  HIS251     -0.2267
     37  CD2       33.2630   31.2550   39.4810 C.ar  251  HIS251      0.1154
     38  CE1       34.4200   32.4330   40.9260 C.ar  251  HIS251      0.1986
     39  NE2       33.6810   32.5150   39.8320 N.ar  251  HIS251     -0.2212
     40  N         34.0390   27.9130   37.6760 N.am  252  SER252     -0.1936
     41  CA        34.0750   28.1060   36.2430 C.3   252  SER252      0.2055
     42  C         33.7910   29.5660   35.8760 C.2   252  SER252      0.2643
     43  O         32.7780   30.1310   36.2860 O.2   252  SER252     -0.2714
     44  CB        33.0630   27.1720   35.5770 C.3   252  SER252      0.2130
     45  OG        33.1990   27.2440   34.1720 O.3   252  SER252     -0.2179
     46  N         34.6790   30.1620   35.0900 N.am  253  GLY253     -0.1954
     47  CA        34.5330   31.5400   34.6400 C.3   253  GLY253      0.1869
     48  C         35.0380   32.5540   35.6550 C.2   253  GLY253      0.2309
     49  O         34.9140   33.7450   35.4200 O.2   253  GLY253     -0.2863
     50  N         40.6910   31.7420   36.1500 N.3   257  PHE257     -0.1241
     51  CA        40.7390   31.1730   34.7920 C.3   257  PHE257      0.1605
     52  C         40.4420   32.1020   33.6270 C.2   257  PHE257      0.2264
     53  O         40.3510   31.6520   32.5190 O.2   257  PHE257     -0.2867
     54  CB        39.7280   30.0310   34.7270 C.3   257  PHE257      0.0534
     55  CG        39.9850   28.9500   35.6970 C.ar  257  PHE257     -0.0203
     56  CD1       41.0990   28.1380   35.5330 C.ar  257  PHE257     -0.0042
     57  CD2       39.0920   28.6770   36.7420 C.ar  257  PHE257     -0.0042
     58  CE1       41.3380   27.1010   36.4070 C.ar  257  PHE257     -0.0003
     59  CE2       39.3240   27.6190   37.6220 C.ar  257  PHE257     -0.0003
     60  CZ        40.4650   26.8450   37.4460 C.ar  257  PHE257     -0.0000
     61  N         41.2570   17.3810   40.1200 N.3   292  GLY292     -0.1225
     62  CA        40.0450   16.9480   39.4590 C.3   292  GLY292      0.1811
     63  C         40.3550   16.6770   37.9860 C.2   292  GLY292      0.2280
     64  O         41.3530   17.1540   37.4420 O.2   292  GLY292     -0.2866
     65  N         38.3870   15.9000   33.9490 N.3   294  TRP294     -0.1241
     66  CA        37.2330   15.8260   33.0260 C.3   294  TRP294      0.1605
     67  C         37.5930   15.0110   31.7810 C.2   294  TRP294      0.2264
     68  O         38.7750   14.8190   31.5100 O.2   294  TRP294     -0.2867
     69  CB        36.8270   17.1910   32.5250 C.3   294  TRP294      0.0550
     70  CG        36.4750   18.0920   33.5850 C.ar  294  TRP294      0.0003
     71  CD1       35.2990   18.1290   34.2810 C.ar  294  TRP294      0.0946
     72  CD2       37.2750   19.1450   34.0920 C.ar  294  TRP294      0.0152
     73  NE1       35.3420   19.1150   35.2190 N.ar  294  TRP294     -0.2442
     74  CE2       36.5400   19.7590   35.1200 C.ar  294  TRP294      0.0810
     75  CE3       38.5560   19.6240   33.7880 C.ar  294  TRP294      0.0012
     76  CZ2       37.0330   20.8020   35.8520 C.ar  294  TRP294      0.0191
     77  CZ3       39.0380   20.6640   34.5100 C.ar  294  TRP294      0.0001
     78  CH2       38.2790   21.2510   35.5360 C.ar  294  TRP294      0.0015
     79  N         42.2780   19.6100   36.1020 N.3   319  SER319     -0.1217
     80  CA        42.1280   21.0210   36.5130 C.3   319  SER319      0.1889
     81  C         43.5140   21.6730   36.5420 C.2   319  SER319      0.2288
     82  O         43.6730   22.7940   36.1250 O.2   319  SER319     -0.2866
     83  CB        41.4250   21.1290   37.8650 C.3   319  SER319      0.2089
     84  OG        41.4490   22.4260   38.3910 O.3   319  SER319     -0.2183
     85  N         44.9520   23.3630   33.3460 N.3   322  LEU322     -0.1245
     86  CA        44.3610   24.5870   32.8210 C.3   322  LEU322      0.1561
     87  C         45.2270   25.8080   32.9460 C.2   322  LEU322      0.2260
     88  O         45.8200   26.0340   33.9900 O.2   322  LEU322     -0.2867
     89  CB        43.0420   24.8930   33.5530 C.3   322  LEU322      0.0270
     90  CG        41.9720   23.8350   33.3520 C.3   322  LEU322      0.0019
     91  CD1       40.8190   24.0990   34.2890 C.3   322  LEU322      0.0001
     92  CD2       41.5120   23.7910   31.8940 C.3   322  LEU322      0.0001
@<TRIPOS>BOND
     1    68    67    2
     2    67    66    1
     3    92    90    1
     4    53    52    2
     5    69    66    1
     6    69    70    1
     7    86    87    1
     8    86    85    1
     9    86    89    1
    10    87    88    2
    11    66    65    1
    12    90    89    1
    13    90    91    1
    14    70    72   ar
    15    70    71   ar
    16    52    51    1
    17    75    72   ar
    18    75    77   ar
    19    72    74   ar
    20    45    44    1
    21    71    73   ar
    22    77    78   ar
    23    47    46    1
    24    47    48    1
    25    54    51    1
    26    54    55    1
    27    51    50    1
    28    46    42   am
    29    74    73   ar
    30    74    76   ar
    31    49    48    2
    32    56    55   ar
    33    56    58   ar
    34    78    76   ar
    35    44    41    1
    36    55    57   ar
    37    42    41    1
    38    42    43    2
    39    79    80    1
    40    82    81    2
    41    41    40    1
    42    58    60   ar
    43    80    81    1
    44    80    83    1
    45    57    59   ar
    46    64    63    2
    47    60    59   ar
    48    40    32   am
    49    83    84    1
    50    63    62    1
    51    33    32    2
    52    32    31    1
    53    62    61    1
    54    37    39   ar
    55    37    35   ar
    56    39    38   ar
    57    31    34    1
    58    31    30    1
    59    29    28    2
    60    35    34    1
    61    35    36   ar
    62    30    28   am
    63    28    27    1
    64    38    36   ar
    65    27    26    1
    66    23    25   ar
    67    23    21   ar
    68    25    24   ar
    69    21    20   ar
    70    24    22   ar
    71    20    22   ar
    72    20    19    1
    73    19    16    1
    74    15    16    1
    75    18    17    2
    76    16    17    1
    77    13    14   ar
    78    13    11   ar
    79    14    12   ar
    80    11     8   ar
    81    12    10   ar
    82     8    10   ar
    83     8     6   ar
    84     3     2    1
    85     3     4    2
    86    10     9   ar
    87     2     5    1
    88     2     1    1
    89     5     6    1
    90     6     7   ar
    91     9     7   ar
