@<TRIPOS>MOLECULE
tmp/4qhbB00.pdb
 84 78 0 0 0
SMALL
GASTEIGER

@<TRIPOS>ATOM
      1  N         81.1170   24.8030   12.1780 N.3    46  LEU46      -0.1245
      2  CA        82.2540   25.2140   12.9590 C.3    46  LEU46       0.1561
      3  C         82.5900   26.6550   12.6430 C.2    46  LEU46       0.2260
      4  O         82.3590   27.1150   11.5130 O.2    46  LEU46      -0.2867
      5  CB        83.4120   24.3010   12.5630 C.3    46  LEU46       0.0270
      6  CG        84.6390   24.1830   13.4460 C.3    46  LEU46       0.0019
      7  CD1       84.3280   23.2180   14.5670 C.3    46  LEU46       0.0001
      8  CD2       85.8420   23.7000   12.6550 C.3    46  LEU46       0.0001
      9  N         87.1380   22.9490   19.9560 N.3    82  LEU82      -0.1231
     10  CA        88.3430   22.1690   19.6690 C.3    82  LEU82       0.1678
     11  C         89.3990   22.5250   20.6890 C.2    82  LEU82       0.2434
     12  O         89.6940   23.6890   20.8620 O.2    82  LEU82      -0.2733
     13  CB        88.8180   22.4780   18.2680 C.3    82  LEU82       0.0284
     14  CG        87.7860   22.2320   17.1620 C.3    82  LEU82       0.0019
     15  CD1       88.4480   22.4300   15.8280 C.3    82  LEU82       0.0001
     16  CD2       87.1910   20.8300   17.2410 C.3    82  LEU82       0.0001
     17  N         89.9290   21.5450   21.4340 N.am   83  PRO83      -0.2718
     18  CA        90.9230   21.8960   22.5020 C.3    83  PRO83       0.1535
     19  C         92.1680   22.5980   21.9590 C.2    83  PRO83       0.2598
     20  O         92.7390   22.1440   20.9770 O.2    83  PRO83      -0.2715
     21  CB        91.2950   20.5500   23.1300 C.3    83  PRO83       0.0310
     22  CG        90.2540   19.5830   22.6680 C.3    83  PRO83       0.0237
     23  CD        89.7040   20.0920   21.3460 C.3    83  PRO83       0.0939
     24  N         92.5360   23.7250   22.5560 N.am   84  LYS84      -0.1978
     25  CA        93.6730   24.5410   22.0750 C.3    84  LYS84       0.1596
     26  C         94.9920   23.7890   22.1160 C.2    84  LYS84       0.2287
     27  O         95.8410   23.9700   21.2660 O.2    84  LYS84      -0.2864
     28  CB        93.8110   25.8760   22.8790 C.3    84  LYS84       0.0298
     29  CG        92.6720   26.8810   22.6510 C.3    84  LYS84       0.0038
     30  CD        93.1570   28.3330   22.6010 C.3    84  LYS84       0.0206
     31  CE        93.6450   28.8890   23.9270 C.3    84  LYS84       0.1093
     32  NZ        92.4850   29.2450   24.7750 N.3    84  LYS84      -0.1314
     33  N         95.5750   20.7450   21.5080 N.3    86  SER86      -0.1217
     34  CA        95.5770   19.5110   20.6980 C.3    86  SER86       0.1889
     35  C         95.9920   19.7490   19.2600 C.2    86  SER86       0.2288
     36  O         95.4050   20.5600   18.5680 O.2    86  SER86      -0.2866
     37  CB        94.2040   18.8570   20.7070 C.3    86  SER86       0.2089
     38  OG        94.2920   17.5390   20.2100 O.3    86  SER86      -0.2183
     39  N         92.5920   17.4640   15.6800 N.3    89  ASN89      -0.1240
     40  CA        91.2020   17.7750   16.0290 C.3    89  ASN89       0.1653
     41  C         90.2250   17.3940   14.8950 C.2    89  ASN89       0.2266
     42  O         90.6390   17.0530   13.8120 O.2    89  ASN89      -0.2867
     43  CB        91.0840   19.2540   16.4210 C.3    89  ASN89       0.1155
     44  CG        91.3940   20.1800   15.2690 C.2    89  ASN89       0.2627
     45  OD1       91.0250   19.9180   14.1300 O.2    89  ASN89      -0.2716
     46  ND2       92.1050   21.2570   15.5550 N.am   89  ASN89      -0.0877
     47  N         91.0450   19.1080   11.2990 N.3    91  ASN91      -0.1240
     48  CA        92.1600   18.6600   10.4580 C.3    91  ASN91       0.1653
     49  C         92.0160   17.1650   10.1320 C.2    91  ASN91       0.2266
     50  O         92.6220   16.6740    9.1890 O.2    91  ASN91      -0.2867
     51  CB        93.5510   19.0710   11.0090 C.3    91  ASN91       0.1155
     52  CG        93.8160   18.5970   12.4180 C.2    91  ASN91       0.2627
     53  OD1       93.4050   17.5090   12.8320 O.2    91  ASN91      -0.2716
     54  ND2       94.4980   19.4130   13.1690 N.am   91  ASN91      -0.0877
     55  N         89.8010   17.4020    7.1270 N.3    94  GLU94      -0.1245
     56  CA        90.5840   17.8830    5.9730 C.3    94  GLU94       0.1567
     57  C         91.4350   16.7940    5.3820 C.2    94  GLU94       0.2260
     58  O         91.9700   16.9710    4.2990 O.2    94  GLU94      -0.2867
     59  CB        91.5040   19.0170    6.3620 C.3    94  GLU94       0.0388
     60  CG        90.8240   20.3550    6.6130 C.3    94  GLU94       0.1160
     61  CD        91.8110   21.3890    7.1840 C.2    94  GLU94       0.3649
     62  OE1       92.0280   21.3950    8.4020 O.co2  94  GLU94      -0.2457
     63  OE2       92.3880   22.1840    6.4020 O.co2  94  GLU94      -0.2457
     64  N         91.3460   33.0940   21.0460 N.3   173  GLU173     -0.1245
     65  CA        90.8890   32.5580   19.7700 C.3   173  GLU173      0.1567
     66  C         90.5540   31.0640   19.8820 C.2   173  GLU173      0.2260
     67  O         91.3320   30.2820   20.4450 O.2   173  GLU173     -0.2867
     68  CB        91.9590   32.7780   18.6790 C.3   173  GLU173      0.0388
     69  CG        91.7410   31.9480   17.4170 C.3   173  GLU173      0.1160
     70  CD        92.7980   32.1380   16.3340 C.2   173  GLU173      0.3649
     71  OE1       93.2360   33.2850   16.1000 O.co2 173  GLU173     -0.2457
     72  OE2       93.1290   31.1220   15.6650 O.co2 173  GLU173     -0.2457
     73  N         88.0170   27.5760   17.9570 N.3   175  TYR175     -0.1241
     74  CA        87.0840   27.0560   16.9870 C.3   175  TYR175      0.1605
     75  C         85.9810   26.3560   17.7430 C.2   175  TYR175      0.2264
     76  O         86.2250   25.4040   18.4660 O.2   175  TYR175     -0.2867
     77  CB        87.7780   26.0970   16.0190 C.3   175  TYR175      0.0534
     78  CG        88.6550   26.7650   14.9530 C.ar  175  TYR175     -0.0201
     79  CD1       89.9200   27.1880   15.2490 C.ar  175  TYR175     -0.0009
     80  CD2       88.1990   26.9430   13.6390 C.ar  175  TYR175     -0.0009
     81  CE1       90.7190   27.7700   14.2750 C.ar  175  TYR175      0.0417
     82  CE2       88.9920   27.5190   12.6510 C.ar  175  TYR175      0.0417
     83  CZ        90.2490   27.9330   12.9780 C.ar  175  TYR175      0.1957
     84  OH        91.0580   28.5080   12.0360 O.3   175  TYR175     -0.2866
@<TRIPOS>BOND
     1    58    57    2
     2    57    56    1
     3    56    59    1
     4    56    55    1
     5    59    60    1
     6    63    61   ar
     7    60    61    1
     8    61    62   ar
     9    50    49    2
    10    49    48    1
    11    48    51    1
    12    48    47    1
    13    51    52    1
    14     4     3    2
    15    84    83    1
    16     1     2    1
    17    52    53    2
    18    52    54   am
    19     5     2    1
    20     5     6    1
    21     3     2    1
    22    82    83   ar
    23    82    80   ar
    24     8     6    1
    25    83    81   ar
    26     6     7    1
    27    80    78   ar
    28    42    41    2
    29    45    44    2
    30    81    79   ar
    31    41    40    1
    32    78    79   ar
    33    78    77    1
    34    44    46   am
    35    44    43    1
    36    72    70   ar
    37    39    40    1
    38    15    14    1
    39    77    74    1
    40    40    43    1
    41    71    70   ar
    42    70    69    1
    43    74    75    1
    44    74    73    1
    45    14    16    1
    46    14    13    1
    47    69    68    1
    48    75    76    2
    49    13    10    1
    50    36    35    2
    51    68    65    1
    52    35    34    1
    53    10     9    1
    54    10    11    1
    55    65    66    1
    56    65    64    1
    57    66    67    2
    58    38    37    1
    59    11    12    2
    60    11    17   am
    61    34    37    1
    62    34    33    1
    63    20    19    2
    64    27    26    2
    65    23    17    1
    66    23    22    1
    67    17    18    1
    68    19    18    1
    69    19    24   am
    70    25    26    1
    71    25    24    1
    72    25    28    1
    73    18    21    1
    74    30    29    1
    75    30    31    1
    76    29    28    1
    77    22    21    1
    78    31    32    1
