@<TRIPOS>MOLECULE
tmp/4qhbC01.pdb
 88 85 0 0 0
SMALL
GASTEIGER

@<TRIPOS>ATOM
      1  N         19.1310    4.0840   -4.2290 N.3    82  LEU82      -0.1231
      2  CA        18.4060    2.9040   -3.7780 C.3    82  LEU82       0.1678
      3  C         17.3220    2.5700   -4.8050 C.2    82  LEU82       0.2434
      4  O         16.5360    3.4410   -5.1410 O.2    82  LEU82      -0.2733
      5  CB        17.7900    3.1800   -2.4290 C.3    82  LEU82       0.0284
      6  CG        18.7830    3.6030   -1.3620 C.3    82  LEU82       0.0019
      7  CD1       18.0510    3.7130   -0.0320 C.3    82  LEU82       0.0001
      8  CD2       19.9520    2.6320   -1.2570 C.3    82  LEU82       0.0001
      9  N         17.2800    1.3310   -5.3230 N.am   83  PRO83      -0.2718
     10  CA        16.2830    1.0600   -6.3860 C.3    83  PRO83       0.1535
     11  C         14.8520    1.2340   -5.8650 C.2    83  PRO83       0.2598
     12  O         14.5310    0.6920   -4.8220 O.2    83  PRO83      -0.2715
     13  CB        16.5770   -0.3880   -6.8070 C.3    83  PRO83       0.0310
     14  CG        17.9380   -0.7100   -6.2570 C.3    83  PRO83       0.0237
     15  CD        18.1430    0.1690   -5.0510 C.3    83  PRO83       0.0939
     16  N         14.0170    1.9720   -6.5960 N.am   84  LYS84      -0.1964
     17  CA        12.6260    2.2250   -6.1990 C.3    84  LYS84       0.1728
     18  C         11.7800    0.9530   -6.1110 C.2    84  LYS84       0.2616
     19  O         10.9310    0.8200   -5.2340 O.2    84  LYS84      -0.2715
     20  CB        11.9220    3.1870   -7.1660 C.3    84  LYS84       0.0311
     21  CG        12.4740    4.6030   -7.1460 C.3    84  LYS84       0.0038
     22  CD        11.3770    5.6620   -7.2870 C.3    84  LYS84       0.0206
     23  CE        10.7180    5.7160   -8.6460 C.3    84  LYS84       0.1093
     24  NZ        11.6060    6.4100   -9.6030 N.3    84  LYS84      -0.1314
     25  N         12.0440    0.0080   -7.0000 N.am   85  GLU85      -0.1963
     26  CA        11.2840   -1.2320   -7.0340 C.3    85  GLU85       0.1733
     27  C         11.7170   -2.2600   -5.9770 C.2    85  GLU85       0.2617
     28  O         11.2840   -3.3950   -6.0290 O.2    85  GLU85      -0.2715
     29  CB        11.3770   -1.8640   -8.4550 C.3    85  GLU85       0.0429
     30  CG        12.7460   -2.4310   -8.9170 C.3    85  GLU85       0.1163
     31  CD        13.7660   -1.4280   -9.5240 C.2    85  GLU85       0.3649
     32  OE1       13.8470   -0.2420   -9.0910 O.co2  85  GLU85      -0.2457
     33  OE2       14.5180   -1.8700  -10.4410 O.co2  85  GLU85      -0.2457
     34  N         12.5900   -1.8980   -5.0410 N.am   86  SER86      -0.1936
     35  CA        13.1180   -2.8730   -4.0760 C.3    86  SER86       0.2055
     36  C         12.6020   -2.6400   -2.6650 C.2    86  SER86       0.2642
     37  O         12.7390   -1.5510   -2.1260 O.2    86  SER86      -0.2714
     38  CB        14.6450   -2.8350   -4.0510 C.3    86  SER86       0.2130
     39  OG        15.1600   -3.9480   -3.3520 O.3    86  SER86      -0.2179
     40  N         12.0180   -3.6790   -2.0710 N.am   87  VAL87      -0.1977
     41  CA        11.5220   -3.5870   -0.7160 C.3    87  VAL87       0.1596
     42  C         12.7110   -3.4690    0.2180 C.2    87  VAL87       0.2287
     43  O         12.7280   -2.6510    1.1310 O.2    87  VAL87      -0.2864
     44  CB        10.6650   -4.8120   -0.3130 C.3    87  VAL87       0.0276
     45  CG1       10.2420   -4.7100    1.1430 C.3    87  VAL87       0.0022
     46  CG2        9.4280   -4.9430   -1.2060 C.3    87  VAL87       0.0022
     47  N         16.6040   -2.5230    1.0410 N.3    89  ASN89      -0.1240
     48  CA        17.7020   -1.6750    0.5870 C.3    89  ASN89       0.1653
     49  C         18.6810   -1.3810    1.7050 C.2    89  ASN89       0.2266
     50  O         18.4360   -1.6960    2.8500 O.2    89  ASN89      -0.2867
     51  CB        17.1430   -0.3830   -0.0370 C.3    89  ASN89       0.1155
     52  CG        16.4010    0.4720    0.9640 C.2    89  ASN89       0.2627
     53  OD1       16.8180    0.6210    2.1120 O.2    89  ASN89      -0.2716
     54  ND2       15.3070    1.0380    0.5320 N.am   89  ASN89      -0.0877
     55  N         17.0500    0.3860    5.0430 N.3    91  ASN91      -0.1240
     56  CA        16.2390   -0.3890    5.9810 C.3    91  ASN91       0.1653
     57  C         17.0130   -1.6040    6.5110 C.2    91  ASN91       0.2266
     58  O         16.6840   -2.1570    7.5700 O.2    91  ASN91      -0.2867
     59  CB        14.8510   -0.7380    5.4170 C.3    91  ASN91       0.1155
     60  CG        14.8990   -1.5160    4.1090 C.2    91  ASN91       0.2627
     61  OD1       15.7470   -2.3740    3.8840 O.2    91  ASN91      -0.2716
     62  ND2       13.9430   -1.2340    3.2510 N.am   91  ASN91      -0.0877
     63  N         18.8270    0.0750    9.3920 N.3    94  GLU94      -0.1245
     64  CA        17.8670    0.3270   10.4740 C.3    94  GLU94       0.1567
     65  C         17.5450   -0.9300   11.2870 C.2    94  GLU94       0.2260
     66  O         16.9630   -0.8320   12.3340 O.2    94  GLU94      -0.2867
     67  CB        16.5570    0.8570    9.9290 C.3    94  GLU94       0.0388
     68  CG        16.5780    2.3030    9.4680 C.3    94  GLU94       0.1160
     69  CD        15.2610    2.6820    8.8070 C.2    94  GLU94       0.3649
     70  OE1       15.0860    2.3840    7.5940 O.co2  94  GLU94      -0.2457
     71  OE2       14.3890    3.2590    9.5100 O.co2  94  GLU94      -0.2457
     72  N         13.5680    9.9360   -4.6170 N.3   174  ALA174     -0.1231
     73  CA        14.5520    8.8700   -4.4890 C.3   174  ALA174      0.1694
     74  C         15.5840    9.1700   -3.4150 C.2   174  ALA174      0.2592
     75  O         15.8060   10.3210   -3.0460 O.2   174  ALA174     -0.2718
     76  CB        15.2370    8.6170   -5.8310 C.3   174  ALA174      0.0304
     77  N         16.1800    8.1050   -2.8970 N.am  175  TYR175     -0.1976
     78  CA        17.2160    8.2300   -1.9200 C.3   175  TYR175      0.1639
     79  C         18.5420    7.9940   -2.6460 C.2   175  TYR175      0.2290
     80  O         18.7900    6.9170   -3.1860 O.2   175  TYR175     -0.2864
     81  CB        17.0080    7.2260   -0.7940 C.3   175  TYR175      0.0560
     82  CG        15.8970    7.5700    0.2010 C.ar  175  TYR175     -0.0198
     83  CD1       14.5840    7.2540   -0.0720 C.ar  175  TYR175     -0.0009
     84  CD2       16.1770    8.1770    1.4180 C.ar  175  TYR175     -0.0009
     85  CE1       13.5860    7.5550    0.8270 C.ar  175  TYR175      0.0417
     86  CE2       15.1900    8.4560    2.3350 C.ar  175  TYR175      0.0417
     87  CZ        13.8980    8.1450    2.0360 C.ar  175  TYR175      0.1957
     88  OH        12.8920    8.4390    2.9220 O.3   175  TYR175     -0.2866
@<TRIPOS>BOND
     1    33    31   ar
     2    24    23    1
     3    31    32   ar
     4    31    30    1
     5    30    29    1
     6    23    22    1
     7    29    26    1
     8    22    21    1
     9    20    21    1
    10    20    17    1
    11    26    25    1
    12    26    27    1
    13    25    18   am
    14    13    10    1
    15    13    14    1
    16    16    17    1
    17    16    11   am
    18    10    11    1
    19    10     9    1
    20    14    15    1
    21    17    18    1
    22    18    19    2
    23    28    27    2
    24    27    34   am
    25    11    12    2
    26    76    73    1
    27     9    15    1
    28     9     3   am
    29     4     3    2
    30    34    35    1
    31     3     2    1
    32    72    73    1
    33    73    74    1
    34     1     2    1
    35    35    38    1
    36    35    36    1
    37    38    39    1
    38     2     5    1
    39    74    75    2
    40    74    77   am
    41    80    79    2
    42    77    78    1
    43    36    37    2
    44    36    40   am
    45    79    78    1
    46     5     6    1
    47    40    41    1
    48    78    81    1
    49     6     8    1
    50     6     7    1
    51    46    44    1
    52    81    82    1
    53    41    44    1
    54    41    42    1
    55    44    45    1
    56    83    82   ar
    57    83    85   ar
    58    51    48    1
    59    51    52    1
    60    82    84   ar
    61    42    43    2
    62    54    52   am
    63    48    47    1
    64    48    49    1
    65    85    87   ar
    66    52    53    2
    67    84    86   ar
    68    49    50    2
    69    87    86   ar
    70    87    88    1
    71    62    60   am
    72    61    60    2
    73    60    59    1
    74    55    56    1
    75    59    56    1
    76    56    57    1
    77    57    58    2
    78    70    69   ar
    79    69    68    1
    80    69    71   ar
    81    63    64    1
    82    68    67    1
    83    67    64    1
    84    64    65    1
    85    65    66    2
