@<TRIPOS>MOLECULE
tmp/4qhbA00.pdb
 90 88 0 0 0
SMALL
GASTEIGER

@<TRIPOS>ATOM
      1  N         57.0340   19.5500   46.3220 N.3   154  VAL154     -0.1231
      2  CA        57.3520   20.5910   45.3190 C.3   154  VAL154      0.1692
      3  C         58.3030   21.5970   45.9430 C.2   154  VAL154      0.2593
      4  O         58.2240   21.8840   47.1530 O.2   154  VAL154     -0.2718
      5  CB        56.0680   21.2290   44.7580 C.3   154  VAL154      0.0266
      6  CG1       55.3070   21.9330   45.8520 C.3   154  VAL154      0.0020
      7  CG2       56.3870   22.1680   43.6220 C.3   154  VAL154      0.0020
      8  N         59.2450   22.0800   45.1310 N.am  155  THR155     -0.1939
      9  CA        60.3100   22.9680   45.5800 C.3   155  THR155      0.2028
     10  C         60.5290   24.1250   44.6520 C.2   155  THR155      0.2642
     11  O         60.5790   23.9540   43.4440 O.2   155  THR155     -0.2714
     12  CB        61.6310   22.2030   45.6830 C.3   155  THR155      0.1808
     13  OG1       61.5190   21.2430   46.7300 O.3   155  THR155     -0.2208
     14  CG2       62.7870   23.1160   46.0310 C.3   155  THR155      0.0379
     15  N         60.6670   25.3100   45.2380 N.am  156  TRP156     -0.1973
     16  CA        60.8890   26.5240   44.4870 C.3   156  TRP156      0.1640
     17  C         62.1170   27.2460   44.9940 C.2   156  TRP156      0.2290
     18  O         62.3470   27.3200   46.2040 O.2   156  TRP156     -0.2864
     19  CB        59.6940   27.4510   44.6290 C.3   156  TRP156      0.0576
     20  CG        58.3910   26.8200   44.2990 C.ar  156  TRP156      0.0006
     21  CD1       57.9590   26.4600   43.0750 C.ar  156  TRP156      0.0946
     22  CD2       57.3360   26.5030   45.2180 C.ar  156  TRP156      0.0152
     23  NE1       56.7120   25.9310   43.1750 N.ar  156  TRP156     -0.2442
     24  CE2       56.3130   25.9290   44.4820 C.ar  156  TRP156      0.0810
     25  CE3       57.1750   26.6470   46.5960 C.ar  156  TRP156      0.0012
     26  CZ2       55.1250   25.5010   45.0600 C.ar  156  TRP156      0.0191
     27  CZ3       55.9970   26.2270   47.1750 C.ar  156  TRP156      0.0001
     28  CH2       54.9840   25.6590   46.4040 C.ar  156  TRP156      0.0015
     29  N         49.5050   32.3120   32.6850 N.3   278  ARG278     -0.1245
     30  CA        50.3810   31.1170   32.4140 C.3   278  ARG278      0.1563
     31  C         49.6260   30.0880   31.6390 C.2   278  ARG278      0.2260
     32  O         48.4690   29.7700   31.9750 O.2   278  ARG278     -0.2867
     33  CB        50.8510   30.4090   33.6290 C.3   278  ARG278      0.0307
     34  CG        51.8400   31.2300   34.3510 C.3   278  ARG278      0.0489
     35  CD        52.5900   30.4260   35.4110 C.3   278  ARG278      0.2205
     36  NE        53.5430   29.4390   34.8740 N.pl3 278  ARG278     -0.0865
     37  CZ        54.6880   29.0650   35.4700 C.cat 278  ARG278      0.5346
     38  NH1       55.0580   29.5960   36.6050 N.pl3 278  ARG278      0.1354
     39  NH2       55.4970   28.1790   34.9080 N.pl3 278  ARG278      0.1354
     40  N         51.2670   27.1270   30.6100 N.3   280  ASP280     -0.1239
     41  CA        52.1180   25.8980   30.6710 C.3   280  ASP280      0.1674
     42  C         51.8150   25.0070   31.8600 C.2   280  ASP280      0.2266
     43  O         52.6610   24.2510   32.2910 O.2   280  ASP280     -0.2867
     44  CB        53.6010   26.2690   30.7340 C.3   280  ASP280      0.1410
     45  CG        53.9460   27.0420   32.0070 C.2   280  ASP280      0.3668
     46  OD1       53.0570   27.7430   32.5740 O.co2 280  ASP280     -0.2456
     47  OD2       55.1150   27.0120   32.4010 O.co2 280  ASP280     -0.2456
     48  N         52.7790   21.3200   32.5070 N.3   283  SER283     -0.1202
     49  CA        54.1330   20.9460   32.9160 C.3   283  SER283      0.2020
     50  C         54.2380   20.5930   34.3740 C.2   283  SER283      0.2618
     51  O         55.2410   20.0300   34.7850 O.2   283  SER283     -0.2717
     52  CB        55.1210   22.0810   32.6280 C.3   283  SER283      0.2103
     53  OG        55.1650   22.3520   31.2430 O.3   283  SER283     -0.2182
     54  N         53.2200   20.9620   35.1480 N.am  284  PHE284     -0.1975
     55  CA        53.1970   20.6760   36.5720 C.3   284  PHE284      0.1639
     56  C         52.4180   19.4140   36.8990 C.2   284  PHE284      0.2290
     57  O         52.1860   19.1300   38.0590 O.2   284  PHE284     -0.2864
     58  CB        52.6050   21.8820   37.3350 C.3   284  PHE284      0.0560
     59  CG        53.4380   23.1380   37.2320 C.ar  284  PHE284     -0.0200
     60  CD1       53.3140   23.9860   36.1630 C.ar  284  PHE284     -0.0042
     61  CD2       54.3420   23.4690   38.2170 C.ar  284  PHE284     -0.0042
     62  CE1       54.0900   25.1290   36.0550 C.ar  284  PHE284     -0.0003
     63  CE2       55.1180   24.6000   38.1060 C.ar  284  PHE284     -0.0003
     64  CZ        54.9950   25.4400   37.0220 C.ar  284  PHE284     -0.0000
     65  N         52.8140   16.2100   37.1420 N.3   286  ARG286     -0.1231
     66  CA        53.3050   15.1950   38.0650 C.3   286  ARG286      0.1694
     67  C         53.2690   15.6150   39.5290 C.2   286  ARG286      0.2592
     68  O         53.4630   14.7830   40.4100 O.2   286  ARG286     -0.2718
     69  CB        54.7280   14.7640   37.6790 C.3   286  ARG286      0.0321
     70  CG        55.7650   15.8310   37.9000 C.3   286  ARG286      0.0489
     71  CD        57.0800   15.4100   37.2820 C.3   286  ARG286      0.2205
     72  NE        58.0790   16.4430   37.4840 N.pl3 286  ARG286     -0.0865
     73  CZ        58.1530   17.5710   36.7800 C.cat 286  ARG286      0.5346
     74  NH1       57.2710   17.8410   35.8340 N.pl3 286  ARG286      0.1354
     75  NH2       59.1170   18.4420   37.0400 N.pl3 286  ARG286      0.1354
     76  N         53.0390   16.8920   39.7950 N.am  287  PHE287     -0.1976
     77  CA        52.9170   17.3660   41.1690 C.3   287  PHE287      0.1639
     78  C         51.4740   17.3760   41.6810 C.2   287  PHE287      0.2290
     79  O         51.2460   17.7670   42.8220 O.2   287  PHE287     -0.2864
     80  CB        53.4500   18.7930   41.2800 C.3   287  PHE287      0.0560
     81  CG        54.9070   18.9330   40.9440 C.ar  287  PHE287     -0.0200
     82  CD1       55.8700   18.6850   41.8970 C.ar  287  PHE287     -0.0042
     83  CD2       55.3070   19.3900   39.7160 C.ar  287  PHE287     -0.0042
     84  CE1       57.2250   18.8330   41.5960 C.ar  287  PHE287     -0.0003
     85  CE2       56.6540   19.5520   39.4030 C.ar  287  PHE287     -0.0003
     86  CZ        57.6210   19.2480   40.3420 C.ar  287  PHE287     -0.0000
     87  N         51.2970   24.2250   41.9890 N.3   330  GLY330     -0.1225
     88  CA        52.6640   23.7220   42.0790 C.3   330  GLY330      0.1811
     89  C         53.7240   24.7190   41.6320 C.2   330  GLY330      0.2280
     90  O         54.9290   24.3970   41.6120 O.2   330  GLY330     -0.2866
@<TRIPOS>BOND
     1    40    41    1
     2    41    44    1
     3    41    42    1
     4    44    45    1
     5    53    52    1
     6    31    32    2
     7    31    30    1
     8    42    43    2
     9    45    47   ar
    10    45    46   ar
    11    30    29    1
    12    30    33    1
    13    48    49    1
    14    52    49    1
    15    49    50    1
    16    33    34    1
    17    34    35    1
    18    50    51    2
    19    50    54   am
    20    36    35    1
    21    36    37    2
    22    39    37    1
    23    54    55    1
    24    37    38    1
    25    74    73    1
    26    62    60   ar
    27    62    64   ar
    28    60    59   ar
    29    55    56    1
    30    55    58    1
    31    73    75    1
    32    73    72    2
    33    56    57    2
    34    64    63   ar
    35    65    66    1
    36    59    58    1
    37    59    61   ar
    38    71    72    1
    39    71    70    1
    40    69    70    1
    41    69    66    1
    42    66    67    1
    43    63    61   ar
    44    85    83   ar
    45    85    86   ar
    46    67    76   am
    47    67    68    2
    48    83    81   ar
    49    76    77    1
    50    86    84   ar
    51    81    80    1
    52    81    82   ar
    53    77    80    1
    54    77    78    1
    55    84    82   ar
    56    90    89    2
    57    89    88    1
    58    78    79    2
    59    87    88    1
    60    21    23   ar
    61    21    20   ar
    62    23    24   ar
    63    11    10    2
    64     7     5    1
    65    20    19    1
    66    20    22   ar
    67    24    26   ar
    68    24    22   ar
    69    16    19    1
    70    16    17    1
    71    16    15    1
    72    10    15   am
    73    10     9    1
    74     5     2    1
    75     5     6    1
    76    17    18    2
    77    26    28   ar
    78     8     9    1
    79     8     3   am
    80    22    25   ar
    81     2     3    1
    82     2     1    1
    83     9    12    1
    84    12    14    1
    85    12    13    1
    86     3     4    2
    87    28    27   ar
    88    25    27   ar
