@<TRIPOS>MOLECULE
tmp/4qhoA00.pdb
 211 198 0 0 0
SMALL
GASTEIGER

@<TRIPOS>ATOM
      1  N         27.2480   -8.3030  -40.4820 N.3    58  ILE58      -0.1245
      2  CA        27.4700   -6.8830  -40.2480 C.3    58  ILE58       0.1561
      3  C         27.6230   -6.1730  -41.5760 C.2    58  ILE58       0.2260
      4  O         28.4370   -6.5690  -42.4090 O.2    58  ILE58      -0.2867
      5  CB        28.7120   -6.6430  -39.3870 C.3    58  ILE58       0.0252
      6  CG1       28.5320   -7.2420  -37.9980 C.3    58  ILE58       0.0019
      7  CG2       28.9880   -5.1710  -39.2350 C.3    58  ILE58       0.0019
      8  CD1       29.8250   -7.2160  -37.1530 C.3    58  ILE58       0.0001
      9  N         31.9810  -17.6600  -27.5680 N.3    69  ARG69      -0.1245
     10  CA        30.9170  -17.2090  -26.6970 C.3    69  ARG69       0.1563
     11  C         29.9240  -18.2870  -26.3420 C.2    69  ARG69       0.2260
     12  O         29.8340  -19.3270  -26.9930 O.2    69  ARG69      -0.2867
     13  CB        30.1770  -16.0430  -27.3350 C.3    69  ARG69       0.0307
     14  CG        31.0020  -14.7630  -27.3470 C.3    69  ARG69       0.0489
     15  CD        30.2020  -13.5560  -27.8340 C.3    69  ARG69       0.2205
     16  NE        31.0090  -12.3360  -27.7330 N.pl3  69  ARG69      -0.0865
     17  CZ        31.3980  -11.5800  -28.7550 C.cat  69  ARG69       0.5346
     18  NH1       31.0440  -11.8640  -30.0000 N.pl3  69  ARG69       0.1354
     19  NH2       32.1470  -10.5110  -28.5200 N.pl3  69  ARG69       0.1354
     20  N         18.8490  -13.7810  -26.5990 N.3    79  TYR79      -0.1241
     21  CA        19.4950  -12.4740  -26.7110 C.3    79  TYR79       0.1605
     22  C         19.9450  -12.3220  -28.1340 C.2    79  TYR79       0.2264
     23  O         20.6340  -13.1750  -28.6550 O.2    79  TYR79      -0.2867
     24  CB        20.6810  -12.3580  -25.7610 C.3    79  TYR79       0.0534
     25  CG        21.4050  -11.0280  -25.8540 C.ar   79  TYR79      -0.0201
     26  CD1       20.7340   -9.8440  -25.6240 C.ar   79  TYR79      -0.0009
     27  CD2       22.7420  -10.9690  -26.1840 C.ar   79  TYR79      -0.0009
     28  CE1       21.3760   -8.6270  -25.7190 C.ar   79  TYR79       0.0417
     29  CE2       23.4010   -9.7620  -26.2790 C.ar   79  TYR79       0.0417
     30  CZ        22.7260   -8.5960  -26.0460 C.ar   79  TYR79       0.1957
     31  OH        23.3810   -7.3920  -26.1360 O.3    79  TYR79      -0.2866
     32  N         21.8450  -10.2370  -31.1330 N.3    81  TYR81      -0.1227
     33  CA        22.8000   -9.1950  -31.5020 C.3    81  TYR81       0.1736
     34  C         23.4560   -9.5430  -32.8400 C.2    81  TYR81       0.2595
     35  O         23.6210  -10.7240  -33.1760 O.2    81  TYR81      -0.2718
     36  CB        23.8430   -9.0160  -30.3880 C.3    81  TYR81       0.0548
     37  CG        24.9930   -9.9840  -30.4640 C.ar   81  TYR81      -0.0200
     38  CD1       26.2940   -9.5280  -30.5860 C.ar   81  TYR81      -0.0009
     39  CD2       24.7800  -11.3610  -30.4460 C.ar   81  TYR81      -0.0009
     40  CE1       27.3720  -10.4070  -30.6730 C.ar   81  TYR81       0.0417
     41  CE2       25.8640  -12.2670  -30.5340 C.ar   81  TYR81       0.0417
     42  CZ        27.1620  -11.7700  -30.6480 C.ar   81  TYR81       0.1957
     43  OH        28.2580  -12.6200  -30.7530 O.3    81  TYR81      -0.2866
     44  N         23.8150   -8.5070  -33.5900 N.am   82  LEU82      -0.1980
     45  CA        24.4270   -8.6390  -34.9190 C.3    82  LEU82       0.1596
     46  C         23.7020   -9.6960  -35.7470 C.2    82  LEU82       0.2287
     47  O         24.3160  -10.6040  -36.3300 O.2    82  LEU82      -0.2864
     48  CB        25.9220   -8.9670  -34.8000 C.3    82  LEU82       0.0297
     49  CG        26.7440   -7.9680  -33.9590 C.3    82  LEU82       0.0022
     50  CD1       28.2150   -8.3990  -33.8160 C.3    82  LEU82       0.0001
     51  CD2       26.6730   -6.5700  -34.5340 C.3    82  LEU82       0.0001
     52  N         26.2070  -13.2190  -21.1000 N.3   151  LEU151     -0.1245
     53  CA        26.9120  -13.6830  -22.2810 C.3   151  LEU151      0.1561
     54  C         28.3930  -13.8620  -21.9030 C.2   151  LEU151      0.2260
     55  O         29.0760  -12.9180  -21.4750 O.2   151  LEU151     -0.2867
     56  CB        26.7000  -12.7100  -23.4360 C.3   151  LEU151      0.0270
     57  CG        27.2370  -12.9960  -24.8430 C.3   151  LEU151      0.0019
     58  CD1       26.8870  -14.3710  -25.3340 C.3   151  LEU151      0.0001
     59  CD2       26.7080  -11.9480  -25.8340 C.3   151  LEU151      0.0001
     60  N         32.3320  -14.8570  -22.6730 N.3   153  ASN153     -0.1240
     61  CA        33.3730  -14.7960  -23.7120 C.3   153  ASN153      0.1653
     62  C         34.6770  -15.4490  -23.3210 C.2   153  ASN153      0.2266
     63  O         35.0960  -15.3610  -22.1660 O.2   153  ASN153     -0.2867
     64  CB        33.7040  -13.3570  -24.0510 C.3   153  ASN153      0.1155
     65  CG        32.5070  -12.5250  -24.1540 C.2   153  ASN153      0.2627
     66  OD1       31.9740  -12.3040  -25.2460 O.2   153  ASN153     -0.2716
     67  ND2       32.0310  -12.0630  -23.0030 N.am  153  ASN153     -0.0877
     68  N         37.2350   -6.7440  -29.5130 N.3   176  VAL176     -0.1231
     69  CA        35.9170   -6.3210  -29.9610 C.3   176  VAL176      0.1692
     70  C         35.9890   -4.8460  -30.3110 C.2   176  VAL176      0.2592
     71  O         36.4420   -4.0530  -29.4890 O.2   176  VAL176     -0.2718
     72  CB        34.8570   -6.5570  -28.8680 C.3   176  VAL176      0.0266
     73  CG1       33.4480   -6.3770  -29.4340 C.3   176  VAL176      0.0020
     74  CG2       35.0450   -7.9430  -28.2530 C.3   176  VAL176      0.0020
     75  N         35.5640   -4.4900  -31.5230 N.am  177  SER177     -0.1952
     76  CA        35.5310   -3.0950  -31.9550 C.3   177  SER177      0.1924
     77  C         34.5650   -2.2120  -31.1510 C.2   177  SER177      0.2314
     78  O         33.7850   -2.6990  -30.3520 O.2   177  SER177     -0.2863
     79  CB        35.1330   -3.0110  -33.4190 C.3   177  SER177      0.2116
     80  OG        36.1280   -3.5680  -34.2210 O.3   177  SER177     -0.2180
     81  N         31.4250   -0.3440  -30.1320 N.3   179  HIS179     -0.1226
     82  CA        30.0070   -0.6390  -30.3510 C.3   179  HIS179      0.1752
     83  C         29.1700   -0.1460  -29.1830 C.2   179  HIS179      0.2596
     84  O         29.7110    0.2210  -28.1360 O.2   179  HIS179     -0.2718
     85  CB        29.7910   -2.1560  -30.5410 C.3   179  HIS179      0.0759
     86  CG        30.0930   -2.9630  -29.3130 C.ar  179  HIS179      0.0818
     87  ND1       31.3750   -3.2600  -28.9090 N.ar  179  HIS179     -0.2268
     88  CD2       29.2800   -3.4960  -28.3660 C.ar  179  HIS179      0.1154
     89  CE1       31.3420   -3.9440  -27.7850 C.ar  179  HIS179      0.1986
     90  NE2       30.0810   -4.1120  -27.4340 N.ar  179  HIS179     -0.2212
     91  N         27.8530   -0.0910  -29.4060 N.am  180  HIS180     -0.1961
     92  CA        26.8490   -0.0900  -28.3400 C.3   180  HIS180      0.1787
     93  C         26.3330   -1.5120  -28.1810 C.2   180  HIS180      0.2620
     94  O         26.1960   -2.2170  -29.1780 O.2   180  HIS180     -0.2715
     95  CB        25.6500    0.8040  -28.6690 C.3   180  HIS180      0.0785
     96  CG        25.9930    2.2250  -28.9690 C.ar  180  HIS180      0.0821
     97  ND1       26.2570    3.1480  -27.9820 N.ar  180  HIS180     -0.2267
     98  CD2       26.0760    2.8900  -30.1470 C.ar  180  HIS180      0.1154
     99  CE1       26.4970    4.3240  -28.5370 C.ar  180  HIS180      0.1986
    100  NE2       26.4030    4.1890  -29.8480 N.ar  180  HIS180     -0.2212
    101  N         26.0140   -1.9410  -26.9660 N.am  181  ASP181     -0.1957
    102  CA        25.2770   -3.2110  -26.8310 C.3   181  ASP181      0.1840
    103  C         23.8190   -3.0170  -27.2560 C.2   181  ASP181      0.2621
    104  O         23.1750   -2.0750  -26.8210 O.2   181  ASP181     -0.2715
    105  CB        25.3220   -3.7420  -25.4060 C.3   181  ASP181      0.1450
    106  CG        26.6760   -4.2750  -25.0250 C.2   181  ASP181      0.3671
    107  OD1       27.5170   -4.5550  -25.9020 O.co2 181  ASP181     -0.2456
    108  OD2       26.9000   -4.4160  -23.8140 O.co2 181  ASP181     -0.2456
    109  N         23.3550   -3.8680  -28.1610 N.am  182  GLU182     -0.1977
    110  CA        21.9700   -3.9310  -28.5980 C.3   182  GLU182      0.1602
    111  C         21.0370   -4.7450  -27.6740 C.2   182  GLU182      0.2287
    112  O         21.5020   -5.5430  -26.8370 O.2   182  GLU182     -0.2864
    113  CB        21.8850   -4.5900  -29.9780 C.3   182  GLU182      0.0415
    114  CG        22.7260   -3.9990  -31.0740 C.3   182  GLU182      0.1163
    115  CD        23.0540   -5.0400  -32.1720 C.2   182  GLU182      0.3649
    116  OE1       23.3380   -6.2090  -31.8330 O.co2 182  GLU182     -0.2457
    117  OE2       23.0350   -4.6970  -33.3770 O.co2 182  GLU182     -0.2457
    118  N         29.9950   -6.6730  -15.7880 N.3   192  VAL192     -0.1245
    119  CA        30.9890   -7.5440  -16.3980 C.3   192  VAL192      0.1561
    120  C         31.9960   -8.0620  -15.3820 C.2   192  VAL192      0.2260
    121  O         32.6410   -7.2660  -14.6840 O.2   192  VAL192     -0.2867
    122  CB        31.7560   -6.8090  -17.4970 C.3   192  VAL192      0.0252
    123  CG1       32.7220   -7.7360  -18.1840 C.3   192  VAL192      0.0019
    124  CG2       30.8160   -6.2090  -18.5170 C.3   192  VAL192      0.0019
    125  N         39.0890   -2.4970  -21.0210 N.3   209  VAL209     -0.1245
    126  CA        37.8730   -2.0810  -21.6710 C.3   209  VAL209      0.1561
    127  C         38.0660   -0.6100  -22.0210 C.2   209  VAL209      0.2260
    128  O         38.5590    0.1690  -21.2080 O.2   209  VAL209     -0.2867
    129  CB        36.6440   -2.3150  -20.7930 C.3   209  VAL209      0.0252
    130  CG1       36.7630   -1.5940  -19.4370 C.3   209  VAL209      0.0019
    131  CG2       35.4040   -1.8990  -21.5390 C.3   209  VAL209      0.0019
    132  N         41.9930   -4.2910  -16.8820 N.3   226  LEU226     -0.1245
    133  CA        41.2700   -5.3640  -16.2260 C.3   226  LEU226      0.1561
    134  C         42.2550   -6.4530  -15.8740 C.2   226  LEU226      0.2260
    135  O         42.9830   -6.9530  -16.7350 O.2   226  LEU226     -0.2867
    136  CB        40.1790   -5.9170  -17.1280 C.3   226  LEU226      0.0270
    137  CG        39.0550   -4.9470  -17.4430 C.3   226  LEU226      0.0019
    138  CD1       38.1470   -5.5560  -18.4650 C.3   226  LEU226      0.0001
    139  CD2       38.2570   -4.5470  -16.1740 C.3   226  LEU226      0.0001
    140  N         33.4010   -4.4140  -13.8200 N.3   232  TYR232     -0.1241
    141  CA        32.9450   -3.0730  -14.1110 C.3   232  TYR232      0.1605
    142  C         31.4590   -3.0730  -14.4610 C.2   232  TYR232      0.2264
    143  O         30.8620   -4.1240  -14.7050 O.2   232  TYR232     -0.2867
    144  CB        33.8010   -2.4330  -15.2020 C.3   232  TYR232      0.0534
    145  CG        33.6770   -2.9820  -16.5970 C.ar  232  TYR232     -0.0201
    146  CD1       32.8680   -2.3530  -17.5340 C.ar  232  TYR232     -0.0009
    147  CD2       34.4240   -4.0900  -17.0070 C.ar  232  TYR232     -0.0009
    148  CE1       32.7500   -2.8390  -18.8290 C.ar  232  TYR232      0.0417
    149  CE2       34.3220   -4.5910  -18.3050 C.ar  232  TYR232      0.0417
    150  CZ        33.4790   -3.9630  -19.2120 C.ar  232  TYR232      0.1957
    151  OH        33.3900   -4.4260  -20.5040 O.3   232  TYR232     -0.2866
    152  N         28.4150   -0.6920  -16.4820 N.3   234  MET234     -0.1245
    153  CA        27.8660    0.3860  -17.2690 C.3   234  MET234      0.1570
    154  C         26.4940    0.6740  -16.7050 C.2   234  MET234      0.2261
    155  O         25.5980   -0.1840  -16.7550 O.2   234  MET234     -0.2867
    156  CB        27.7850    0.0050  -18.7380 C.3   234  MET234      0.0387
    157  CG        29.0910   -0.5330  -19.2980 C.3   234  MET234      0.0595
    158  SD        29.0290   -0.8090  -21.0850 S.3   234  MET234     -0.1393
    159  CE        29.8620   -2.3910  -21.2480 C.3   234  MET234      0.0692
    160  N         31.7890    1.3410  -26.2800 N.3   244  HIS244     -0.1241
    161  CA        32.8680    0.6420  -25.6240 C.3   244  HIS244      0.1621
    162  C         33.5070   -0.3550  -26.5710 C.2   244  HIS244      0.2264
    163  O         32.9710   -0.6890  -27.6370 O.2   244  HIS244     -0.2867
    164  CB        32.3830   -0.0320  -24.3440 C.3   244  HIS244      0.0745
    165  CG        31.2920   -1.0520  -24.5530 C.ar  244  HIS244      0.0817
    166  ND1       29.9710   -0.7070  -24.7200 N.ar  244  HIS244     -0.2268
    167  CD2       31.3370   -2.4080  -24.5690 C.ar  244  HIS244      0.1154
    168  CE1       29.2430   -1.8020  -24.8590 C.ar  244  HIS244      0.1986
    169  NE2       30.0430   -2.8520  -24.7730 N.ar  244  HIS244     -0.2212
    170  N         36.7410   -3.7410  -26.4180 N.3   246  VAL246     -0.1245
    171  CA        37.6280   -4.5930  -25.6120 C.3   246  VAL246      0.1561
    172  C         39.0270   -4.5970  -26.2040 C.2   246  VAL246      0.2260
    173  O         39.2170   -4.9280  -27.3560 O.2   246  VAL246     -0.2867
    174  CB        37.1060   -6.0200  -25.5290 C.3   246  VAL246      0.0252
    175  CG1       37.9320   -6.8300  -24.5580 C.3   246  VAL246      0.0019
    176  CG2       35.6190   -6.0050  -25.0940 C.3   246  VAL246      0.0019
    177  N         41.8010  -14.7020  -22.0150 N.3   253  ARG253     -0.1245
    178  CA        40.8880  -14.0350  -21.0970 C.3   253  ARG253      0.1563
    179  C         39.4280  -14.4430  -21.2930 C.2   253  ARG253      0.2260
    180  O         38.9380  -14.6120  -22.4320 O.2   253  ARG253     -0.2867
    181  CB        41.0440  -12.5220  -21.2330 C.3   253  ARG253      0.0307
    182  CG        40.1740  -11.7080  -20.2870 C.3   253  ARG253      0.0489
    183  CD        39.0380  -11.1090  -21.0470 C.3   253  ARG253      0.2205
    184  NE        38.3670  -10.0260  -20.3360 N.pl3 253  ARG253     -0.0865
    185  CZ        37.4080   -9.2830  -20.8850 C.cat 253  ARG253      0.5346
    186  NH1       37.0640   -9.4940  -22.1530 N.pl3 253  ARG253      0.1354
    187  NH2       36.8190   -8.3070  -20.1920 N.pl3 253  ARG253      0.1354
    188  N         35.3220  -13.5380  -19.9790 N.3   255  SER255     -0.1217
    189  CA        34.4800  -12.5630  -19.2790 C.3   255  SER255      0.1889
    190  C         33.0450  -13.0440  -19.2300 C.2   255  SER255      0.2288
    191  O         32.6100  -13.7950  -20.1010 O.2   255  SER255     -0.2866
    192  CB        34.5490  -11.1780  -19.9330 C.3   255  SER255      0.2089
    193  OG        33.9380  -11.2180  -21.2020 O.3   255  SER255     -0.2183
    194  N         29.3800  -11.3000  -19.1160 N.3   257  THR257     -0.1218
    195  CA        28.6800  -10.0190  -19.2520 C.3   257  THR257      0.1862
    196  C         27.1780  -10.1680  -18.9950 C.2   257  THR257      0.2287
    197  O         26.4380  -10.7350  -19.7900 O.2   257  THR257     -0.2866
    198  CB        28.8960   -9.4040  -20.6420 C.3   257  THR257      0.1770
    199  OG1       28.3590  -10.2770  -21.6470 O.3   257  THR257     -0.2211
    200  CG2       30.3670   -9.2030  -20.9040 C.3   257  THR257      0.0375
    201  N         23.3970   -9.0030  -18.4070 N.3   259  ARG259     -0.1245
    202  CA        22.4760   -8.1310  -19.1190 C.3   259  ARG259      0.1563
    203  C         21.0080   -8.3460  -18.7750 C.2   259  ARG259      0.2260
    204  O         20.5480   -9.4710  -18.4500 O.2   259  ARG259     -0.2867
    205  CB        22.6190   -8.3380  -20.6290 C.3   259  ARG259      0.0307
    206  CG        24.0100   -8.2150  -21.1470 C.3   259  ARG259      0.0489
    207  CD        24.2370   -9.0390  -22.4000 C.3   259  ARG259      0.2205
    208  NE        25.6660   -9.0460  -22.6910 N.pl3 259  ARG259     -0.0865
    209  CZ        26.3120   -8.0530  -23.2930 C.cat 259  ARG259      0.5346
    210  NH1       25.6500   -6.9990  -23.7080 N.pl3 259  ARG259      0.1354
    211  NH2       27.6210   -8.1290  -23.5040 N.pl3 259  ARG259      0.1354
@<TRIPOS>BOND
     1     4     3    2
     2     3     2    1
     3     1     2    1
     4     2     5    1
     5     5     7    1
     6     5     6    1
     7     6     8    1
     8    47    46    2
     9    46    45    1
    10    45    48    1
    11    45    44    1
    12    48    49    1
    13    51    49    1
    14    80    79    1
    15    49    50    1
    16    44    34   am
    17    79    76    1
    18   117   115   ar
    19    35    34    2
    20    34    33    1
    21   115   116   ar
    22   115   114    1
    23    76    75    1
    24    76    77    1
    25    75    70   am
    26    33    32    1
    27    33    36    1
    28    77    78    2
    29   114   113    1
    30    43    42    1
    31    40    42   ar
    32    40    38   ar
    33    42    41   ar
    34    38    37   ar
    35    85    82    1
    36    85    86    1
    37    41    39   ar
    38    37    39   ar
    39    37    36    1
    40    82    81    1
    41    82    83    1
    42    70    69    1
    43    70    71    2
    44    98   100   ar
    45    98    96   ar
    46    18    17    1
    47   113   110    1
    48    69    68    1
    49    69    72    1
    50   100    99   ar
    51    73    72    1
    52    91    83   am
    53    91    92    1
    54    86    87   ar
    55    86    88   ar
    56    83    84    2
    57    94    93    2
    58    96    95    1
    59    96    97   ar
    60    87    89   ar
    61    72    74    1
    62    17    19    1
    63    17    16    2
    64    95    92    1
    65    23    22    2
    66   110   109    1
    67   110   111    1
    68    99    97   ar
    69    88    90   ar
    70    92    93    1
    71    93   101   am
    72   109   103   am
    73    22    21    1
    74    15    16    1
    75    15    14    1
    76    89    90   ar
    77   111   112    2
    78   163   162    2
    79     9    10    1
    80   173   172    2
    81    14    13    1
    82    13    10    1
    83   103   102    1
    84   103   104    2
    85    12    11    2
    86   101   102    1
    87   102   105    1
    88    21    20    1
    89    21    24    1
    90    10    11    1
    91   162   161    1
    92   170   171    1
    93   160   161    1
    94    29    27   ar
    95    29    30   ar
    96   172   171    1
    97    27    25   ar
    98    31    30    1
    99    30    28   ar
   100   107   106   ar
   101    25    24    1
   102    25    26   ar
   103    59    57    1
   104    28    26   ar
   105   161   164    1
   106   171   174    1
   107   174   176    1
   108   174   175    1
   109   105   106    1
   110    58    57    1
   111    66    65    2
   112   106   108   ar
   113   168   169   ar
   114   168   166   ar
   115    57    56    1
   116   169   167   ar
   117   166   165   ar
   118   167   165   ar
   119   165   164    1
   120    65    64    1
   121    65    67   am
   122    64    61    1
   123    61    62    1
   124    61    60    1
   125   210   209    1
   126   211   209    1
   127    56    53    1
   128    62    63    2
   129   209   208    2
   130   208   207    1
   131   180   179    2
   132   207   206    1
   133    53    54    1
   134    53    52    1
   135   186   185    1
   136   127   126    1
   137   127   128    2
   138   177   178    1
   139    54    55    2
   140   126   125    1
   141   126   129    1
   142   199   198    1
   143   131   129    1
   144   179   178    1
   145   159   158    1
   146   181   178    1
   147   181   182    1
   148   193   192    1
   149   206   205    1
   150   158   157    1
   151   183   184    1
   152   183   182    1
   153   200   198    1
   154   185   184    2
   155   185   187    1
   156   129   130    1
   157   198   195    1
   158   205   202    1
   159   151   150    1
   160   191   190    2
   161   188   189    1
   162   192   189    1
   163   197   196    2
   164   157   156    1
   165   189   190    1
   166   195   194    1
   167   195   196    1
   168   150   148   ar
   169   150   149   ar
   170   202   203    1
   171   202   201    1
   172   148   146   ar
   173   203   204    2
   174   156   153    1
   175   124   122    1
   176   138   137    1
   177   149   147   ar
   178   123   122    1
   179   146   145   ar
   180   122   119    1
   181   137   136    1
   182   137   139    1
   183   153   154    1
   184   153   152    1
   185   136   133    1
   186   147   145   ar
   187   132   133    1
   188   155   154    2
   189   135   134    2
   190   145   144    1
   191   119   118    1
   192   119   120    1
   193   133   134    1
   194   120   121    2
   195   144   141    1
   196   143   142    2
   197   142   141    1
   198   141   140    1
