@<TRIPOS>MOLECULE
tmp/4qhpA01.pdb
 127 122 0 0 0
SMALL
GASTEIGER

@<TRIPOS>ATOM
      1  N         22.3350   59.6940  -13.6280 N.3   133  LYS133     -0.1245
      2  CA        21.9430   59.2370  -14.9490 C.3   133  LYS133      0.1561
      3  C         22.9260   58.2020  -15.4850 C.2   133  LYS133      0.2260
      4  O         24.0910   58.4930  -15.7500 O.2   133  LYS133     -0.2867
      5  CB        21.7990   60.4230  -15.8840 C.3   133  LYS133      0.0271
      6  CG        20.4490   61.0720  -15.6120 C.3   133  LYS133      0.0035
      7  CD        20.1690   62.2860  -16.4640 C.3   133  LYS133      0.0206
      8  CE        18.9770   63.0580  -15.9670 C.3   133  LYS133      0.1093
      9  NZ        18.8670   64.3590  -16.7380 N.3   133  LYS133     -0.1314
     10  N         16.9150   52.8100  -22.6780 N.3   153  ASN153     -0.1240
     11  CA        16.8770   52.7620  -24.1270 C.3   153  ASN153      0.1653
     12  C         18.1610   52.2190  -24.7330 C.2   153  ASN153      0.2266
     13  O         19.2630   52.6750  -24.3990 O.2   153  ASN153     -0.2867
     14  CB        16.6380   54.1740  -24.6700 C.3   153  ASN153      0.1155
     15  CG        15.3340   54.7600  -24.2130 C.2   153  ASN153      0.2627
     16  OD1       14.2850   54.1280  -24.3250 O.2   153  ASN153     -0.2716
     17  ND2       15.3870   55.9880  -23.6920 N.am  153  ASN153     -0.0877
     18  N         17.5150   57.6290  -19.2480 N.3   172  PRO172     -0.2102
     19  CA        17.5870   59.0870  -19.1010 C.3   172  PRO172      0.1504
     20  C         17.0520   59.6290  -17.7870 C.2   172  PRO172      0.2576
     21  O         17.2380   60.8300  -17.5060 O.2   172  PRO172     -0.2718
     22  CB        16.7180   59.5840  -20.2650 C.3   172  PRO172      0.0282
     23  CG        15.7210   58.5000  -20.4610 C.3   172  PRO172      0.0208
     24  CD        16.4480   57.2110  -20.1830 C.3   172  PRO172      0.0893
     25  N         16.3580   58.7840  -17.0260 N.am  173  PHE173     -0.1963
     26  CA        15.8550   59.1580  -15.7040 C.3   173  PHE173      0.1771
     27  C         16.9560   58.9900  -14.6500 C.2   173  PHE173      0.2620
     28  O         17.5280   57.9010  -14.5330 O.2   173  PHE173     -0.2715
     29  CB        14.6480   58.2810  -15.3250 C.3   173  PHE173      0.0574
     30  CG        13.3940   58.5390  -16.1320 C.ar  173  PHE173     -0.0200
     31  CD1       12.5400   59.5740  -15.7960 C.ar  173  PHE173     -0.0042
     32  CD2       13.0460   57.7040  -17.1820 C.ar  173  PHE173     -0.0042
     33  CE1       11.3830   59.7840  -16.5050 C.ar  173  PHE173     -0.0003
     34  CE2       11.8810   57.8940  -17.8830 C.ar  173  PHE173     -0.0003
     35  CZ        11.0500   58.9510  -17.5410 C.ar  173  PHE173     -0.0000
     36  N         17.2550   60.0390  -13.8770 N.am  174  SER174     -0.1950
     37  CA        18.2090   59.8890  -12.7720 C.3   174  SER174      0.1924
     38  C         17.6460   58.9410  -11.7440 C.2   174  SER174      0.2314
     39  O         16.4650   59.0090  -11.4120 O.2   174  SER174     -0.2863
     40  CB        18.5250   61.2410  -12.1220 C.3   174  SER174      0.2116
     41  OG        19.1900   62.0510  -13.0490 O.3   174  SER174     -0.2180
     42  N         -0.2960   53.8570  -24.5580 N.3   196  THR196     -0.1218
     43  CA        -0.6600   54.6850  -23.4310 C.3   196  THR196      0.1862
     44  C         -1.8280   55.5870  -23.8060 C.2   196  THR196      0.2287
     45  O         -2.2010   55.7210  -24.9950 O.2   196  THR196     -0.2866
     46  CB         0.4790   55.5570  -22.9580 C.3   196  THR196      0.1770
     47  OG1        0.7290   56.5800  -23.9320 O.3   196  THR196     -0.2211
     48  CG2        1.7320   54.7270  -22.6850 C.3   196  THR196      0.0375
     49  N         -1.9100   58.5980  -23.9400 N.3   197  SER197     -0.1217
     50  CA        -1.4620   59.7390  -24.7450 C.3   197  SER197      0.1889
     51  C         -1.1730   59.3180  -26.1870 C.2   197  SER197      0.2288
     52  O         -0.8420   60.1550  -27.0210 O.2   197  SER197     -0.2866
     53  CB        -0.2180   60.3970  -24.1360 C.3   197  SER197      0.2089
     54  OG         0.9340   59.5740  -24.2540 O.3   197  SER197     -0.2183
     55  N          1.0440   56.6900  -27.1670 N.3   199  ARG199     -0.1231
     56  CA         2.3920   56.1780  -27.4060 C.3   199  ARG199      0.1694
     57  C          2.4640   54.6850  -27.1540 C.2   199  ARG199      0.2592
     58  O          2.0940   54.2140  -26.0970 O.2   199  ARG199     -0.2718
     59  CB         3.4270   56.8800  -26.5260 C.3   199  ARG199      0.0321
     60  CG         3.8480   58.2430  -27.0530 C.3   199  ARG199      0.0489
     61  CD         4.3900   58.2320  -28.5100 C.3   199  ARG199      0.2205
     62  NE         5.7370   57.6590  -28.6500 N.pl3 199  ARG199     -0.0865
     63  CZ         6.8590   58.3740  -28.5180 C.cat 199  ARG199      0.5346
     64  NH1        6.7850   59.6770  -28.2420 N.pl3 199  ARG199      0.1354
     65  NH2        8.0680   57.8110  -28.6540 N.pl3 199  ARG199      0.1354
     66  N          2.9760   53.9630  -28.1430 N.am  200  ASN200     -0.1960
     67  CA         3.2040   52.5410  -28.0110 C.3   200  ASN200      0.1819
     68  C          4.3320   52.3110  -27.0280 C.2   200  ASN200      0.2621
     69  O          5.3640   52.9580  -27.1000 O.2   200  ASN200     -0.2715
     70  CB         3.6000   51.9230  -29.3610 C.3   200  ASN200      0.1195
     71  CG         2.4240   51.6620  -30.2850 C.2   200  ASN200      0.2630
     72  OD1        1.2590   51.7390  -29.8980 O.2   200  ASN200     -0.2716
     73  ND2        2.7330   51.3240  -31.5160 N.am  200  ASN200     -0.0877
     74  N          4.1530   51.3120  -26.1780 N.am  201  VAL201     -0.1977
     75  CA         5.2250   50.7620  -25.3490 C.3   201  VAL201      0.1596
     76  C          5.4980   49.3380  -25.7720 C.2   201  VAL201      0.2287
     77  O          4.6200   48.4800  -25.6860 O.2   201  VAL201     -0.2864
     78  CB         4.8390   50.7990  -23.8540 C.3   201  VAL201      0.0276
     79  CG1        5.9570   50.2220  -22.9830 C.3   201  VAL201      0.0022
     80  CG2        4.5240   52.2320  -23.4270 C.3   201  VAL201      0.0022
     81  N          2.9910   55.2060  -18.2210 N.3   236  TYR236     -0.1227
     82  CA         4.3840   54.7760  -18.3350 C.3   236  TYR236      0.1736
     83  C          5.1920   55.8510  -19.0700 C.2   236  TYR236      0.2595
     84  O          4.6180   56.6620  -19.8150 O.2   236  TYR236     -0.2718
     85  CB         4.4670   53.4250  -19.0380 C.3   236  TYR236      0.0548
     86  CG         5.8260   52.7870  -18.9860 C.ar  236  TYR236     -0.0200
     87  CD1        6.4800   52.5530  -17.7500 C.ar  236  TYR236     -0.0009
     88  CD2        6.4710   52.4090  -20.1390 C.ar  236  TYR236     -0.0009
     89  CE1        7.7430   51.9770  -17.7080 C.ar  236  TYR236      0.0417
     90  CE2        7.7230   51.8420  -20.1030 C.ar  236  TYR236      0.0417
     91  CZ         8.3640   51.6220  -18.8850 C.ar  236  TYR236      0.1957
     92  OH         9.6250   51.0500  -18.8640 O.3   236  TYR236     -0.2866
     93  N          6.5250   55.8010  -18.9200 N.am  237  ASP237     -0.1960
     94  CA         7.3710   56.9170  -19.3340 C.3   237  ASP237      0.1840
     95  C          8.5650   56.5720  -20.2290 C.2   237  ASP237      0.2622
     96  O          9.4050   57.4230  -20.5050 O.2   237  ASP237     -0.2715
     97  CB         7.8340   57.6730  -18.0660 C.3   237  ASP237      0.1450
     98  CG         8.5350   56.7690  -17.0250 C.2   237  ASP237      0.3671
     99  OD1        8.4700   55.5220  -17.1330 O.co2 237  ASP237     -0.2456
    100  OD2        9.1140   57.3400  -16.0750 O.co2 237  ASP237     -0.2456
    101  N          8.5920   55.3400  -20.7360 N.am  238  LEU238     -0.1963
    102  CA         9.5500   54.9110  -21.7510 C.3   238  LEU238      0.1728
    103  C          8.7990   54.1660  -22.8350 C.2   238  LEU238      0.2616
    104  O          7.6430   53.7480  -22.6150 O.2   238  LEU238     -0.2715
    105  CB        10.6120   53.9800  -21.1680 C.3   238  LEU238      0.0311
    106  CG        11.5780   54.5080  -20.1080 C.3   238  LEU238      0.0022
    107  CD1       12.3070   53.3930  -19.3870 C.3   238  LEU238      0.0001
    108  CD2       12.5680   55.3750  -20.8670 C.3   238  LEU238      0.0001
    109  N          9.4270   53.9830  -23.9930 N.am  239  ASP239     -0.1971
    110  CA         8.7700   53.2100  -25.0540 C.3   239  ASP239      0.1709
    111  C          9.1320   51.7080  -25.0250 C.2   239  ASP239      0.2293
    112  O          8.8500   50.9700  -25.9820 O.2   239  ASP239     -0.2864
    113  CB         9.0780   53.7910  -26.4440 C.3   239  ASP239      0.1436
    114  CG        10.5060   53.5640  -26.9060 C.2   239  ASP239      0.3671
    115  OD1       11.2600   52.8040  -26.2640 O.co2 239  ASP239     -0.2456
    116  OD2       10.8630   54.1440  -27.9790 O.co2 239  ASP239     -0.2456
    117  N          9.8910   56.8090   -9.8560 N.3   295  ARG295     -0.1245
    118  CA         9.7770   58.2520  -10.1270 C.3   295  ARG295      0.1563
    119  C          9.9290   59.0590   -8.8430 C.2   295  ARG295      0.2260
    120  O         10.5970   60.1090   -8.8520 O.2   295  ARG295     -0.2867
    121  CB         8.4450   58.5820  -10.8200 C.3   295  ARG295      0.0307
    122  CG         8.3790   58.1390  -12.2970 C.3   295  ARG295      0.0489
    123  CD         9.3330   58.9760  -13.1810 C.3   295  ARG295      0.2205
    124  NE         8.8470   60.3260  -13.3920 N.pl3 295  ARG295     -0.0865
    125  CZ         8.4850   60.8420  -14.5710 C.cat 295  ARG295      0.5346
    126  NH1        8.5610   60.1240  -15.6910 N.pl3 295  ARG295      0.1354
    127  NH2        8.0750   62.1040  -14.6320 N.pl3 295  ARG295      0.1354
@<TRIPOS>BOND
     1    73    71   am
     2    71    72    2
     3    71    70    1
     4    70    67    1
     5    65    63    1
     6    62    63    2
     7    62    61    1
     8    63    64    1
     9    61    60    1
    10    66    67    1
    11    66    57   am
    12    67    68    1
    13   116   114   ar
    14    56    55    1
    15    56    57    1
    16    56    59    1
    17    57    58    2
    18    69    68    2
    19    60    59    1
    20    68    74   am
    21    52    51    2
    22   114   113    1
    23   114   115   ar
    24   113   110    1
    25    51    50    1
    26    74    75    1
    27   112   111    2
    28    76    77    2
    29    76    75    1
    30    75    78    1
    31   110   111    1
    32   110   109    1
    33    45    44    2
    34    50    53    1
    35    50    49    1
    36    12    13    2
    37    12    11    1
    38    14    15    1
    39    14    11    1
    40    42    43    1
    41    16    15    2
    42    54    53    1
    43    15    17   am
    44    11    10    1
    45   109   103   am
    46    47    46    1
    47    78    80    1
    48    78    79    1
    49    44    43    1
    50    43    46    1
    51    46    48    1
    52   103   104    2
    53   103   102    1
    54   102   105    1
    55   102   101    1
    56   105   106    1
    57   108   106    1
    58   101    95   am
    59    96    95    2
    60    23    22    1
    61    23    24    1
    62    22    19    1
    63    95    94    1
    64    24    18    1
    65    88    90   ar
    66    88    86   ar
    67   106   107    1
    68    90    91   ar
    69    84    83    2
    70    94    93    1
    71    94    97    1
    72    18    19    1
    73    19    20    1
    74    83    93   am
    75    83    82    1
    76    85    86    1
    77    85    82    1
    78    86    87   ar
    79    91    92    1
    80    91    89   ar
    81    82    81    1
    82    97    98    1
    83    34    35   ar
    84    34    32   ar
    85    20    21    2
    86    20    25   am
    87    87    89   ar
    88    35    33   ar
    89    32    30   ar
    90    99    98   ar
    91    25    26    1
    92    98   100   ar
    93     9     8    1
    94    33    31   ar
    95     7     8    1
    96     7     6    1
    97    30    31   ar
    98    30    29    1
    99     5     6    1
   100     5     2    1
   101     4     3    2
   102    26    29    1
   103    26    27    1
   104   126   125    1
   105     3     2    1
   106     2     1    1
   107    27    28    2
   108    27    36   am
   109   127   125    1
   110   125   124    2
   111    36    37    1
   112   124   123    1
   113   123   122    1
   114    41    40    1
   115    37    40    1
   116    37    38    1
   117   122   121    1
   118    38    39    2
   119   121   118    1
   120   118   117    1
   121   118   119    1
   122   120   119    2
