@<TRIPOS>MOLECULE
tmp/4qhpA00.pdb
 216 204 0 0 0
SMALL
GASTEIGER

@<TRIPOS>ATOM
      1  N         20.9520   41.6820   -8.8620 N.3   113  GLN113     -0.1245
      2  CA        20.0060   42.1410   -7.8550 C.3   113  GLN113      0.1566
      3  C         20.7180   43.1700   -7.0040 C.2   113  GLN113      0.2260
      4  O         21.6970   42.8560   -6.3420 O.2   113  GLN113     -0.2867
      5  CB        19.4820   41.0030   -6.9970 C.3   113  GLN113      0.0367
      6  CG        18.6200   41.4740   -5.8320 C.3   113  GLN113      0.0905
      7  CD        17.4170   42.3170   -6.2600 C.2   113  GLN113      0.2608
      8  OE1       16.8470   42.1280   -7.3440 O.2   113  GLN113     -0.2717
      9  NE2       17.0480   43.2640   -5.4230 N.am  113  GLN113     -0.0878
     10  N         18.8650   45.8110   -4.9930 N.3   115  GLU115     -0.1245
     11  CA        18.1870   46.3540   -3.8080 C.3   115  GLU115      0.1567
     12  C         18.3870   45.4530   -2.6090 C.2   115  GLU115      0.2260
     13  O         18.1910   44.2570   -2.7400 O.2   115  GLU115     -0.2867
     14  CB        16.6830   46.5330   -4.0170 C.3   115  GLU115      0.0388
     15  CG        16.0420   47.2530   -2.8290 C.3   115  GLU115      0.1160
     16  CD        14.5330   47.4270   -2.9300 C.2   115  GLU115      0.3649
     17  OE1       13.9830   47.1130   -4.0300 O.co2 115  GLU115     -0.2457
     18  OE2       13.9180   47.9540   -1.9740 O.co2 115  GLU115     -0.2457
     19  N         16.5260   33.3440   -7.2270 N.3   248  PHE248     -0.1227
     20  CA        16.1860   34.7070   -6.8290 C.3   248  PHE248      0.1736
     21  C         15.7350   34.7240   -5.3720 C.2   248  PHE248      0.2595
     22  O         15.0120   33.8170   -4.9430 O.2   248  PHE248     -0.2718
     23  CB        15.1080   35.2780   -7.7430 C.3   248  PHE248      0.0547
     24  CG        15.0920   36.7670   -7.8240 C.ar  248  PHE248     -0.0202
     25  CD1       16.1270   37.4420   -8.4230 C.ar  248  PHE248     -0.0042
     26  CD2       14.0040   37.4800   -7.3650 C.ar  248  PHE248     -0.0042
     27  CE1       16.0880   38.8420   -8.5350 C.ar  248  PHE248     -0.0003
     28  CE2       13.9680   38.8720   -7.4700 C.ar  248  PHE248     -0.0003
     29  CZ        15.0040   39.5310   -8.0810 C.ar  248  PHE248     -0.0000
     30  N         16.1930   35.7170   -4.6170 N.am  249  ASN249     -0.1974
     31  CA        15.9520   35.7650   -3.1790 C.3   249  ASN249      0.1688
     32  C         14.4880   36.0020   -2.8300 C.2   249  ASN249      0.2292
     33  O         13.9450   35.3600   -1.9310 O.2   249  ASN249     -0.2864
     34  CB        16.8140   36.8530   -2.5350 C.3   249  ASN249      0.1181
     35  CG        18.2090   36.3660   -2.1960 C.2   249  ASN249      0.2629
     36  OD1       18.4150   35.1870   -1.9080 O.2   249  ASN249     -0.2716
     37  ND2       19.1770   37.2750   -2.2280 N.am  249  ASN249     -0.0877
     38  N         10.4970   37.7710   -4.5520 N.3   250  GLY250     -0.1210
     39  CA         9.5360   37.5400   -5.6170 C.3   250  GLY250      0.1956
     40  C          9.8850   38.1860   -6.9460 C.2   250  GLY250      0.2611
     41  O          9.8220   37.5410   -7.9930 O.2   250  GLY250     -0.2717
     42  N         10.2470   39.4630   -6.9050 N.am  251  ALA251     -0.1979
     43  CA        10.5140   40.2260   -8.1130 C.3   251  ALA251      0.1597
     44  C         11.1770   41.5390   -7.7300 C.2   251  ALA251      0.2287
     45  O         11.3330   41.8400   -6.5440 O.2   251  ALA251     -0.2864
     46  CB         9.2160   40.4580   -8.9210 C.3   251  ALA251      0.0319
     47  N         11.7000   45.8190   -9.1860 N.3   252  GLU252     -0.1245
     48  CA        11.1860   46.8600  -10.0570 C.3   252  GLU252      0.1567
     49  C         12.2370   47.6720  -10.8060 C.2   252  GLU252      0.2260
     50  O         11.9920   48.8430  -11.1120 O.2   252  GLU252     -0.2867
     51  CB        10.3090   47.8030   -9.2180 C.3   252  GLU252      0.0388
     52  CG        11.0770   48.6420   -8.1750 C.3   252  GLU252      0.1160
     53  CD        11.1280   48.0740   -6.7820 C.2   252  GLU252      0.3649
     54  OE1       11.0490   46.8300   -6.6420 O.co2 252  GLU252     -0.2457
     55  OE2       11.3020   48.8920   -5.8500 O.co2 252  GLU252     -0.2457
     56  N          6.6630   33.9590  -10.0630 N.3   263  PHE263     -0.1241
     57  CA         5.7220   35.0530  -10.2580 C.3   263  PHE263      0.1605
     58  C          5.6360   35.5460  -11.6910 C.2   263  PHE263      0.2264
     59  O          5.0880   36.6430  -11.9630 O.2   263  PHE263     -0.2867
     60  CB         6.0380   36.2170   -9.2950 C.3   263  PHE263      0.0534
     61  CG         5.8190   35.8420   -7.8890 C.ar  263  PHE263     -0.0203
     62  CD1        4.5330   35.5200   -7.4560 C.ar  263  PHE263     -0.0042
     63  CD2        6.8770   35.6890   -7.0150 C.ar  263  PHE263     -0.0042
     64  CE1        4.2960   35.1190   -6.1760 C.ar  263  PHE263     -0.0003
     65  CE2        6.6430   35.2820   -5.7100 C.ar  263  PHE263     -0.0003
     66  CZ         5.3350   35.0040   -5.2890 C.ar  263  PHE263     -0.0000
     67  N         -0.8330   39.7180   -9.1530 N.3   281  SER281     -0.1202
     68  CA        -0.4770   40.6180   -8.0640 C.3   281  SER281      0.2020
     69  C          0.9160   41.1670   -8.1830 C.2   281  SER281      0.2618
     70  O          1.1130   42.3790   -8.0270 O.2   281  SER281     -0.2717
     71  CB        -0.5800   39.9230   -6.7130 C.3   281  SER281      0.2103
     72  OG        -1.9050   39.5590   -6.4320 O.3   281  SER281     -0.2182
     73  N          1.8810   40.2860   -8.4320 N.am  282  VAL282     -0.1979
     74  CA         3.3000   40.7000   -8.4300 C.3   282  VAL282      0.1595
     75  C          3.6960   41.4410   -9.7180 C.2   282  VAL282      0.2287
     76  O          4.4460   42.4200   -9.6680 O.2   282  VAL282     -0.2864
     77  CB         4.2020   39.4760   -8.1700 C.3   282  VAL282      0.0276
     78  CG1        5.6490   39.8110   -8.3080 C.3   282  VAL282      0.0022
     79  CG2        3.9060   38.8740   -6.7640 C.3   282  VAL282      0.0022
     80  N          2.3170   44.7940   -8.9170 N.3   285  HIS285     -0.1226
     81  CA         3.2340   45.3910   -7.9280 C.3   285  HIS285      0.1752
     82  C          4.4740   46.0160   -8.5580 C.2   285  HIS285      0.2595
     83  O          4.7760   47.2010   -8.3180 O.2   285  HIS285     -0.2718
     84  CB         3.6220   44.3300   -6.9120 C.3   285  HIS285      0.0759
     85  CG         4.3950   44.8550   -5.7460 C.ar  285  HIS285      0.0818
     86  ND1        3.8080   45.1580   -4.5360 N.ar  285  HIS285     -0.2268
     87  CD2        5.7120   45.1420   -5.6100 C.ar  285  HIS285      0.1154
     88  CE1        4.7380   45.5980   -3.7010 C.ar  285  HIS285      0.1986
     89  NE2        5.9050   45.5790   -4.3260 N.ar  285  HIS285     -0.2212
     90  N          5.1920   45.2670   -9.3890 N.am  286  GLU286     -0.1979
     91  CA         6.4590   45.7760   -9.8950 C.3   286  GLU286      0.1602
     92  C          6.1970   46.9230  -10.8790 C.2   286  GLU286      0.2287
     93  O          6.9160   47.9300  -10.8670 O.2   286  GLU286     -0.2864
     94  CB         7.2860   44.6810  -10.5560 C.3   286  GLU286      0.0415
     95  CG         7.6410   43.4840   -9.6920 C.3   286  GLU286      0.1163
     96  CD         8.0880   43.8190   -8.2840 C.2   286  GLU286      0.3649
     97  OE1        8.8370   44.7950   -8.0660 O.co2 286  GLU286     -0.2457
     98  OE2        7.6890   43.0780   -7.3700 O.co2 286  GLU286     -0.2457
     99  N          5.4220   50.1620   -8.9970 N.3   289  HIS289     -0.1241
    100  CA         6.6330   50.7920   -8.4790 C.3   289  HIS289      0.1621
    101  C          7.1850   51.8170   -9.4300 C.2   289  HIS289      0.2264
    102  O          7.9390   52.6960   -9.0000 O.2   289  HIS289     -0.2867
    103  CB         7.7320   49.7750   -8.2120 C.3   289  HIS289      0.0745
    104  CG         7.7510   49.1890   -6.8360 C.ar  289  HIS289      0.0817
    105  ND1        7.6620   49.9510   -5.7010 N.ar  289  HIS289     -0.2268
    106  CD2        7.9420   47.9120   -6.4180 C.ar  289  HIS289      0.1154
    107  CE1        7.7650   49.1770   -4.6360 C.ar  289  HIS289      0.1986
    108  NE2        7.9520   47.9330   -5.0440 N.ar  289  HIS289     -0.2212
    109  N          7.6120   53.2770   -0.2630 N.3   307  LYS307     -0.1231
    110  CA         7.3720   52.6310   -1.5470 C.3   307  LYS307      0.1693
    111  C          6.7000   51.2860   -1.3750 C.2   307  LYS307      0.2591
    112  O          5.8020   50.9530   -2.1700 O.2   307  LYS307     -0.2718
    113  CB         8.6530   52.5160   -2.3900 C.3   307  LYS307      0.0285
    114  CG         9.6790   51.4490   -2.0780 C.3   307  LYS307      0.0035
    115  CD        10.8150   51.6090   -3.0260 C.3   307  LYS307      0.0206
    116  CE        12.0220   50.6970   -2.6970 C.3   307  LYS307      0.1093
    117  NZ        11.7910   49.2700   -2.9820 N.3   307  LYS307     -0.1314
    118  N          7.0380   50.4970   -0.3560 N.am  308  GLU308     -0.1979
    119  CA         6.4540   49.1570   -0.3210 C.3   308  GLU308      0.1602
    120  C          5.0400   49.1170    0.2530 C.2   308  GLU308      0.2287
    121  O          4.1970   48.4000   -0.2890 O.2   308  GLU308     -0.2864
    122  CB         7.3520   48.1610    0.4190 C.3   308  GLU308      0.0415
    123  CG         8.7120   47.9430   -0.2370 C.3   308  GLU308      0.1163
    124  CD         8.6360   47.4820   -1.6970 C.2   308  GLU308      0.3649
    125  OE1        7.5480   47.0320   -2.1290 O.co2 308  GLU308     -0.2457
    126  OE2        9.6510   47.5820   -2.4280 O.co2 308  GLU308     -0.2457
    127  N          2.1800   47.8660   -2.2710 N.3   312  VAL312     -0.1245
    128  CA         1.2690   46.7870   -1.8610 C.3   312  VAL312      0.1561
    129  C         -0.2040   47.2290   -1.8690 C.2   312  VAL312      0.2260
    130  O         -1.0590   46.4990   -2.3800 O.2   312  VAL312     -0.2867
    131  CB         1.6100   46.2440   -0.4680 C.3   312  VAL312      0.0252
    132  CG1        0.5210   45.2740    0.0380 C.3   312  VAL312      0.0019
    133  CG2        2.9510   45.5370   -0.4950 C.3   312  VAL312      0.0019
    134  N         -1.1990   47.1620   -5.4310 N.3   315  ASP315     -0.1225
    135  CA        -1.3930   45.8620   -6.0310 C.3   315  ASP315      0.1805
    136  C         -2.6600   45.2130   -5.4700 C.2   315  ASP315      0.2597
    137  O         -3.3670   44.5420   -6.2120 O.2   315  ASP315     -0.2718
    138  CB        -0.0930   45.0180   -5.9340 C.3   315  ASP315      0.1424
    139  CG         0.1210   44.2680   -4.6250 C.2   315  ASP315      0.3668
    140  OD1       -0.7400   43.4740   -4.1860 O.co2 315  ASP315     -0.2456
    141  OD2        1.2640   44.3700   -4.0920 O.co2 315  ASP315     -0.2456
    142  N         -2.9970   45.4870   -4.2100 N.am  316  GLN316     -0.1979
    143  CA        -4.2230   44.9600   -3.6070 C.3   316  GLN316      0.1601
    144  C         -5.4610   45.5410   -4.2600 C.2   316  GLN316      0.2287
    145  O         -6.4470   44.8290   -4.5360 O.2   316  GLN316     -0.2864
    146  CB        -4.2560   45.2640   -2.0970 C.3   316  GLN316      0.0394
    147  CG        -3.2790   44.4550   -1.2680 C.3   316  GLN316      0.0908
    148  CD        -3.3200   44.8060    0.2020 C.2   316  GLN316      0.2608
    149  OE1       -3.9990   45.7390    0.6200 O.2   316  GLN316     -0.2717
    150  NE2       -2.5640   44.0590    1.0020 N.am  316  GLN316     -0.0878
    151  N         -6.1480   39.0130    2.4420 N.3   332  ASN332     -0.1240
    152  CA        -5.0760   39.9370    2.8450 C.3   332  ASN332      0.1653
    153  C         -5.0770   40.1400    4.3690 C.2   332  ASN332      0.2266
    154  O         -4.0340   40.1610    5.0140 O.2   332  ASN332     -0.2867
    155  CB        -5.2210   41.2930    2.1490 C.3   332  ASN332      0.1155
    156  CG        -4.9380   41.2250    0.6530 C.2   332  ASN332      0.2627
    157  OD1       -4.1140   40.4330    0.2060 O.2   332  ASN332     -0.2716
    158  ND2       -5.5940   42.0810   -0.1110 N.am  332  ASN332     -0.0877
    159  N         -3.7740   36.9510    6.0260 N.3   335  LEU335     -0.1245
    160  CA        -2.3150   36.9180    5.9270 C.3   335  LEU335      0.1561
    161  C         -1.6650   37.8330    6.9670 C.2   335  LEU335      0.2260
    162  O         -0.6760   37.4530    7.6020 O.2   335  LEU335     -0.2867
    163  CB        -1.8580   37.3130    4.5170 C.3   335  LEU335      0.0270
    164  CG        -0.3750   37.6400    4.3190 C.3   335  LEU335      0.0019
    165  CD1        0.5040   36.4030    4.4310 C.3   335  LEU335      0.0001
    166  CD2       -0.0970   38.3620    2.9880 C.3   335  LEU335      0.0001
    167  N         18.5750   44.1510    4.9800 N.3   360  ASN360     -0.1240
    168  CA        17.8160   43.0670    4.4060 C.3   360  ASN360      0.1653
    169  C         16.9160   42.3440    5.3780 C.2   360  ASN360      0.2266
    170  O         16.0110   41.6020    4.9510 O.2   360  ASN360     -0.2867
    171  CB        18.7300   42.0780    3.7210 C.3   360  ASN360      0.1155
    172  CG        19.0240   42.5150    2.3130 C.2   360  ASN360      0.2627
    173  OD1       18.1230   42.5700    1.4760 O.2   360  ASN360     -0.2716
    174  ND2       20.2380   42.8780    2.0580 N.am  360  ASN360     -0.0877
    175  N         12.7800   43.7460    5.2190 N.3   363  TYR363     -0.1241
    176  CA        11.8150   43.4850    4.1450 C.3   363  TYR363      0.1605
    177  C         10.7440   42.5680    4.6980 C.2   363  TYR363      0.2264
    178  O         10.6770   41.3980    4.3600 O.2   363  TYR363     -0.2867
    179  CB        12.5110   42.9020    2.8960 C.3   363  TYR363      0.0534
    180  CG        13.2600   44.0140    2.1600 C.ar  363  TYR363     -0.0201
    181  CD1       14.4380   44.5550    2.6810 C.ar  363  TYR363     -0.0009
    182  CD2       12.7430   44.5780    1.0080 C.ar  363  TYR363     -0.0009
    183  CE1       15.0980   45.5950    2.0510 C.ar  363  TYR363      0.0417
    184  CE2       13.3790   45.6530    0.3760 C.ar  363  TYR363      0.0417
    185  CZ        14.5620   46.1330    0.8830 C.ar  363  TYR363      0.1957
    186  OH        15.1950   47.2060    0.3050 O.3   363  TYR363     -0.2866
    187  N          5.6720   45.8330    4.6830 N.3   367  TYR367     -0.1227
    188  CA         4.8170   45.6220    3.5090 C.3   367  TYR367      0.1736
    189  C          3.3330   45.6110    3.8430 C.2   367  TYR367      0.2595
    190  O          2.5700   46.4270    3.3480 O.2   367  TYR367     -0.2718
    191  CB         5.1800   44.3010    2.8320 C.3   367  TYR367      0.0548
    192  CG         6.3990   44.3630    1.9720 C.ar  367  TYR367     -0.0200
    193  CD1        7.6600   44.5560    2.5210 C.ar  367  TYR367     -0.0009
    194  CD2        6.2930   44.2490    0.6010 C.ar  367  TYR367     -0.0009
    195  CE1        8.7880   44.6340    1.6980 C.ar  367  TYR367      0.0417
    196  CE2        7.4020   44.3220   -0.2070 C.ar  367  TYR367      0.0417
    197  CZ         8.6370   44.4950    0.3440 C.ar  367  TYR367      0.1957
    198  OH         9.7460   44.5430   -0.4780 O.3   367  TYR367     -0.2866
    199  N          2.9130   44.6360    4.6360 N.am  368  GLU368     -0.1979
    200  CA         1.4910   44.3880    4.8120 C.3   368  GLU368      0.1602
    201  C          0.8600   45.3090    5.8500 C.2   368  GLU368      0.2287
    202  O         -0.2060   45.8720    5.6030 O.2   368  GLU368     -0.2864
    203  CB         1.2480   42.9300    5.1980 C.3   368  GLU368      0.0415
    204  CG         1.7610   41.9080    4.1710 C.3   368  GLU368      0.1163
    205  CD         1.1730   42.1000    2.7880 C.2   368  GLU368      0.3649
    206  OE1       -0.0220   42.4510    2.6950 O.co2 368  GLU368     -0.2457
    207  OE2        1.9050   41.8910    1.7820 O.co2 368  GLU368     -0.2457
    208  N         20.6650   35.9400    3.5270 N.3   799  GLN799     -0.1245
    209  CA        19.2470   36.3690    3.4690 C.3   799  GLN799      0.1566
    210  C         18.2700   35.2250    3.6880 C.2   799  GLN799      0.2260
    211  O         17.2860   35.3600    4.4210 O.2   799  GLN799     -0.2867
    212  CB        18.9390   37.0510    2.1320 C.3   799  GLN799      0.0367
    213  CG        19.5120   38.4020    2.0810 C.3   799  GLN799      0.0905
    214  CD        19.3750   38.9870    0.7040 C.2   799  GLN799      0.2608
    215  OE1       20.3590   39.1680    0.0250 O.2   799  GLN799     -0.2717
    216  NE2       18.1590   39.2030    0.2650 N.am  799  GLN799     -0.0878
@<TRIPOS>BOND
     1    59    58    2
     2    58    57    1
     3    50    49    2
     4    92    93    2
     5    92    91    1
     6    49    48    1
     7    94    91    1
     8    94    95    1
     9    57    56    1
    10    57    60    1
    11    48    51    1
    12    48    47    1
    13    91    90    1
    14    75    76    2
    15    75    74    1
    16    95    96    1
    17   101   102    2
    18   101   100    1
    19    90    82   am
    20    60    61    1
    21    51    52    1
    22    67    68    1
    23    99   100    1
    24    46    43    1
    25    80    81    1
    26     1     2    1
    27    82    83    2
    28    82    81    1
    29    27    25   ar
    30    27    29   ar
    31   100   103    1
    32    73    74    1
    33    73    69   am
    34    74    77    1
    35    25    24   ar
    36    78    77    1
    37    96    97   ar
    38    96    98   ar
    39   103   104    1
    40    69    68    1
    41    69    70    2
    42    52    53    1
    43    77    79    1
    44    43    44    1
    45    43    42    1
    46    29    28   ar
    47    68    71    1
    48    41    40    2
    49    81    84    1
    50    61    62   ar
    51    61    63   ar
    52     2     3    1
    53     2     5    1
    54    24    23    1
    55    24    26   ar
    56    23    20    1
    57    44    45    2
    58    28    26   ar
    59    62    64   ar
    60     8     7    2
    61    19    20    1
    62    63    65   ar
    63     3     4    2
    64     5     6    1
    65    40    42   am
    66    40    39    1
    67    84    85    1
    68   104   106   ar
    69   104   105   ar
    70    20    21    1
    71    53    54   ar
    72    53    55   ar
    73    71    72    1
    74   106   108   ar
    75     7     6    1
    76     7     9   am
    77   137   136    2
    78    64    66   ar
    79   135   138    1
    80   135   136    1
    81   135   134    1
    82   138   139    1
    83    85    87   ar
    84    85    86   ar
    85    65    66   ar
    86   105   107   ar
    87    39    38    1
    88    87    89   ar
    89   136   142   am
    90    21    22    2
    91    21    30   am
    92   108   107   ar
    93    10    11    1
    94   139   140   ar
    95   139   141   ar
    96    30    31    1
    97   145   144    2
    98    86    88   ar
    99    89    88   ar
   100   144   143    1
   101   142   143    1
   102    17    16   ar
   103    14    11    1
   104    14    15    1
   105    11    12    1
   106   143   146    1
   107    31    32    1
   108    31    34    1
   109   115   116    1
   110   115   114    1
   111   117   116    1
   112    16    15    1
   113    16    18   ar
   114    32    33    2
   115    13    12    2
   116    34    35    1
   117   126   124   ar
   118   113   114    1
   119   113   110    1
   120   130   129    2
   121   127   128    1
   122    37    35   am
   123    35    36    2
   124   112   111    2
   125   125   124   ar
   126   146   147    1
   127   129   128    1
   128   128   131    1
   129   124   123    1
   130   110   111    1
   131   110   109    1
   132   111   118   am
   133   147   148    1
   134   133   131    1
   135   198   197    1
   136   131   132    1
   137   118   119    1
   138   119   120    1
   139   119   122    1
   140   121   120    2
   141   123   122    1
   142   196   197   ar
   143   196   194   ar
   144   158   156   am
   145   215   214    2
   146   148   149    2
   147   148   150   am
   148   157   156    2
   149   216   214   am
   150   186   185    1
   151   197   195   ar
   152   184   185   ar
   153   184   182   ar
   154   194   192   ar
   155   156   155    1
   156   214   213    1
   157   185   183   ar
   158   182   180   ar
   159   173   172    2
   160   195   193   ar
   161   207   205   ar
   162   192   193   ar
   163   192   191    1
   164   183   181   ar
   165   174   172   am
   166   213   212    1
   167   212   209    1
   168   155   152    1
   169   180   181   ar
   170   180   179    1
   171   172   171    1
   172   151   152    1
   173   206   205   ar
   174   205   204    1
   175   191   188    1
   176   152   153    1
   177   179   176    1
   178   166   164    1
   179   190   189    2
   180   209   208    1
   181   209   210    1
   182   188   189    1
   183   188   187    1
   184   210   211    2
   185   171   168    1
   186   189   199   am
   187   176   177    1
   188   176   175    1
   189   204   203    1
   190   164   165    1
   191   164   163    1
   192   178   177    2
   193   153   154    2
   194   168   167    1
   195   168   169    1
   196   163   160    1
   197   199   200    1
   198   200   203    1
   199   200   201    1
   200   170   169    2
   201   202   201    2
   202   160   159    1
   203   160   161    1
   204   161   162    2
