@<TRIPOS>MOLECULE
tmp/4qhqA00.pdb
 142 137 0 0 0
SMALL
GASTEIGER

@<TRIPOS>ATOM
      1  N        -13.5440    2.4720   -3.5390 N.3    11  ASP11      -0.1239
      2  CA       -12.8340    3.0010   -2.3750 C.3    11  ASP11       0.1674
      3  C        -13.0350    2.1140   -1.1510 C.2    11  ASP11       0.2266
      4  O        -12.0850    1.8350   -0.4110 O.2    11  ASP11      -0.2867
      5  CB       -13.2840    4.4210   -2.0340 C.3    11  ASP11       0.1410
      6  CG       -12.8530    5.4340   -3.0670 C.2    11  ASP11       0.3668
      7  OD1      -11.6330    5.6610   -3.2210 O.co2  11  ASP11      -0.2456
      8  OD2      -13.7410    5.9990   -3.7370 O.co2  11  ASP11      -0.2456
      9  N        -20.4860   11.9760   -2.4930 N.3    38  TYR38      -0.1241
     10  CA       -19.3480   12.8270   -2.1520 C.3    38  TYR38       0.1605
     11  C        -19.6880   13.8700   -1.1080 C.2    38  TYR38       0.2264
     12  O        -18.7950   14.5360   -0.6020 O.2    38  TYR38      -0.2867
     13  CB       -18.8650   13.6050   -3.3820 C.3    38  TYR38       0.0534
     14  CG       -18.3200   12.8010   -4.5430 C.ar   38  TYR38      -0.0201
     15  CD1      -17.7700   11.5370   -4.3610 C.ar   38  TYR38      -0.0009
     16  CD2      -18.3520   13.3270   -5.8310 C.ar   38  TYR38      -0.0009
     17  CE1      -17.2530   10.8160   -5.4370 C.ar   38  TYR38       0.0417
     18  CE2      -17.8480   12.6240   -6.8990 C.ar   38  TYR38       0.0417
     19  CZ       -17.2980   11.3770   -6.6950 C.ar   38  TYR38       0.1957
     20  OH       -16.8060   10.7060   -7.7860 O.3    38  TYR38      -0.2866
     21  N        -11.6700    9.8150   -0.3140 N.3    55  PHE55      -0.1227
     22  CA       -12.6740    9.7720   -1.3690 C.3    55  PHE55       0.1736
     23  C        -12.5080   10.8560   -2.4300 C.2    55  PHE55       0.2595
     24  O        -13.2320   10.8310   -3.4060 O.2    55  PHE55      -0.2718
     25  CB       -14.0750    9.8940   -0.7850 C.3    55  PHE55       0.0547
     26  CG       -14.4450   11.3000   -0.4240 C.ar   55  PHE55      -0.0202
     27  CD1      -13.8950   11.9080    0.7020 C.ar   55  PHE55      -0.0042
     28  CD2      -15.3280   12.0220   -1.2060 C.ar   55  PHE55      -0.0042
     29  CE1      -14.2210   13.2100    1.0330 C.ar   55  PHE55      -0.0003
     30  CE2      -15.6550   13.3280   -0.8950 C.ar   55  PHE55      -0.0003
     31  CZ       -15.1120   13.9200    0.2340 C.ar   55  PHE55      -0.0000
     32  N        -11.6130   11.8180   -2.2300 N.am   56  GLN56      -0.1965
     33  CA       -11.6150   13.0140   -3.0710 C.3    56  GLN56       0.1733
     34  C        -10.2580   13.3630   -3.6390 C.2    56  GLN56       0.2616
     35  O         -9.2310   12.8740   -3.1840 O.2    56  GLN56      -0.2715
     36  CB       -12.1120   14.2060   -2.2490 C.3    56  GLN56       0.0408
     37  CG       -11.0680   14.7690   -1.2880 C.3    56  GLN56       0.0908
     38  CD       -11.6890   15.5800   -0.1740 C.2    56  GLN56       0.2608
     39  OE1      -12.4070   16.5500   -0.4190 O.2    56  GLN56      -0.2717
     40  NE2      -11.4130   15.1800    1.0730 N.am   56  GLN56      -0.0878
     41  N        -10.2620   14.2250   -4.6540 N.am   57  HIS57      -0.1973
     42  CA        -9.0260   14.8270   -5.1540 C.3    57  HIS57       0.1656
     43  C         -8.8480   16.2450   -4.5860 C.2    57  HIS57       0.2291
     44  O         -9.7450   16.7740   -3.9280 O.2    57  HIS57      -0.2864
     45  CB        -8.9730   14.7820   -6.6920 C.3    57  HIS57       0.0771
     46  CG       -10.2240   15.2530   -7.3710 C.ar   57  HIS57       0.0820
     47  ND1      -10.7090   16.5350   -7.2270 N.ar   57  HIS57      -0.2267
     48  CD2      -11.0590   14.6200   -8.2260 C.ar   57  HIS57       0.1154
     49  CE1      -11.8040   16.6680   -7.9620 C.ar   57  HIS57       0.1986
     50  NE2      -12.0280   15.5230   -8.5930 N.ar   57  HIS57      -0.2212
     51  N        -11.4040   19.0020   -5.5420 N.3    60  TYR60      -0.1241
     52  CA       -12.6480   18.8600   -4.7890 C.3    60  TYR60       0.1605
     53  C        -12.5050   19.4070   -3.3540 C.2    60  TYR60       0.2264
     54  O        -13.3680   20.1500   -2.8810 O.2    60  TYR60      -0.2867
     55  CB       -13.1120   17.4000   -4.7600 C.3    60  TYR60       0.0534
     56  CG       -14.4880   17.2270   -4.1730 C.ar   60  TYR60      -0.0201
     57  CD1      -14.6740   17.0060   -2.8090 C.ar   60  TYR60      -0.0009
     58  CD2      -15.6030   17.2610   -4.9820 C.ar   60  TYR60      -0.0009
     59  CE1      -15.9500   16.8430   -2.2830 C.ar   60  TYR60       0.0417
     60  CE2      -16.8850   17.1080   -4.4660 C.ar   60  TYR60       0.0417
     61  CZ       -17.0490   16.8970   -3.1060 C.ar   60  TYR60       0.1957
     62  OH       -18.3170   16.7480   -2.6060 O.3    60  TYR60      -0.2866
     63  N         -4.7520    7.1450   -5.1530 N.3    79  TYR79      -0.1241
     64  CA        -4.7120    6.7070   -6.5450 C.3    79  TYR79       0.1605
     65  C         -5.2860    7.8130   -7.4040 C.2    79  TYR79       0.2264
     66  O         -5.9770    8.6980   -6.9050 O.2    79  TYR79      -0.2867
     67  CB        -5.5390    5.4330   -6.7530 C.3    79  TYR79       0.0534
     68  CG        -6.9970    5.6360   -6.4860 C.ar   79  TYR79      -0.0201
     69  CD1       -7.8590    6.0930   -7.4800 C.ar   79  TYR79      -0.0009
     70  CD2       -7.5310    5.3820   -5.2290 C.ar   79  TYR79      -0.0009
     71  CE1       -9.1980    6.2960   -7.2240 C.ar   79  TYR79       0.0417
     72  CE2       -8.8700    5.5740   -4.9670 C.ar   79  TYR79       0.0417
     73  CZ        -9.7040    6.0310   -5.9760 C.ar   79  TYR79       0.1957
     74  OH       -11.0450    6.2180   -5.7240 O.3    79  TYR79      -0.2866
     75  N         -7.5990    8.2560  -11.1010 N.3    81  SER81      -0.1217
     76  CA        -8.5160    7.4770  -11.9140 C.3    81  SER81       0.1889
     77  C         -9.1020    8.3590  -13.0020 C.2    81  SER81       0.2288
     78  O        -10.1240    9.0150  -12.7800 O.2    81  SER81      -0.2866
     79  CB        -9.6260    6.8760  -11.0520 C.3    81  SER81       0.2089
     80  OG       -10.3400    7.8860  -10.3710 O.3    81  SER81      -0.2183
     81  N        -15.6730   18.7090  -10.2540 N.3   110  ASN110     -0.1240
     82  CA       -15.8640   17.6520  -11.2420 C.3   110  ASN110      0.1653
     83  C        -16.6460   18.0930  -12.4770 C.2   110  ASN110      0.2266
     84  O        -16.4350   17.5420  -13.5610 O.2   110  ASN110     -0.2867
     85  CB       -16.4670   16.4120  -10.5960 C.3   110  ASN110      0.1155
     86  CG       -15.4920   15.7290   -9.6730 C.2   110  ASN110      0.2627
     87  OD1      -14.4800   15.1630  -10.1210 O.2   110  ASN110     -0.2716
     88  ND2      -15.7670   15.8020   -8.3790 N.am  110  ASN110     -0.0877
     89  N        -13.9400   19.6390  -14.4410 N.3   113  ARG113     -0.1245
     90  CA       -13.1500   18.5460  -14.9670 C.3   113  ARG113      0.1563
     91  C        -13.7940   17.9150  -16.2020 C.2   113  ARG113      0.2260
     92  O        -13.1270   17.6630  -17.2190 O.2   113  ARG113     -0.2867
     93  CB       -13.0100   17.4960  -13.8770 C.3   113  ARG113      0.0307
     94  CG       -12.2360   16.2570  -14.2760 C.3   113  ARG113      0.0489
     95  CD       -12.2520   15.3000  -13.1100 C.3   113  ARG113      0.2205
     96  NE       -11.3350   14.1880  -13.3000 N.pl3 113  ARG113     -0.0865
     97  CZ       -11.1980   13.1920  -12.4380 C.cat 113  ARG113      0.5346
     98  NH1      -11.9550   13.1670  -11.3410 N.pl3 113  ARG113      0.1354
     99  NH2      -10.3200   12.2260  -12.6680 N.pl3 113  ARG113      0.1354
    100  N        -17.5090    9.9180  -13.0590 N.3   172  ASN172     -0.1225
    101  CA       -16.3980    9.5880  -12.1580 C.3   172  ASN172      0.1785
    102  C        -16.1800    8.0910  -12.0540 C.2   172  ASN172      0.2598
    103  O        -17.1180    7.3100  -11.9610 O.2   172  ASN172     -0.2718
    104  CB       -16.6230   10.1690  -10.7620 C.3   172  ASN172      0.1169
    105  CG       -16.5710   11.6800  -10.7380 C.2   172  ASN172      0.2627
    106  OD1      -15.5020   12.2880  -10.5280 O.2   172  ASN172     -0.2716
    107  ND2      -17.7160   12.2980  -10.9360 N.am  172  ASN172     -0.0877
    108  N        -14.9180    7.6960  -12.0590 N.am  173  THR173     -0.1939
    109  CA       -14.5740    6.2870  -12.1180 C.3   173  THR173      0.2028
    110  C        -15.1440    5.4530  -10.9570 C.2   173  THR173      0.2642
    111  O        -15.5770    4.3320  -11.1760 O.2   173  THR173     -0.2714
    112  CB       -13.0610    6.1220  -12.3020 C.3   173  THR173      0.1808
    113  OG1      -12.7260    6.5170  -13.6410 O.3   173  THR173     -0.2208
    114  CG2      -12.6220    4.6980  -12.0590 C.3   173  THR173      0.0379
    115  N        -15.1910    6.0000   -9.7390 N.am  174  ASN174     -0.1971
    116  CA       -15.7440    5.2190   -8.6200 C.3   174  ASN174      0.1688
    117  C        -17.1970    4.8160   -8.8870 C.2   174  ASN174      0.2292
    118  O        -17.5900    3.6820   -8.6330 O.2   174  ASN174     -0.2864
    119  CB       -15.5940    5.9490   -7.2790 C.3   174  ASN174      0.1181
    120  CG       -16.3720    7.2340   -7.2190 C.2   174  ASN174      0.2629
    121  OD1      -15.9860    8.2380   -7.8220 O.2   174  ASN174     -0.2716
    122  ND2      -17.4910    7.2120   -6.5080 N.am  174  ASN174     -0.0877
    123  N         -5.9370   15.3520  -10.6830 N.3   197  TYR197     -0.1241
    124  CA        -7.0120   14.7000   -9.9340 C.3   197  TYR197      0.1605
    125  C         -6.6440   13.4570   -9.1130 C.2   197  TYR197      0.2264
    126  O         -7.5050   12.6110   -8.8290 O.2   197  TYR197     -0.2867
    127  CB        -8.2060   14.4250  -10.8700 C.3   197  TYR197      0.0534
    128  CG        -8.6940   15.6980  -11.5030 C.ar  197  TYR197     -0.0201
    129  CD1       -9.3780   16.6460  -10.7580 C.ar  197  TYR197     -0.0009
    130  CD2       -8.4560   15.9690  -12.8540 C.ar  197  TYR197     -0.0009
    131  CE1       -9.8000   17.8390  -11.3220 C.ar  197  TYR197      0.0417
    132  CE2       -8.8850   17.1570  -13.4250 C.ar  197  TYR197      0.0417
    133  CZ        -9.5600   18.0840  -12.6610 C.ar  197  TYR197      0.1957
    134  OH        -9.9930   19.2620  -13.2080 O.3   197  TYR197     -0.2866
    135  N         -6.3510   11.2460   -6.0340 N.3   199  ASN199     -0.1240
    136  CA        -7.1530   11.2190   -4.8270 C.3   199  ASN199      0.1653
    137  C         -6.2380   11.2240   -3.5960 C.2   199  ASN199      0.2266
    138  O         -5.0260   11.0170   -3.7140 O.2   199  ASN199     -0.2867
    139  CB        -8.0740    9.9940   -4.8240 C.3   199  ASN199      0.1155
    140  CG        -9.2770   10.1500   -5.7300 C.2   199  ASN199      0.2627
    141  OD1      -10.3310    9.6080   -5.4350 O.2   199  ASN199     -0.2716
    142  ND2       -9.1280   10.8700   -6.8490 N.am  199  ASN199     -0.0877
@<TRIPOS>BOND
     1    92    91    2
     2    91    90    1
     3    90    89    1
     4    90    93    1
     5    94    93    1
     6    94    95    1
     7   113   112    1
     8    84    83    2
     9   132   130   ar
    10   132   133   ar
    11    96    95    1
    12    96    97    2
    13   134   133    1
    14   100   101    1
    15    77    78    2
    16    77    76    1
    17   130   128   ar
    18    99    97    1
    19   133   131   ar
    20    83    82    1
    21    97    98    1
    22   112   109    1
    23   112   114    1
    24   101   102    1
    25   101   104    1
    26   109   108    1
    27   109   110    1
    28   108   102   am
    29   102   103    2
    30    76    75    1
    31    76    79    1
    32   128   127    1
    33   128   129   ar
    34   131   129   ar
    35    82    85    1
    36    82    81    1
    37   111   110    2
    38    79    80    1
    39   110   115   am
    40   107   105   am
    41   127   124    1
    42   104   105    1
    43   105   106    2
    44   123   124    1
    45    85    86    1
    46    87    86    2
    47   124   125    1
    48   115   116    1
    49    86    88   am
    50   125   126    2
    51   117   118    2
    52   117   116    1
    53   116   119    1
    54    50    48   ar
    55    50    49   ar
    56    48    46   ar
    57    49    47   ar
    58   121   120    2
    59    20    19    1
    60    69    71   ar
    61    69    68   ar
    62    65    66    2
    63    65    64    1
    64    46    47   ar
    65    46    45    1
    66   119   120    1
    67    71    73   ar
    68   120   122   am
    69    18    19   ar
    70    18    16   ar
    71   142   140   am
    72    67    64    1
    73    67    68    1
    74    19    17   ar
    75    45    42    1
    76    64    63    1
    77    68    70   ar
    78   135   136    1
    79    73    74    1
    80    73    72   ar
    81    16    14   ar
    82   140   141    2
    83   140   139    1
    84    51    52    1
    85    17    15   ar
    86    70    72   ar
    87    42    41    1
    88    42    43    1
    89    58    60   ar
    90    58    56   ar
    91   136   139    1
    92   136   137    1
    93    52    55    1
    94    52    53    1
    95    55    56    1
    96    41    34   am
    97    43    44    2
    98    14    15   ar
    99    14    13    1
   100    60    61   ar
   101    56    57   ar
   102     8     6   ar
   103   138   137    2
   104    34    35    2
   105    34    33    1
   106     1     2    1
   107    24    23    2
   108    13    10    1
   109    53    54    2
   110     7     6   ar
   111    61    62    1
   112    61    59   ar
   113    33    36    1
   114    33    32    1
   115     6     5    1
   116    57    59   ar
   117     9    10    1
   118    23    32   am
   119    23    22    1
   120     2     5    1
   121     2     3    1
   122    36    37    1
   123    10    11    1
   124    22    25    1
   125    22    21    1
   126    37    38    1
   127    28    30   ar
   128    28    26   ar
   129     3     4    2
   130    11    12    2
   131    30    31   ar
   132    25    26    1
   133    26    27   ar
   134    39    38    2
   135    38    40   am
   136    31    29   ar
   137    27    29   ar
