@<TRIPOS>MOLECULE
tmp/4qhtC00.pdb
 191 183 0 0 0
SMALL
GASTEIGER

@<TRIPOS>ATOM
      1  N        -17.3380   86.8410  -17.8390 N.3     1  HIS1       -0.1226
      2  CA       -18.1620   87.7310  -17.0690 C.3     1  HIS1        0.1752
      3  C        -19.6300   87.3670  -17.2540 C.2     1  HIS1        0.2596
      4  O        -19.9490   86.4440  -17.9550 O.2     1  HIS1       -0.2718
      5  CB       -17.9180   89.1370  -17.5090 C.3     1  HIS1        0.0759
      6  CG       -18.9480   89.6290  -18.4560 C.ar    1  HIS1        0.0818
      7  ND1      -19.2970   88.9320  -19.5860 N.ar    1  HIS1       -0.2268
      8  CD2      -19.7270   90.7320  -18.4330 C.ar    1  HIS1        0.1154
      9  CE1      -20.2400   89.5910  -20.2300 C.ar    1  HIS1        0.1986
     10  NE2      -20.5220   90.6860  -19.5500 N.ar    1  HIS1       -0.2212
     11  N        -20.5210   88.0800  -16.5950 N.am    2  MET2       -0.1965
     12  CA       -21.8700   87.5890  -16.3880 C.3     2  MET2        0.1736
     13  C        -22.9240   88.4540  -16.9970 C.2     2  MET2        0.2616
     14  O        -22.8580   89.6390  -16.8990 O.2     2  MET2       -0.2715
     15  CB       -22.1300   87.4710  -14.8970 C.3     2  MET2        0.0427
     16  CG       -23.3360   86.7040  -14.5280 C.3     2  MET2        0.0599
     17  SD       -23.2360   86.1710  -12.8610 S.3     2  MET2       -0.1393
     18  CE       -23.6920   87.6210  -12.0180 C.3     2  MET2        0.0692
     19  N        -23.9070   87.8430  -17.6260 N.am    3  VAL3       -0.1977
     20  CA       -24.9780   88.5540  -18.2650 C.3     3  VAL3        0.1596
     21  C        -26.1770   88.6320  -17.3710 C.2     3  VAL3        0.2287
     22  O        -26.6300   87.6420  -16.8930 O.2     3  VAL3       -0.2864
     23  CB       -25.3640   87.8600  -19.5580 C.3     3  VAL3        0.0276
     24  CG1      -26.6910   88.3100  -20.0250 C.3     3  VAL3        0.0022
     25  CG2      -24.3730   88.1590  -20.6010 C.3     3  VAL3        0.0022
     26  N        -30.0330   72.9070  -12.7940 N.3    32  SER32      -0.1202
     27  CA       -28.8910   72.5410  -13.6280 C.3    32  SER32       0.2020
     28  C        -28.7600   73.4950  -14.8190 C.2    32  SER32       0.2619
     29  O        -29.7380   73.7500  -15.5590 O.2    32  SER32      -0.2717
     30  CB       -29.0070   71.0900  -14.1180 C.3    32  SER32       0.2103
     31  OG       -29.9970   70.9580  -15.1360 O.3    32  SER32      -0.2182
     32  N        -27.5470   74.0240  -14.9730 N.am   33  GLY33      -0.1942
     33  CA       -27.1830   74.8800  -16.0890 C.3    33  GLY33       0.2014
     34  C        -27.7110   76.2980  -15.9720 C.2    33  GLY33       0.2640
     35  O        -27.9280   76.9630  -16.9820 O.2    33  GLY33      -0.2714
     36  N        -27.9260   76.7660  -14.7520 N.am   34  SER34      -0.1935
     37  CA       -28.5790   78.0480  -14.5740 C.3    34  SER34       0.2055
     38  C        -27.5740   79.1410  -14.2610 C.2    34  SER34       0.2644
     39  O        -27.9490   80.3120  -14.1440 O.2    34  SER34      -0.2714
     40  CB       -29.6770   77.9530  -13.4860 C.3    34  SER34       0.2130
     41  OG       -29.1830   77.5210  -12.2370 O.3    34  SER34      -0.2179
     42  N        -26.3000   78.7600  -14.1360 N.am   35  GLY35      -0.1939
     43  CA       -25.2140   79.7140  -13.9290 C.3    35  GLY35       0.2014
     44  C        -24.5170   79.8010  -12.5680 C.2    35  GLY35       0.2639
     45  O        -23.8220   80.7910  -12.3030 O.2    35  GLY35      -0.2714
     46  N        -24.6810   78.7890  -11.7120 N.am   36  LYS36      -0.1963
     47  CA       -24.0370   78.7890  -10.3870 C.3    36  LYS36       0.1728
     48  C        -22.5290   79.0000  -10.4950 C.2    36  LYS36       0.2616
     49  O        -21.9220   79.7660   -9.7410 O.2    36  LYS36      -0.2715
     50  CB       -24.3300   77.4800   -9.6410 C.3    36  LYS36       0.0311
     51  CG       -25.7680   77.3610   -9.1830 C.3    36  LYS36       0.0038
     52  CD       -26.0610   76.0280   -8.5030 C.3    36  LYS36       0.0206
     53  CE       -25.8560   74.8440   -9.4470 C.3    36  LYS36       0.1093
     54  NZ       -26.9740   74.6270  -10.4410 N.3    36  LYS36      -0.1314
     55  N        -21.9380   78.3320  -11.4740 N.am   37  GLU37      -0.1963
     56  CA       -20.5120   78.4440  -11.7270 C.3    37  GLU37       0.1733
     57  C        -20.1120   79.8640  -12.1120 C.2    37  GLU37       0.2616
     58  O        -19.1000   80.3650  -11.6410 O.2    37  GLU37      -0.2715
     59  CB       -20.1020   77.4580  -12.8210 C.3    37  GLU37       0.0429
     60  CG       -18.7660   76.7890  -12.5950 C.3    37  GLU37       0.1163
     61  CD       -17.5890   77.7060  -12.8700 C.2    37  GLU37       0.3649
     62  OE1      -17.5290   78.3120  -13.9680 O.co2  37  GLU37      -0.2457
     63  OE2      -16.7140   77.8110  -11.9870 O.co2  37  GLU37      -0.2457
     64  N        -20.8880   80.5320  -12.9570 N.am   38  VAL38      -0.1977
     65  CA       -20.4200   81.8370  -13.3720 C.3    38  VAL38       0.1596
     66  C        -20.6890   82.8290  -12.2760 C.2    38  VAL38       0.2287
     67  O        -19.9820   83.8130  -12.1550 O.2    38  VAL38      -0.2864
     68  CB       -21.0410   82.3040  -14.7320 C.3    38  VAL38       0.0276
     69  CG1      -21.2760   81.1140  -15.6270 C.3    38  VAL38       0.0022
     70  CG2      -22.3130   83.1070  -14.5510 C.3    38  VAL38       0.0022
     71  N        -15.0340   70.4090   -8.6790 N.3    58  ASN58      -0.1240
     72  CA       -16.3640   69.8600   -8.8420 C.3    58  ASN58       0.1653
     73  C        -16.4330   68.4630   -8.2520 C.2    58  ASN58       0.2266
     74  O        -16.0460   67.4970   -8.9020 O.2    58  ASN58      -0.2867
     75  CB       -16.7440   69.8410  -10.3240 C.3    58  ASN58       0.1155
     76  CG       -18.2370   69.6620  -10.5460 C.2    58  ASN58       0.2627
     77  OD1      -18.8820   68.8350   -9.8950 O.2    58  ASN58      -0.2716
     78  ND2      -18.7960   70.4440  -11.4700 N.am   58  ASN58      -0.0877
     79  N        -17.9410   73.0360   -5.7540 N.3   101  ASP101     -0.1225
     80  CA       -19.0540   72.8490   -6.6840 C.3   101  ASP101      0.1805
     81  C        -19.6740   71.4700   -6.5050 C.2   101  ASP101      0.2597
     82  O        -18.9570   70.4710   -6.4890 O.2   101  ASP101     -0.2718
     83  CB       -18.5870   73.0310   -8.1380 C.3   101  ASP101      0.1424
     84  CG       -19.7530   73.1960   -9.1140 C.2   101  ASP101      0.3668
     85  OD1      -20.8070   73.7140   -8.6940 O.co2 101  ASP101     -0.2456
     86  OD2      -19.6250   72.8130  -10.3030 O.co2 101  ASP101     -0.2456
     87  N        -21.0030   71.4380   -6.3860 N.am  102  GLU102     -0.1979
     88  CA       -21.7930   70.2250   -6.1250 C.3   102  GLU102      0.1602
     89  C        -21.4050   69.5670   -4.8050 C.2   102  GLU102      0.2287
     90  O        -21.1160   68.3730   -4.7400 O.2   102  GLU102     -0.2864
     91  CB       -21.6660   69.2260   -7.2760 C.3   102  GLU102      0.0415
     92  CG       -22.2000   69.7440   -8.6040 C.3   102  GLU102      0.1163
     93  CD       -23.5540   70.4420   -8.4740 C.2   102  GLU102      0.3649
     94  OE1      -24.4380   69.9400   -7.7350 O.co2 102  GLU102     -0.2457
     95  OE2      -23.7290   71.5020   -9.1180 O.co2 102  GLU102     -0.2457
     96  N        -26.8360   71.3260   -6.5010 N.3   143  ASN143     -0.1240
     97  CA       -28.0770   71.1290   -7.2290 C.3   143  ASN143      0.1653
     98  C        -29.1930   70.7690   -6.2800 C.2   143  ASN143      0.2266
     99  O        -30.3370   71.1850   -6.4650 O.2   143  ASN143     -0.2867
    100  CB       -27.9080   70.0560   -8.2930 C.3   143  ASN143      0.1155
    101  CG       -27.3500   70.6210   -9.5690 C.2   143  ASN143      0.2627
    102  OD1      -26.2070   70.3370   -9.9540 O.2   143  ASN143     -0.2716
    103  ND2      -28.1460   71.4600  -10.2260 N.am  143  ASN143     -0.0877
    104  N        -30.2620   81.0830   -8.1780 N.3   170  TRP170     -0.1241
    105  CA       -30.6450   81.4250   -9.5450 C.3   170  TRP170      0.1605
    106  C        -32.0490   80.9160   -9.7630 C.2   170  TRP170      0.2264
    107  O        -32.3280   79.7390   -9.5180 O.2   170  TRP170     -0.2867
    108  CB       -29.7220   80.7930  -10.6000 C.3   170  TRP170      0.0550
    109  CG       -28.4390   81.5200  -10.8810 C.ar  170  TRP170      0.0003
    110  CD1      -27.1830   81.1310  -10.5200 C.ar  170  TRP170      0.0946
    111  CD2      -28.2840   82.7470  -11.6010 C.ar  170  TRP170      0.0152
    112  NE1      -26.2550   82.0420  -10.9620 N.ar  170  TRP170     -0.2442
    113  CE2      -26.9060   83.0480  -11.6250 C.ar  170  TRP170      0.0810
    114  CE3      -29.1730   83.6220  -12.2200 C.ar  170  TRP170      0.0012
    115  CZ2      -26.4030   84.1900  -12.2430 C.ar  170  TRP170      0.0191
    116  CZ3      -28.6660   84.7480  -12.8460 C.ar  170  TRP170      0.0001
    117  CH2      -27.2980   85.0210  -12.8510 C.ar  170  TRP170      0.0015
    118  N        -37.0250   83.9400  -15.6380 N.3   176  ARG176     -0.1245
    119  CA       -36.3370   85.2060  -15.8800 C.3   176  ARG176      0.1563
    120  C        -36.1160   85.4520  -17.3700 C.2   176  ARG176      0.2260
    121  O        -34.9930   85.6670  -17.8160 O.2   176  ARG176     -0.2867
    122  CB       -35.0030   85.2250  -15.1440 C.3   176  ARG176      0.0307
    123  CG       -34.1750   83.9890  -15.3610 C.3   176  ARG176      0.0489
    124  CD       -32.8770   84.1180  -14.5950 C.3   176  ARG176      0.2205
    125  NE       -32.1550   82.8530  -14.5090 N.pl3 176  ARG176     -0.0865
    126  CZ       -30.9730   82.6280  -15.0730 C.cat 176  ARG176      0.5346
    127  NH1      -30.3640   83.5910  -15.7560 N.pl3 176  ARG176      0.1354
    128  NH2      -30.3920   81.4420  -14.9370 N.pl3 176  ARG176      0.1354
    129  N        -28.4830   86.5550  -23.2140 N.3   183  LEU183     -0.1245
    130  CA       -27.6520   85.3710  -23.0560 C.3   183  LEU183      0.1561
    131  C        -27.3580   84.7160  -24.3810 C.2   183  LEU183      0.2260
    132  O        -26.2300   84.3070  -24.6390 O.2   183  LEU183     -0.2867
    133  CB       -28.3140   84.3530  -22.1430 C.3   183  LEU183      0.0270
    134  CG       -28.0760   84.5510  -20.6590 C.3   183  LEU183      0.0019
    135  CD1      -28.9220   83.5400  -19.9230 C.3   183  LEU183      0.0001
    136  CD2      -26.5970   84.3730  -20.3490 C.3   183  LEU183      0.0001
    137  N        -24.8240   86.5660  -26.1280 N.3   186  HIS186     -0.1226
    138  CA       -23.5500   86.4050  -25.4540 C.3   186  HIS186      0.1752
    139  C        -22.9370   85.0350  -25.7870 C.2   186  HIS186      0.2595
    140  O        -21.7180   84.9260  -26.0020 O.2   186  HIS186     -0.2718
    141  CB       -23.7310   86.5830  -23.9380 C.3   186  HIS186      0.0759
    142  CG       -22.5450   86.1400  -23.1320 C.ar  186  HIS186      0.0818
    143  ND1      -21.4520   86.9510  -22.9060 N.ar  186  HIS186     -0.2268
    144  CD2      -22.2710   84.9620  -22.5220 C.ar  186  HIS186      0.1154
    145  CE1      -20.5640   86.3000  -22.1760 C.ar  186  HIS186      0.1986
    146  NE2      -21.0370   85.0910  -21.9300 N.ar  186  HIS186     -0.2212
    147  N        -23.7890   84.0060  -25.8540 N.am  187  LEU187     -0.1980
    148  CA       -23.3270   82.6430  -26.1190 C.3   187  LEU187      0.1596
    149  C        -22.8050   82.5220  -27.5560 C.2   187  LEU187      0.2287
    150  O        -21.7570   81.9050  -27.8100 O.2   187  LEU187     -0.2864
    151  CB       -24.4470   81.6310  -25.8480 C.3   187  LEU187      0.0297
    152  CG       -24.9090   81.5050  -24.3760 C.3   187  LEU187      0.0022
    153  CD1      -26.2110   80.6820  -24.2190 C.3   187  LEU187      0.0001
    154  CD2      -23.8080   80.9360  -23.4660 C.3   187  LEU187      0.0001
    155  N        -19.5050   84.4730  -27.8360 N.3   190  ARG190     -0.1245
    156  CA       -18.4460   83.7150  -27.1770 C.3   190  ARG190      0.1563
    157  C        -17.9710   82.5320  -28.0420 C.2   190  ARG190      0.2260
    158  O        -16.7710   82.3100  -28.2230 O.2   190  ARG190     -0.2867
    159  CB       -18.9650   83.2770  -25.8090 C.3   190  ARG190      0.0307
    160  CG       -18.4220   82.0360  -25.1950 C.3   190  ARG190      0.0489
    161  CD       -19.1000   81.8910  -23.8520 C.3   190  ARG190      0.2205
    162  NE       -19.9340   80.7060  -23.7750 N.pl3 190  ARG190     -0.0865
    163  CZ       -20.4230   80.2200  -22.6420 C.cat 190  ARG190      0.5346
    164  NH1      -20.1800   80.8320  -21.4890 N.pl3 190  ARG190      0.1354
    165  NH2      -21.1590   79.1180  -22.6700 N.pl3 190  ARG190      0.1354
    166  N        -29.5150   77.5830  -19.1700 N.3   219  VAL219     -0.1231
    167  CA       -28.5560   78.2250  -20.0620 C.3   219  VAL219      0.1692
    168  C        -27.6640   77.2340  -20.8290 C.2   219  VAL219      0.2591
    169  O        -27.2880   77.4930  -21.9740 O.2   219  VAL219     -0.2718
    170  CB       -27.6750   79.2350  -19.3060 C.3   219  VAL219      0.0266
    171  CG1      -26.8840   80.0760  -20.2970 C.3   219  VAL219      0.0020
    172  CG2      -28.5600   80.1500  -18.4880 C.3   219  VAL219      0.0020
    173  N        -27.3430   76.1020  -20.2190 N.am  220  ARG220     -0.1980
    174  CA       -26.6530   75.0240  -20.9250 C.3   220  ARG220      0.1597
    175  C        -27.4020   74.6430  -22.2060 C.2   220  ARG220      0.2287
    176  O        -26.8260   74.5840  -23.3070 O.2   220  ARG220     -0.2864
    177  CB       -26.5220   73.8100  -20.0270 C.3   220  ARG220      0.0334
    178  CG       -25.6420   72.7410  -20.5640 C.3   220  ARG220      0.0492
    179  CD       -24.6630   72.3000  -19.4930 C.3   220  ARG220      0.2205
    180  NE       -25.3790   71.7290  -18.3670 N.pl3 220  ARG220     -0.0865
    181  CZ       -24.9100   71.6910  -17.1280 C.cat 220  ARG220      0.5346
    182  NH1      -23.7140   72.2020  -16.8550 N.pl3 220  ARG220      0.1354
    183  NH2      -25.6460   71.1450  -16.1670 N.pl3 220  ARG220      0.1354
    184  N        -27.2910   77.3890  -24.7770 N.3   223  ASP223     -0.1239
    185  CA       -25.9980   77.3710  -25.4290 C.3   223  ASP223      0.1674
    186  C        -26.0290   76.3160  -26.5380 C.2   223  ASP223      0.2266
    187  O        -25.5660   76.5460  -27.6610 O.2   223  ASP223     -0.2867
    188  CB       -24.8920   77.0840  -24.4030 C.3   223  ASP223      0.1410
    189  CG       -23.4670   77.3790  -24.9290 C.2   223  ASP223      0.3668
    190  OD1      -23.2970   77.9500  -26.0240 O.co2 223  ASP223     -0.2456
    191  OD2      -22.4920   77.0420  -24.2170 O.co2 223  ASP223     -0.2456
@<TRIPOS>BOND
     1   158   157    2
     2   157   156    1
     3   155   156    1
     4   150   149    2
     5   187   186    2
     6   149   148    1
     7   156   159    1
     8   186   185    1
     9   137   138    1
    10   148   147    1
    11   148   151    1
    12   190   189   ar
    13   140   139    2
    14   147   139   am
    15   151   152    1
    16   159   160    1
    17   139   138    1
    18   138   141    1
    19   185   184    1
    20   185   188    1
    21   160   161    1
    22   189   188    1
    23   189   191   ar
    24   132   131    2
    25   131   130    1
    26   152   153    1
    27   152   154    1
    28   141   142    1
    29   161   162    1
    30   162   163    2
    31   176   175    2
    32   129   130    1
    33   142   143   ar
    34   142   144   ar
    35   130   133    1
    36   143   145   ar
    37   165   163    1
    38   163   164    1
    39   144   146   ar
    40   175   174    1
    41   145   146   ar
    42   133   134    1
    43   169   168    2
    44   174   173    1
    45   174   177    1
    46   168   173   am
    47   168   167    1
    48   134   136    1
    49   134   135    1
    50    25    23    1
    51   178   177    1
    52   178   179    1
    53   171   170    1
    54     9     7   ar
    55     9    10   ar
    56   167   170    1
    57   167   166    1
    58    24    23    1
    59     7     6   ar
    60    23    20    1
    61    10     8   ar
    62   179   180    1
    63   170   172    1
    64     6     8   ar
    65     6     5    1
    66   180   181    2
    67    20    19    1
    68    20    21    1
    69     4     3    2
    70     1     2    1
    71   121   120    2
    72    19    13   am
    73     5     2    1
    74    21    22    2
    75   120   119    1
    76     3     2    1
    77     3    11   am
    78   181   182    1
    79   181   183    1
    80    13    14    2
    81    13    12    1
    82    35    34    2
    83    11    12    1
    84    12    15    1
    85    33    34    1
    86    33    32    1
    87    34    36   am
    88   119   118    1
    89   119   122    1
    90   127   126    1
    91    69    68    1
    92    29    28    2
    93   123   122    1
    94   123   124    1
    95    31    30    1
    96   126   128    1
    97   126   125    2
    98    32    28   am
    99    15    16    1
   100    28    27    1
   101    36    37    1
   102    68    70    1
   103    68    65    1
   104   124   125    1
   105    37    38    1
   106    37    40    1
   107    16    17    1
   108    38    39    2
   109    38    42   am
   110    42    43    1
   111    30    27    1
   112    62    61   ar
   113    43    44    1
   114    27    26    1
   115    40    41    1
   116    65    64    1
   117    65    66    1
   118    64    57   am
   119    61    60    1
   120    61    63   ar
   121    17    18    1
   122   117   116   ar
   123   117   115   ar
   124   116   114   ar
   125    59    60    1
   126    59    56    1
   127    44    45    2
   128    44    46   am
   129    66    67    2
   130   115   113   ar
   131   114   111   ar
   132    57    56    1
   133    57    58    2
   134    56    55    1
   135    46    47    1
   136   113   111   ar
   137   113   112   ar
   138   111   109   ar
   139    55    48   am
   140    78    76   am
   141   112   110   ar
   142   109   108    1
   143   109   110   ar
   144   108   105    1
   145    76    75    1
   146    76    77    2
   147    48    47    1
   148    48    49    2
   149    54    53    1
   150    47    50    1
   151    75    72    1
   152    86    84   ar
   153   103   101   am
   154   102   101    2
   155   106   105    1
   156   106   107    2
   157    50    51    1
   158   101   100    1
   159   105   104    1
   160    53    52    1
   161    51    52    1
   162    95    93   ar
   163    84    85   ar
   164    84    83    1
   165    74    73    2
   166    72    71    1
   167    72    73    1
   168    92    93    1
   169    92    91    1
   170    93    94   ar
   171   100    97    1
   172    83    80    1
   173    91    88    1
   174    97    96    1
   175    97    98    1
   176    80    81    1
   177    80    79    1
   178    81    82    2
   179    81    87   am
   180    99    98    2
   181    87    88    1
   182    88    89    1
   183    89    90    2
