@<TRIPOS>MOLECULE
tmp/4qhvA01.pdb
 161 154 0 0 0
SMALL
GASTEIGER

@<TRIPOS>ATOM
      1  N         -0.4020  -25.0760  -24.4180 N.3     7  ILE7       -0.1231
      2  CA        -0.8550  -24.0650  -23.4640 C.3     7  ILE7        0.1692
      3  C         -2.1430  -23.4390  -24.0140 C.2     7  ILE7        0.2592
      4  O         -2.2140  -23.1210  -25.1990 O.2     7  ILE7       -0.2718
      5  CB         0.2780  -23.0470  -23.1110 C.3     7  ILE7        0.0266
      6  CG1       -0.1610  -22.0820  -22.0020 C.3     7  ILE7        0.0019
      7  CG2        0.7510  -22.2130  -24.3130 C.3     7  ILE7        0.0020
      8  CD1        0.9390  -21.2680  -21.3830 C.3     7  ILE7        0.0001
      9  N         -3.1480  -23.2750  -23.1310 N.am    8  VAL8       -0.1966
     10  CA        -4.4520  -22.7250  -23.5730 C.3     8  VAL8        0.1727
     11  C         -5.1430  -22.0790  -22.3820 C.2     8  VAL8        0.2616
     12  O         -4.8220  -22.4110  -21.2330 O.2     8  VAL8       -0.2715
     13  CB        -5.3330  -23.8890  -24.0760 C.3     8  VAL8        0.0290
     14  CG1       -5.6950  -24.8430  -22.9070 C.3     8  VAL8        0.0023
     15  CG2       -6.5600  -23.3240  -24.8490 C.3     8  VAL8        0.0023
     16  N         -6.0020  -21.1180  -22.6870 N.am    9  ALA9       -0.1977
     17  CA        -6.9920  -20.5960  -21.7210 C.3     9  ALA9        0.1597
     18  C         -8.3870  -20.9470  -22.2560 C.2     9  ALA9        0.2287
     19  O         -8.6740  -20.7680  -23.4450 O.2     9  ALA9       -0.2864
     20  CB        -6.8170  -19.0670  -21.4900 C.3     9  ALA9        0.0319
     21  N        -10.2660  -13.4100  -28.2390 N.3    22  LEU22      -0.1245
     22  CA       -10.6240  -14.1810  -27.0410 C.3    22  LEU22       0.1561
     23  C        -12.0920  -13.9530  -26.6570 C.2    22  LEU22       0.2260
     24  O        -12.7140  -12.8930  -26.9500 O.2    22  LEU22      -0.2867
     25  CB        -9.5930  -13.9240  -25.9260 C.3    22  LEU22       0.0270
     26  CG        -8.1370  -14.5390  -26.1200 C.3    22  LEU22       0.0019
     27  CD1       -7.3960  -14.4650  -24.8020 C.3    22  LEU22       0.0001
     28  CD2       -8.0380  -15.9500  -26.7400 C.3    22  LEU22       0.0001
     29  N         -3.0190  -12.9050  -17.1680 N.3    30  GLU30      -0.1231
     30  CA        -3.0960  -14.1970  -17.8980 C.3    30  GLU30       0.1699
     31  C         -2.2090  -14.1540  -19.1270 C.2    30  GLU30       0.2592
     32  O         -1.4510  -15.1020  -19.3850 O.2    30  GLU30      -0.2718
     33  CB        -4.5510  -14.5280  -18.2370 C.3    30  GLU30       0.0402
     34  CG        -4.8090  -16.0230  -18.2160 C.3    30  GLU30       0.1161
     35  CD        -4.2410  -16.7890  -19.4460 C.2    30  GLU30       0.3649
     36  OE1       -3.6710  -17.8920  -19.2100 O.co2  30  GLU30      -0.2457
     37  OE2       -4.2960  -16.2980  -20.6160 O.co2  30  GLU30      -0.2457
     38  N         -2.2480  -13.0300  -19.8680 N.am   31  PHE31      -0.1976
     39  CA        -1.3190  -12.8430  -21.0010 C.3    31  PHE31       0.1639
     40  C          0.1290  -12.8690  -20.4890 C.2    31  PHE31       0.2290
     41  O          0.9560  -13.5030  -21.1560 O.2    31  PHE31      -0.2864
     42  CB        -1.5630  -11.4860  -21.7190 C.3    31  PHE31       0.0560
     43  CG        -2.6090  -11.5130  -22.7700 C.ar   31  PHE31      -0.0200
     44  CD1       -2.4360  -12.1620  -23.9810 C.ar   31  PHE31      -0.0042
     45  CD2       -3.8260  -10.7580  -22.5680 C.ar   31  PHE31      -0.0042
     46  CE1       -3.4850  -12.1030  -24.9580 C.ar   31  PHE31      -0.0003
     47  CE2       -4.8410  -10.7080  -23.5220 C.ar   31  PHE31      -0.0003
     48  CZ        -4.6850  -11.3850  -24.7240 C.ar   31  PHE31      -0.0000
     49  N          1.3550  -14.5170  -17.9690 N.3    33  TYR33      -0.1227
     50  CA         1.6060  -15.9320  -17.6690 C.3    33  TYR33       0.1736
     51  C          1.9260  -16.6790  -18.9510 C.2    33  TYR33       0.2595
     52  O          2.9240  -17.4510  -19.0180 O.2    33  TYR33      -0.2718
     53  CB         0.3890  -16.5610  -16.9980 C.3    33  TYR33       0.0548
     54  CG         0.4950  -18.0760  -16.8080 C.ar   33  TYR33      -0.0200
     55  CD1        1.2630  -18.5830  -15.7370 C.ar   33  TYR33      -0.0009
     56  CD2       -0.2140  -18.9820  -17.6480 C.ar   33  TYR33      -0.0009
     57  CE1        1.3610  -19.9760  -15.4780 C.ar   33  TYR33       0.0417
     58  CE2       -0.1170  -20.3750  -17.3900 C.ar   33  TYR33       0.0417
     59  CZ         0.6790  -20.8230  -16.3350 C.ar   33  TYR33       0.1957
     60  OH         0.7290  -22.1720  -16.1070 O.3    33  TYR33      -0.2866
     61  N          1.0700  -16.4990  -19.9570 N.am   34  PHE34      -0.1962
     62  CA         1.3140  -17.1240  -21.3040 C.3    34  PHE34       0.1771
     63  C          2.7000  -16.7430  -21.8340 C.2    34  PHE34       0.2619
     64  O          3.4700  -17.6050  -22.2730 O.2    34  PHE34      -0.2715
     65  CB         0.2520  -16.6390  -22.3070 C.3    34  PHE34       0.0574
     66  CG         0.5890  -16.9960  -23.7280 C.ar   34  PHE34      -0.0200
     67  CD1        0.3600  -18.2950  -24.1940 C.ar   34  PHE34      -0.0042
     68  CD2        1.2600  -16.0790  -24.6030 C.ar   34  PHE34      -0.0042
     69  CE1        0.6650  -18.6910  -25.5010 C.ar   34  PHE34      -0.0003
     70  CE2        1.5700  -16.4620  -25.9100 C.ar   34  PHE34      -0.0003
     71  CZ         1.2760  -17.7610  -26.3730 C.ar   34  PHE34      -0.0000
     72  N          3.0370  -15.4510  -21.6930 N.am   35  GLN35      -0.1977
     73  CA         4.3520  -14.9970  -22.2390 C.3    35  GLN35       0.1601
     74  C          5.4930  -15.6720  -21.4240 C.2    35  GLN35       0.2287
     75  O          6.4850  -16.1340  -21.9710 O.2    35  GLN35      -0.2864
     76  CB         4.4860  -13.4580  -22.1090 C.3    35  GLN35       0.0394
     77  CG         5.8870  -13.0500  -22.5430 C.3    35  GLN35       0.0908
     78  CD         6.0640  -11.5300  -22.7090 C.2    35  GLN35       0.2608
     79  OE1        7.0320  -11.0330  -23.3560 O.2    35  GLN35      -0.2717
     80  NE2        5.1620  -10.8030  -22.1400 N.am   35  GLN35      -0.0878
     81  N         -4.4480  -18.6720  -35.5880 N.3    56  THR56      -0.1218
     82  CA        -3.8880  -18.1810  -34.3040 C.3    56  THR56       0.1862
     83  C         -2.7990  -17.1190  -34.5370 C.2    56  THR56       0.2287
     84  O         -2.7460  -16.1000  -33.8470 O.2    56  THR56      -0.2866
     85  CB        -3.3640  -19.4110  -33.4990 C.3    56  THR56       0.1770
     86  OG1       -4.5120  -20.2860  -33.1320 O.3    56  THR56      -0.2211
     87  CG2       -2.6150  -18.9690  -32.2790 C.3    56  THR56       0.0375
     88  N         -4.3280  -13.9260  -35.2500 N.3    59  SER59      -0.1202
     89  CA        -5.0750  -13.4140  -34.0820 C.3    59  SER59       0.2020
     90  C         -4.1270  -12.5720  -33.1600 C.2    59  SER59       0.2619
     91  O         -4.5730  -11.8160  -32.2520 O.2    59  SER59      -0.2717
     92  CB        -5.8440  -14.5480  -33.3920 C.3    59  SER59       0.2103
     93  OG        -4.9460  -15.3240  -32.5420 O.3    59  SER59      -0.2182
     94  N         -2.8010  -12.6510  -33.3790 N.am   60  ILE60      -0.1966
     95  CA        -1.8690  -11.8850  -32.5260 C.3    60  ILE60       0.1712
     96  C         -1.6920  -10.5060  -33.1880 C.2    60  ILE60       0.2458
     97  O         -1.5520  -10.4670  -34.4090 O.2    60  ILE60      -0.2730
     98  CB        -0.4730  -12.6180  -32.4530 C.3    60  ILE60       0.0289
     99  CG1       -0.6090  -14.0290  -31.8650 C.3    60  ILE60       0.0022
    100  CG2        0.4770  -11.8360  -31.5520 C.3    60  ILE60       0.0023
    101  CD1        0.6080  -14.9050  -32.1500 C.3    60  ILE60       0.0001
    102  N         -1.7410   -9.4260  -32.4140 N.am   61  PRO61      -0.2727
    103  CA        -1.6540   -8.0940  -33.0470 C.3    61  PRO61       0.1402
    104  C         -0.3350   -8.0330  -33.7900 C.2    61  PRO61       0.2269
    105  O          0.6350   -8.5060  -33.2750 O.2    61  PRO61      -0.2865
    106  CB        -1.6260   -7.1800  -31.8500 C.3    61  PRO61       0.0296
    107  CG        -2.4640   -7.8960  -30.8240 C.3    61  PRO61       0.0237
    108  CD        -2.0340   -9.3440  -30.9740 C.3    61  PRO61       0.0939
    109  N          2.9940   -7.4880  -32.3080 N.3    64  ASN64      -0.1240
    110  CA         3.4390   -8.4250  -31.3400 C.3    64  ASN64       0.1653
    111  C          3.9230   -9.6810  -32.0100 C.2    64  ASN64       0.2266
    112  O          4.3730  -10.6010  -31.2880 O.2    64  ASN64      -0.2867
    113  CB         2.3550   -8.7480  -30.3160 C.3    64  ASN64       0.1155
    114  CG         2.0910   -7.5780  -29.3670 C.2    64  ASN64       0.2627
    115  OD1        3.0220   -7.0140  -28.7590 O.2    64  ASN64      -0.2716
    116  ND2        0.8160   -7.1830  -29.2600 N.am   64  ASN64      -0.0877
    117  N          6.1080  -13.6290  -31.8120 N.3    67  LEU67      -0.1245
    118  CA         6.1570  -13.5950  -30.3080 C.3    67  LEU67       0.1561
    119  C          7.6280  -13.4900  -29.9330 C.2    67  LEU67       0.2260
    120  O          8.4100  -14.4290  -30.3000 O.2    67  LEU67      -0.2867
    121  CB         5.5200  -14.8330  -29.7210 C.3    67  LEU67       0.0270
    122  CG         3.9920  -14.8730  -30.0530 C.3    67  LEU67       0.0019
    123  CD1        3.4420  -16.1990  -29.5430 C.3    67  LEU67       0.0001
    124  CD2        3.1860  -13.7600  -29.3750 C.3    67  LEU67       0.0001
    125  N         11.0500  -16.1310  -28.7730 N.3    70  ARG70      -0.1245
    126  CA        10.6900  -17.5000  -29.1230 C.3    70  ARG70       0.1563
    127  C         10.7850  -17.6600  -30.6430 C.2    70  ARG70       0.2260
    128  O         10.5570  -16.7130  -31.4030 O.2    70  ARG70      -0.2867
    129  CB         9.2100  -17.7830  -28.6920 C.3    70  ARG70       0.0307
    130  CG         9.0430  -17.8290  -27.1580 C.3    70  ARG70       0.0489
    131  CD         7.7090  -17.2530  -26.6920 C.3    70  ARG70       0.2205
    132  NE         7.6530  -15.7730  -26.8050 N.pl3  70  ARG70      -0.0865
    133  CZ         6.6260  -15.0150  -26.3870 C.cat  70  ARG70       0.5346
    134  NH1        5.4440  -15.5840  -25.9280 N.pl3  70  ARG70       0.1354
    135  NH2        6.7530  -13.7210  -26.4640 N.pl3  70  ARG70       0.1354
    136  N          0.3870  -23.5440  -29.2180 N.3   115  VAL115     -0.1245
    137  CA        -0.3720  -22.3950  -28.6540 C.3   115  VAL115      0.1561
    138  C         -1.6930  -22.1950  -29.3900 C.2   115  VAL115      0.2260
    139  O         -2.3240  -21.1350  -29.1020 O.2   115  VAL115     -0.2867
    140  CB         0.4630  -21.0940  -28.6530 C.3   115  VAL115      0.0252
    141  CG1        1.6910  -21.2700  -27.7870 C.3   115  VAL115      0.0019
    142  CG2        0.8570  -20.6400  -30.0690 C.3   115  VAL115      0.0019
    143  N         -4.3290  -28.4610  -31.3200 N.3   121  TYR121     -0.1241
    144  CA        -4.4840  -29.1070  -29.9950 C.3   121  TYR121      0.1605
    145  C         -4.9680  -30.5310  -30.1240 C.2   121  TYR121      0.2264
    146  O         -4.3840  -31.4250  -29.4290 O.2   121  TYR121     -0.2867
    147  CB        -5.4980  -28.3430  -29.1320 C.3   121  TYR121      0.0534
    148  CG        -5.0550  -26.9580  -28.6660 C.ar  121  TYR121     -0.0201
    149  CD1       -3.7910  -26.7590  -28.0860 C.ar  121  TYR121     -0.0009
    150  CD2       -5.9120  -25.8850  -28.7570 C.ar  121  TYR121     -0.0009
    151  CE1       -3.4470  -25.5180  -27.6030 C.ar  121  TYR121      0.0417
    152  CE2       -5.5610  -24.6180  -28.3160 C.ar  121  TYR121      0.0417
    153  CZ        -4.3360  -24.4610  -27.7170 C.ar  121  TYR121      0.1957
    154  OH        -4.0490  -23.1890  -27.2250 O.3   121  TYR121     -0.2866
    155  N         -5.4480  -22.8110  -18.4790 N.3   136  THR136     -0.1218
    156  CA        -6.0000  -21.7810  -17.5550 C.3   136  THR136      0.1862
    157  C         -7.5320  -21.9570  -17.6670 C.2   136  THR136      0.2287
    158  O         -8.1220  -21.8500  -18.7560 O.2   136  THR136     -0.2866
    159  CB        -5.6380  -20.3690  -18.0230 C.3   136  THR136      0.1770
    160  OG1       -4.2270  -20.2270  -18.0440 O.3   136  THR136     -0.2211
    161  CG2       -6.2500  -19.3770  -16.9680 C.3   136  THR136      0.0375
@<TRIPOS>BOND
     1    81    82    1
     2    88    89    1
     3    83    82    1
     4    83    84    2
     5    97    96    2
     6    82    85    1
     7    89    92    1
     8    89    90    1
     9   104   105    2
    10   104   103    1
    11    85    86    1
    12    85    87    1
    13    92    93    1
    14    94    90   am
    15    94    95    1
    16    96    95    1
    17    96   102   am
    18    90    91    2
    19   103   102    1
    20   103   106    1
    21    95    98    1
    22    98    99    1
    23    98   100    1
    24   102   108    1
    25   109   110    1
    26   101    99    1
    27   111   110    1
    28   111   112    2
    29   106   107    1
    30   117   118    1
    31   128   127    2
    32   110   113    1
    33   143   144    1
    34   108   107    1
    35   127   126    1
    36   113   114    1
    37   118   119    1
    38   118   121    1
    39   120   119    2
    40   145   144    1
    41   145   146    2
    42   142   140    1
    43   122   121    1
    44   122   123    1
    45   122   124    1
    46   144   147    1
    47   138   139    2
    48   138   137    1
    49   114   116   am
    50   114   115    2
    51   136   137    1
    52   147   148    1
    53   126   125    1
    54   126   129    1
    55   150   148   ar
    56   150   152   ar
    57   129   130    1
    58   148   149   ar
    59   137   140    1
    60   140   141    1
    61   152   153   ar
    62    21    22    1
    63   149   151   ar
    64   153   151   ar
    65   153   154    1
    66   130   131    1
    67    22    23    1
    68    22    25    1
    69    24    23    2
    70   132   131    1
    71   132   133    2
    72    28    26    1
    73   135   133    1
    74   133   134    1
    75    71    70   ar
    76    71    69   ar
    77    26    25    1
    78    26    27    1
    79    70    68   ar
    80    69    67   ar
    81     4     3    2
    82    46    48   ar
    83    46    44   ar
    84    15    13    1
    85    48    47   ar
    86    68    66   ar
    87     1     2    1
    88     7     5    1
    89    67    66   ar
    90    13    10    1
    91    13    14    1
    92     3     2    1
    93     3     9   am
    94    44    43   ar
    95    66    65    1
    96    10     9    1
    97    10    11    1
    98    47    45   ar
    99     2     5    1
   100    19    18    2
   101    79    78    2
   102     5     6    1
   103    43    45   ar
   104    43    42    1
   105    78    77    1
   106    78    80   am
   107    16    11   am
   108    16    17    1
   109    77    76    1
   110    11    12    2
   111    65    62    1
   112    64    63    2
   113    18    17    1
   114    73    76    1
   115    73    72    1
   116    73    74    1
   117     6     8    1
   118    75    74    2
   119    63    72   am
   120    63    62    1
   121    17    20    1
   122    42    39    1
   123    62    61    1
   124    41    40    2
   125    39    40    1
   126    39    38    1
   127    37    35   ar
   128    61    51   am
   129    38    31   am
   130    35    36   ar
   131    35    34    1
   132    32    31    2
   133    31    30    1
   134    52    51    2
   135    51    50    1
   136   158   157    2
   137   155   156    1
   138    33    34    1
   139    33    30    1
   140   160   159    1
   141   159   156    1
   142   159   161    1
   143    49    50    1
   144    30    29    1
   145    50    53    1
   146   157   156    1
   147    56    58   ar
   148    56    54   ar
   149    58    59   ar
   150    53    54    1
   151    54    55   ar
   152    59    60    1
   153    59    57   ar
   154    55    57   ar
