@<TRIPOS>MOLECULE
tmp/4qi1B01.pdb
 188 184 0 0 0
SMALL
GASTEIGER

@<TRIPOS>ATOM
      1  N         16.8600  -21.8510   36.1950 N.3    81  TYR81      -0.1241
      2  CA        16.0540  -20.9660   35.3630 C.3    81  TYR81       0.1605
      3  C         16.8860  -20.0130   34.5580 C.2    81  TYR81       0.2264
      4  O         16.5820  -19.6960   33.4130 O.2    81  TYR81      -0.2867
      5  CB        15.0060  -20.2240   36.2330 C.3    81  TYR81       0.0534
      6  CG        14.0420  -21.2080   36.8370 C.ar   81  TYR81      -0.0201
      7  CD1       14.3740  -21.9190   37.9800 C.ar   81  TYR81      -0.0009
      8  CD2       12.8270  -21.5380   36.1940 C.ar   81  TYR81      -0.0009
      9  CE1       13.5390  -22.8790   38.5190 C.ar   81  TYR81       0.0417
     10  CE2       11.9630  -22.4790   36.7590 C.ar   81  TYR81       0.0417
     11  CZ        12.3350  -23.1720   37.8770 C.ar   81  TYR81       0.1957
     12  OH        11.5230  -24.1350   38.4820 O.3    81  TYR81      -0.2866
     13  N         18.1540  -22.2560   31.7360 N.3    84  TRP84      -0.1241
     14  CA        17.0890  -22.5420   30.8310 C.3    84  TRP84       0.1605
     15  C         16.6340  -21.3310   29.9900 C.2    84  TRP84       0.2264
     16  O         16.1890  -21.4990   28.8270 O.2    84  TRP84      -0.2867
     17  CB        15.9020  -23.0990   31.5960 C.3    84  TRP84       0.0550
     18  CG        16.1120  -24.4360   32.2890 C.ar   84  TRP84       0.0003
     19  CD1       17.0790  -25.3800   32.0020 C.ar   84  TRP84       0.0946
     20  CD2       15.2970  -25.0340   33.3400 C.ar   84  TRP84       0.0152
     21  NE1       16.9140  -26.4750   32.8070 N.ar   84  TRP84      -0.2442
     22  CE2       15.8390  -26.3030   33.6260 C.ar   84  TRP84       0.0810
     23  CE3       14.1710  -24.6050   34.0560 C.ar   84  TRP84       0.0012
     24  CZ2       15.3070  -27.1590   34.5710 C.ar   84  TRP84       0.0191
     25  CZ3       13.6230  -25.4650   35.0350 C.ar   84  TRP84       0.0001
     26  CH2       14.2560  -26.7130   35.3240 C.ar   84  TRP84       0.0015
     27  N         19.3330  -21.3640   27.2560 N.3    87  THR87      -0.1203
     28  CA        19.5010  -22.6430   26.5250 C.3    87  THR87       0.1994
     29  C         18.2370  -23.1280   25.7800 C.2    87  THR87       0.2618
     30  O         18.3400  -23.6860   24.6730 O.2    87  THR87      -0.2717
     31  CB        20.0630  -23.7880   27.3850 C.3    87  THR87       0.1784
     32  OG1       19.1440  -24.0990   28.4550 O.3    87  THR87      -0.2211
     33  CG2       21.3930  -23.4180   27.9380 C.3    87  THR87       0.0376
     34  N         17.0630  -22.9680   26.3580 N.am   88  THR88      -0.1952
     35  CA        15.8410  -23.3430   25.5900 C.3    88  THR88       0.1897
     36  C         15.5820  -22.5020   24.2870 C.2    88  THR88       0.2313
     37  O         15.2990  -23.0840   23.2270 O.2    88  THR88      -0.2863
     38  CB        14.6200  -23.5620   26.5200 C.3    88  THR88       0.1794
     39  OG1       14.2350  -22.3370   27.1710 O.3    88  THR88      -0.2208
     40  CG2       14.9590  -24.5740   27.5790 C.3    88  THR88       0.0378
     41  N         18.2200  -23.9590   21.8120 N.3    91  LEU91      -0.1245
     42  CA        17.7540  -25.2710   21.2890 C.3    91  LEU91       0.1561
     43  C         16.7500  -25.0580   20.2300 C.2    91  LEU91       0.2260
     44  O         16.7860  -25.7850   19.2130 O.2    91  LEU91      -0.2867
     45  CB        17.2230  -26.2150   22.3720 C.3    91  LEU91       0.0270
     46  CG        18.3380  -26.7280   23.3460 C.3    91  LEU91       0.0019
     47  CD1       17.8420  -27.1330   24.7660 C.3    91  LEU91       0.0001
     48  CD2       19.1380  -27.9260   22.8170 C.3    91  LEU91       0.0001
     49  N          7.1240  -19.3100   29.1280 N.3   116  MET116     -0.1230
     50  CA         7.1130  -20.5910   29.9150 C.3   116  MET116      0.1702
     51  C          8.1470  -20.6370   30.9960 C.2   116  MET116      0.2592
     52  O          7.8360  -20.9250   32.1620 O.2   116  MET116     -0.2718
     53  CB         7.3410  -21.7780   29.0130 C.3   116  MET116      0.0401
     54  CG         7.4970  -23.1550   29.6580 C.3   116  MET116      0.0596
     55  SD         7.9080  -24.3690   28.3660 S.3   116  MET116     -0.1393
     56  CE         9.6480  -24.0190   28.1750 C.3   116  MET116      0.0692
     57  N          9.4010  -20.2640   30.6750 N.am  117  ILE117     -0.1980
     58  CA        10.4370  -20.2990   31.7040 C.3   117  ILE117      0.1595
     59  C         10.2150  -19.2780   32.8420 C.2   117  ILE117      0.2287
     60  O         10.3350  -19.6250   34.0660 O.2   117  ILE117     -0.2864
     61  CB        11.8510  -20.0530   31.1010 C.3   117  ILE117      0.0276
     62  CG1       12.1950  -21.1300   30.0920 C.3   117  ILE117      0.0022
     63  CG2       12.8840  -20.0480   32.2030 C.3   117  ILE117      0.0022
     64  CD1       12.0680  -22.5660   30.5740 C.3   117  ILE117      0.0001
     65  N          7.4370  -20.2160   35.0190 N.3   120  GLY120     -0.1225
     66  CA         7.9460  -21.3150   35.8590 C.3   120  GLY120      0.1811
     67  C          8.8190  -20.8330   37.0290 C.2   120  GLY120      0.2280
     68  O          8.7070  -21.3530   38.1420 O.2   120  GLY120     -0.2866
     69  N          6.4310  -19.5010   39.6910 N.3   123  ALA123     -0.1245
     70  CA         5.8450  -20.6830   40.3590 C.3   123  ALA123      0.1562
     71  C          6.7520  -21.2360   41.4790 C.2   123  ALA123      0.2260
     72  O          6.2850  -21.7110   42.5750 O.2   123  ALA123     -0.2867
     73  CB         5.5510  -21.7910   39.3350 C.3   123  ALA123      0.0290
     74  N          2.4870  -22.7900   37.7720 N.3   136  TRP136     -0.1241
     75  CA         2.8900  -24.0680   37.1620 C.3   136  TRP136      0.1605
     76  C          1.8990  -24.3910   36.0380 C.2   136  TRP136      0.2264
     77  O          2.2730  -24.8690   34.9330 O.2   136  TRP136     -0.2867
     78  CB         2.9000  -25.1830   38.2230 C.3   136  TRP136      0.0550
     79  CG         3.1890  -26.5150   37.6300 C.ar  136  TRP136      0.0003
     80  CD1        4.3920  -27.0470   37.3690 C.ar  136  TRP136      0.0946
     81  CD2        2.2040  -27.4600   37.0940 C.ar  136  TRP136      0.0152
     82  NE1        4.2530  -28.2970   36.7850 N.ar  136  TRP136     -0.2442
     83  CE2        2.9130  -28.5750   36.6310 C.ar  136  TRP136      0.0810
     84  CE3        0.8000  -27.4850   37.0580 C.ar  136  TRP136      0.0012
     85  CZ2        2.2880  -29.7150   36.0670 C.ar  136  TRP136      0.0191
     86  CZ3        0.1700  -28.6270   36.5020 C.ar  136  TRP136      0.0001
     87  CH2        0.9310  -29.6940   35.9630 C.ar  136  TRP136      0.0015
     88  N          2.4430  -22.0310   33.0450 N.3   139  SER139     -0.1202
     89  CA         3.6530  -22.4040   32.3660 C.3   139  SER139      0.2020
     90  C          3.4680  -23.6760   31.5200 C.2   139  SER139      0.2619
     91  O          3.8750  -23.7630   30.3440 O.2   139  SER139     -0.2717
     92  CB         4.7510  -22.5520   33.4270 C.3   139  SER139      0.2103
     93  OG         5.9940  -22.9070   32.8090 O.3   139  SER139     -0.2182
     94  N          2.7830  -24.6340   32.0970 N.am  140  THR140     -0.1952
     95  CA         2.4750  -25.8880   31.3960 C.3   140  THR140      0.1897
     96  C          1.6160  -25.6810   30.1970 C.2   140  THR140      0.2313
     97  O          1.8670  -26.3540   29.1830 O.2   140  THR140     -0.2863
     98  CB         1.8930  -26.9380   32.3750 C.3   140  THR140      0.1794
     99  OG1        2.8280  -27.1450   33.4370 O.3   140  THR140     -0.2208
    100  CG2        1.5310  -28.2980   31.7260 C.3   140  THR140      0.0378
    101  N          3.8120  -24.4000   27.5890 N.3   143  MET143     -0.1245
    102  CA         4.5920  -25.5640   27.0810 C.3   143  MET143      0.1570
    103  C          3.8480  -26.3810   26.0020 C.2   143  MET143      0.2261
    104  O          4.3900  -26.6780   24.9420 O.2   143  MET143     -0.2867
    105  CB         5.0110  -26.5190   28.1520 C.3   143  MET143      0.0387
    106  CG         6.0800  -27.4950   27.6940 C.3   143  MET143      0.0595
    107  SD         6.4890  -28.8450   28.7790 S.3   143  MET143     -0.1393
    108  CE         4.9390  -29.6780   28.9120 C.3   143  MET143      0.0692
    109  N         11.1140  -32.5800   27.0940 N.3   180  TRP180     -0.1241
    110  CA        10.6160  -31.3410   27.5770 C.3   180  TRP180      0.1605
    111  C          9.3140  -31.5220   28.3390 C.2   180  TRP180      0.2264
    112  O          9.1710  -30.9420   29.4350 O.2   180  TRP180     -0.2867
    113  CB        10.4510  -30.3220   26.5160 C.3   180  TRP180      0.0550
    114  CG        11.7310  -29.7910   25.9550 C.ar  180  TRP180      0.0003
    115  CD1       12.9020  -30.4660   25.7470 C.ar  180  TRP180      0.0946
    116  CD2       11.9500  -28.4400   25.4480 C.ar  180  TRP180      0.0152
    117  NE1       13.8160  -29.6320   25.1440 N.ar  180  TRP180     -0.2442
    118  CE2       13.2520  -28.3910   24.9540 C.ar  180  TRP180      0.0810
    119  CE3       11.1740  -27.2730   25.4210 C.ar  180  TRP180      0.0012
    120  CZ2       13.8080  -27.2260   24.4220 C.ar  180  TRP180      0.0191
    121  CZ3       11.7500  -26.0850   24.8400 C.ar  180  TRP180      0.0001
    122  CH2       13.0190  -26.1010   24.3410 C.ar  180  TRP180      0.0015
    123  N          9.6060  -32.2020   32.2130 N.3   183  TYR183     -0.1228
    124  CA         9.9890  -31.1700   33.1180 C.3   183  TYR183      0.1721
    125  C          8.8700  -30.7000   34.1060 C.2   183  TYR183      0.2437
    126  O          9.1540  -30.7020   35.3370 O.2   183  TYR183     -0.2733
    127  CB        10.6630  -30.0310   32.4180 C.3   183  TYR183      0.0547
    128  CG        12.1250  -30.2550   32.0420 C.ar  183  TYR183     -0.0200
    129  CD1       12.4120  -30.9470   30.8950 C.ar  183  TYR183     -0.0009
    130  CD2       13.1900  -29.6930   32.7770 C.ar  183  TYR183     -0.0009
    131  CE1       13.7090  -31.1270   30.4530 C.ar  183  TYR183      0.0417
    132  CE2       14.5030  -29.8920   32.3760 C.ar  183  TYR183      0.0417
    133  CZ        14.7420  -30.6100   31.1910 C.ar  183  TYR183      0.1957
    134  OH        16.0060  -30.8130   30.6510 O.3   183  TYR183     -0.2866
    135  N          7.6370  -30.4390   33.6300 N.am  184  PRO184     -0.2729
    136  CA         6.5780  -29.9880   34.5690 C.3   184  PRO184      0.1401
    137  C          6.1830  -31.0770   35.5180 C.2   184  PRO184      0.2269
    138  O          5.8530  -30.7580   36.6630 O.2   184  PRO184     -0.2865
    139  CB         5.4030  -29.6330   33.6720 C.3   184  PRO184      0.0296
    140  CG         5.7700  -30.2230   32.3710 C.3   184  PRO184      0.0237
    141  CD         7.2260  -30.1740   32.2560 C.3   184  PRO184      0.0939
    142  N          8.7750  -31.0550   38.2440 N.3   187  TRP187     -0.1241
    143  CA         8.5150  -29.9590   39.1940 C.3   187  TRP187      0.1605
    144  C          7.3810  -30.3470   40.1740 C.2   187  TRP187      0.2264
    145  O          7.4910  -30.1280   41.3840 O.2   187  TRP187     -0.2867
    146  CB         8.1930  -28.6820   38.4120 C.3   187  TRP187      0.0550
    147  CG         8.0340  -27.4190   39.2110 C.ar  187  TRP187      0.0003
    148  CD1        8.9670  -26.4310   39.3510 C.ar  187  TRP187      0.0946
    149  CD2        6.9110  -27.0100   39.9960 C.ar  187  TRP187      0.0152
    150  NE1        8.4340  -25.4250   40.1070 N.ar  187  TRP187     -0.2442
    151  CE2        7.1960  -25.7480   40.5170 C.ar  187  TRP187      0.0810
    152  CE3        5.6420  -27.5520   40.2530 C.ar  187  TRP187      0.0012
    153  CZ2        6.2910  -25.0620   41.3610 C.ar  187  TRP187      0.0191
    154  CZ3        4.7430  -26.8240   41.0150 C.ar  187  TRP187      0.0001
    155  CH2        5.0810  -25.6010   41.5570 C.ar  187  TRP187      0.0015
    156  N         16.2090  -33.9500   37.0590 N.3   206  PHE206     -0.1241
    157  CA        16.6140  -32.7960   36.1720 C.3   206  PHE206      0.1605
    158  C         18.0130  -33.0170   35.5240 C.2   206  PHE206      0.2264
    159  O         18.2630  -32.6460   34.3630 O.2   206  PHE206     -0.2867
    160  CB        16.6130  -31.4850   36.9550 C.3   206  PHE206      0.0534
    161  CG        15.2300  -30.9450   37.2250 C.ar  206  PHE206     -0.0203
    162  CD1       14.4250  -30.6010   36.2160 C.ar  206  PHE206     -0.0042
    163  CD2       14.7640  -30.7840   38.5200 C.ar  206  PHE206     -0.0042
    164  CE1       13.1290  -30.1310   36.4210 C.ar  206  PHE206     -0.0003
    165  CE2       13.4740  -30.2990   38.7480 C.ar  206  PHE206     -0.0003
    166  CZ        12.6560  -29.9500   37.6970 C.ar  206  PHE206     -0.0000
    167  N         18.2610  -32.8800   31.5710 N.3   210  ASP210     -0.1239
    168  CA        19.1430  -31.8570   31.0080 C.3   210  ASP210      0.1674
    169  C         20.2200  -32.4670   30.0880 C.2   210  ASP210      0.2266
    170  O         20.5070  -31.9180   29.0010 O.2   210  ASP210     -0.2867
    171  CB        19.8320  -31.0850   32.1270 C.3   210  ASP210      0.1410
    172  CG        18.9510  -29.9970   32.7660 C.2   210  ASP210      0.3668
    173  OD1       17.8610  -29.6590   32.2350 O.co2 210  ASP210     -0.2456
    174  OD2       19.3360  -29.5170   33.8850 O.co2 210  ASP210     -0.2456
    175  N         18.4720  -33.5830   26.8460 N.3   213  ALA213     -0.1231
    176  CA        17.9610  -32.4180   26.0910 C.3   213  ALA213      0.1694
    177  C         19.0420  -31.5750   25.5230 C.2   213  ALA213      0.2591
    178  O         18.8240  -30.8470   24.5510 O.2   213  ALA213     -0.2718
    179  CB        17.0870  -31.5200   26.9760 C.3   213  ALA213      0.0304
    180  N         20.2440  -31.6830   26.0860 N.am  214  LYS214     -0.1980
    181  CA        21.3330  -30.8380   25.6070 C.3   214  LYS214      0.1596
    182  C         22.4460  -31.6340   24.8950 C.2   214  LYS214      0.2287
    183  O         22.7590  -31.3780   23.6910 O.2   214  LYS214     -0.2864
    184  CB        21.8380  -29.9750   26.7410 C.3   214  LYS214      0.0298
    185  CG        20.7330  -29.0810   27.3270 C.3   214  LYS214      0.0038
    186  CD        21.3140  -28.1670   28.3650 C.3   214  LYS214      0.0206
    187  CE        20.3440  -27.2120   28.9600 C.3   214  LYS214      0.1093
    188  NZ        18.9860  -27.6660   29.1760 N.3   214  LYS214     -0.1314
@<TRIPOS>BOND
     1    44    43    2
     2    43    42    1
     3    42    41    1
     4    42    45    1
     5    45    46    1
     6    48    46    1
     7    37    36    2
     8    46    47    1
     9   183   182    2
    10    36    35    1
    11   122   120   ar
    12   122   121   ar
    13   120   118   ar
    14   178   177    2
    15    30    29    2
    16   121   119   ar
    17   182   181    1
    18   104   103    2
    19   118   117   ar
    20   118   116   ar
    21   117   115   ar
    22   119   116   ar
    23   116   114   ar
    24   177   180   am
    25   177   176    1
    26    35    34    1
    27    35    38    1
    28   181   180    1
    29   181   184    1
    30   115   114   ar
    31    29    34   am
    32    29    28    1
    33   114   113    1
    34   103   102    1
    35   176   175    1
    36   176   179    1
    37   113   110    1
    38    38    39    1
    39    38    40    1
    40    28    27    1
    41    28    31    1
    42   184   185    1
    43   102   101    1
    44   102   105    1
    45   109   110    1
    46   185   186    1
    47    31    33    1
    48    31    32    1
    49   110   111    1
    50   106   105    1
    51   106   107    1
    52    56    55    1
    53   111   112    2
    54   186   187    1
    55    55    54    1
    56   107   108    1
    57    16    15    2
    58   187   188    1
    59   170   169    2
    60    53    54    1
    61    53    50    1
    62    49    50    1
    63    97    96    2
    64    50    51    1
    65    15    14    1
    66   169   168    1
    67    62    64    1
    68    62    61    1
    69    96    95    1
    70    91    90    2
    71   131   129   ar
    72   131   133   ar
    73   134   133    1
    74    57    51   am
    75    57    58    1
    76    14    17    1
    77    14    13    1
    78   129   128   ar
    79    51    52    2
    80   168   167    1
    81   168   171    1
    82    61    58    1
    83    61    63    1
    84   133   132   ar
    85    95    94    1
    86    95    98    1
    87    90    94   am
    88    90    89    1
    89    17    18    1
    90    58    59    1
    91   100    98    1
    92    19    18   ar
    93    19    21   ar
    94   128   127    1
    95   128   130   ar
    96   171   172    1
    97   123   124    1
    98   173   172   ar
    99   141   140    1
   100   141   135    1
   101    18    20   ar
   102    89    88    1
   103    89    92    1
   104   140   139    1
   105    98    99    1
   106   132   130   ar
   107   127   124    1
   108   172   174   ar
   109    21    22   ar
   110    93    92    1
   111    59    60    2
   112   124   125    1
   113    20    22   ar
   114    20    23   ar
   115     4     3    2
   116    22    24   ar
   117   135   125   am
   118   135   136    1
   119   139   136    1
   120    23    25   ar
   121   125   126    2
   122   159   158    2
   123     3     2    1
   124   136   137    1
   125    24    26   ar
   126    77    76    2
   127    65    66    1
   128    25    26   ar
   129     2     1    1
   130     2     5    1
   131   137   138    2
   132   158   157    1
   133    66    67    1
   134    87    85   ar
   135    87    86   ar
   136    76    75    1
   137    85    83   ar
   138   157   160    1
   139   157   156    1
   140     8    10   ar
   141     8     6   ar
   142   162   164   ar
   143   162   161   ar
   144     5     6    1
   145   164   166   ar
   146    86    84   ar
   147    83    82   ar
   148    83    81   ar
   149    10    11   ar
   150    82    80   ar
   151     6     7   ar
   152   160   161    1
   153    67    68    2
   154    84    81   ar
   155    81    79   ar
   156    75    74    1
   157    75    78    1
   158   161   163   ar
   159    80    79   ar
   160    79    78    1
   161   166   165   ar
   162    11    12    1
   163    11     9   ar
   164     7     9   ar
   165   142   143    1
   166   146   143    1
   167   146   147    1
   168   163   165   ar
   169   143   144    1
   170   147   148   ar
   171   147   149   ar
   172    73    70    1
   173   148   150   ar
   174    69    70    1
   175   149   152   ar
   176   149   151   ar
   177   150   151   ar
   178   144   145    2
   179   152   154   ar
   180    70    71    1
   181   151   153   ar
   182   154   155   ar
   183   153   155   ar
   184    71    72    2
