@<TRIPOS>MOLECULE
tmp/4qi1B03.pdb
 120 117 0 0 0
SMALL
GASTEIGER

@<TRIPOS>ATOM
      1  N         18.6360  -20.8790   47.1090 N.3    64  THR64      -0.1203
      2  CA        18.0440  -20.0680   48.1770 C.3    64  THR64       0.1994
      3  C         17.0130  -20.9470   48.9080 C.2    64  THR64       0.2618
      4  O         16.3730  -21.8330   48.3020 O.2    64  THR64      -0.2717
      5  CB        17.3120  -18.8060   47.6300 C.3    64  THR64       0.1784
      6  OG1       18.1840  -17.9770   46.8210 O.3    64  THR64      -0.2211
      7  CG2       16.8080  -17.9800   48.7490 C.3    64  THR64       0.0376
      8  N         16.8400  -20.7280   50.2080 N.am   65  GLU65      -0.1965
      9  CA        15.6960  -21.3550   50.9000 C.3    65  GLU65       0.1733
     10  C         14.4710  -20.4460   50.7550 C.2    65  GLU65       0.2616
     11  O         14.5970  -19.2250   50.8530 O.2    65  GLU65      -0.2715
     12  CB        15.9730  -21.5510   52.3740 C.3    65  GLU65       0.0429
     13  CG        17.0250  -22.5870   52.6650 C.3    65  GLU65       0.1163
     14  CD        16.8130  -23.2070   54.0320 C.2    65  GLU65       0.3649
     15  OE1       16.6220  -22.4330   55.0010 O.co2  65  GLU65      -0.2457
     16  OE2       16.8170  -24.4600   54.1280 O.co2  65  GLU65      -0.2457
     17  N         13.3030  -21.0310   50.5540 N.am   66  VAL66      -0.1977
     18  CA        12.0460  -20.2640   50.4900 C.3    66  VAL66       0.1596
     19  C         11.0350  -20.8680   51.4980 C.2    66  VAL66       0.2287
     20  O         10.7550  -22.0450   51.4250 O.2    66  VAL66      -0.2864
     21  CB        11.4230  -20.2980   49.0870 C.3    66  VAL66       0.0276
     22  CG1       10.1470  -19.4260   49.0450 C.3    66  VAL66       0.0022
     23  CG2       12.4320  -19.8530   48.0270 C.3    66  VAL66       0.0022
     24  N         17.5120  -21.8630   41.9890 N.3    78  TRP78      -0.1241
     25  CA        17.1110  -20.9430   40.9720 C.3    78  TRP78       0.1605
     26  C         18.0600  -20.7870   39.8190 C.2    78  TRP78       0.2264
     27  O         17.5880  -20.3310   38.7220 O.2    78  TRP78      -0.2867
     28  CB        16.7020  -19.5550   41.4890 C.3    78  TRP78       0.0550
     29  CG        17.6430  -18.9190   42.3620 C.ar   78  TRP78       0.0003
     30  CD1       17.6280  -18.9580   43.7820 C.ar   78  TRP78       0.0946
     31  CD2       18.7610  -18.1060   42.0060 C.ar   78  TRP78       0.0152
     32  NE1       18.6460  -18.1980   44.2640 N.ar   78  TRP78      -0.2442
     33  CE2       19.3810  -17.6990   43.2120 C.ar   78  TRP78       0.0810
     34  CE3       19.3100  -17.6730   40.7840 C.ar   78  TRP78       0.0012
     35  CZ2       20.5240  -16.8690   43.2250 C.ar   78  TRP78       0.0191
     36  CZ3       20.4810  -16.8740   40.8300 C.ar   78  TRP78       0.0001
     37  CH2       21.0210  -16.4570   42.0310 C.ar   78  TRP78       0.0015
     38  N         16.8600  -21.8510   36.1950 N.3    81  TYR81      -0.1227
     39  CA        16.0540  -20.9660   35.3630 C.3    81  TYR81       0.1736
     40  C         16.8860  -20.0130   34.5580 C.2    81  TYR81       0.2595
     41  O         16.5820  -19.6960   33.4130 O.2    81  TYR81      -0.2718
     42  CB        15.0060  -20.2240   36.2330 C.3    81  TYR81       0.0548
     43  CG        14.0420  -21.2080   36.8370 C.ar   81  TYR81      -0.0200
     44  CD1       14.3740  -21.9190   37.9800 C.ar   81  TYR81      -0.0009
     45  CD2       12.8270  -21.5380   36.1940 C.ar   81  TYR81      -0.0009
     46  CE1       13.5390  -22.8790   38.5190 C.ar   81  TYR81       0.0417
     47  CE2       11.9630  -22.4790   36.7590 C.ar   81  TYR81       0.0417
     48  CZ        12.3350  -23.1720   37.8770 C.ar   81  TYR81       0.1957
     49  OH        11.5230  -24.1350   38.4820 O.3    81  TYR81      -0.2866
     50  N         17.9660  -19.5270   35.1630 N.am   82  ALA82      -0.1980
     51  CA        18.8910  -18.6580   34.4460 C.3    82  ALA82       0.1597
     52  C         19.4200  -19.3990   33.2340 C.2    82  ALA82       0.2287
     53  O         19.3700  -18.8600   32.1110 O.2    82  ALA82      -0.2864
     54  CB        20.0270  -18.1980   35.3620 C.3    82  ALA82       0.0319
     55  N         16.6570  -20.1340   30.5720 N.3    85  LEU85      -0.1231
     56  CA        16.1720  -18.9340   29.8780 C.3    85  LEU85       0.1693
     57  C         16.9310  -18.6920   28.5840 C.2    85  LEU85       0.2592
     58  O         16.3950  -18.0860   27.6690 O.2    85  LEU85      -0.2718
     59  CB        16.3550  -17.7230   30.7710 C.3    85  LEU85       0.0284
     60  CG        15.6390  -16.4530   30.3940 C.3    85  LEU85       0.0019
     61  CD1       14.1500  -16.6290   30.2190 C.3    85  LEU85       0.0001
     62  CD2       15.9090  -15.4210   31.5040 C.3    85  LEU85       0.0001
     63  N         18.2050  -19.1080   28.5610 N.am   86  PHE86      -0.1976
     64  CA        19.0590  -18.9410   27.4280 C.3    86  PHE86       0.1639
     65  C         19.2530  -20.2120   26.6050 C.2    86  PHE86       0.2290
     66  O         19.3080  -20.1390   25.3700 O.2    86  PHE86      -0.2864
     67  CB        20.4040  -18.4200   27.9000 C.3    86  PHE86       0.0560
     68  CG        20.3320  -17.0260   28.5000 C.ar   86  PHE86      -0.0200
     69  CD1       20.0850  -15.9080   27.6830 C.ar   86  PHE86      -0.0042
     70  CD2       20.4670  -16.8500   29.8620 C.ar   86  PHE86      -0.0042
     71  CE1       20.0040  -14.6350   28.2330 C.ar   86  PHE86      -0.0003
     72  CE2       20.3930  -15.5810   30.4170 C.ar   86  PHE86      -0.0003
     73  CZ        20.1560  -14.4800   29.6020 C.ar   86  PHE86      -0.0000
     74  N          9.4010  -20.2640   30.6750 N.3   117  ILE117     -0.1231
     75  CA        10.4370  -20.2990   31.7040 C.3   117  ILE117      0.1692
     76  C         10.2150  -19.2780   32.8420 C.2   117  ILE117      0.2591
     77  O         10.3350  -19.6250   34.0660 O.2   117  ILE117     -0.2718
     78  CB        11.8510  -20.0530   31.1010 C.3   117  ILE117      0.0266
     79  CG1       12.1950  -21.1300   30.0920 C.3   117  ILE117      0.0019
     80  CG2       12.8840  -20.0480   32.2030 C.3   117  ILE117      0.0020
     81  CD1       12.0680  -22.5660   30.5740 C.3   117  ILE117      0.0001
     82  N          9.9420  -18.0330   32.4760 N.am  118  VAL118     -0.1980
     83  CA         9.7370  -17.0450   33.5140 C.3   118  VAL118      0.1595
     84  C          8.5010  -17.3210   34.3980 C.2   118  VAL118      0.2287
     85  O          8.5700  -17.1130   35.6260 O.2   118  VAL118     -0.2864
     86  CB         9.7310  -15.5970   33.0070 C.3   118  VAL118      0.0276
     87  CG1        8.6920  -15.3390   31.9170 C.3   118  VAL118      0.0022
     88  CG2        9.6040  -14.6850   34.2100 C.3   118  VAL118      0.0022
     89  N          9.6400  -19.8020   36.7980 N.3   121  LEU121     -0.1245
     90  CA        10.4050  -19.1700   37.9170 C.3   121  LEU121      0.1561
     91  C          9.4830  -18.5290   38.9620 C.2   121  LEU121      0.2260
     92  O          9.7140  -18.6710   40.1600 O.2   121  LEU121     -0.2867
     93  CB        11.4040  -18.1410   37.3330 C.3   121  LEU121      0.0270
     94  CG        12.2550  -17.4380   38.3920 C.3   121  LEU121      0.0019
     95  CD1       13.1270  -18.4400   39.1060 C.3   121  LEU121      0.0001
     96  CD2       13.1340  -16.4010   37.7380 C.3   121  LEU121      0.0001
     97  N          9.2470  -19.6420   43.0440 N.3   125  LEU125     -0.1231
     98  CA         9.6800  -18.6500   44.0370 C.3   125  LEU125      0.1693
     99  C          8.5660  -18.0470   44.8900 C.2   125  LEU125      0.2593
    100  O          8.8190  -17.5620   46.0280 O.2   125  LEU125     -0.2718
    101  CB        10.3680  -17.4800   43.3630 C.3   125  LEU125      0.0284
    102  CG        11.7590  -17.7670   42.7780 C.3   125  LEU125      0.0019
    103  CD1       12.3090  -16.4450   42.2640 C.3   125  LEU125      0.0001
    104  CD2       12.6590  -18.4160   43.7910 C.3   125  LEU125      0.0001
    105  N          7.3520  -18.0670   44.3890 N.am  126  THR126     -0.1939
    106  CA         6.2580  -17.4900   45.1770 C.3   126  THR126      0.2028
    107  C          5.9310  -18.2990   46.4560 C.2   126  THR126      0.2642
    108  O          5.8990  -19.5190   46.4660 O.2   126  THR126     -0.2714
    109  CB         4.9970  -17.2540   44.3220 C.3   126  THR126      0.1808
    110  OG1        3.9970  -16.5910   45.1420 O.3   126  THR126     -0.2208
    111  CG2        4.4930  -18.5360   43.7780 C.3   126  THR126      0.0379
    112  N          5.6040  -17.5890   47.5260 N.am  127  LYS127     -0.1977
    113  CA         5.3040  -18.2470   48.8180 C.3   127  LYS127      0.1596
    114  C          3.8560  -18.7150   48.9360 C.2   127  LYS127      0.2287
    115  O          3.5250  -19.5300   49.8010 O.2   127  LYS127     -0.2864
    116  CB         5.5970  -17.2540   49.9960 C.3   127  LYS127      0.0298
    117  CG         7.0520  -16.8290   50.1400 C.3   127  LYS127      0.0038
    118  CD         7.2570  -15.8840   51.3460 C.3   127  LYS127      0.0206
    119  CE         8.5210  -15.0400   51.2440 C.3   127  LYS127      0.1093
    120  NZ         9.7410  -15.8680   51.0200 N.3   127  LYS127     -0.1314
@<TRIPOS>BOND
     1    66    65    2
     2    65    64    1
     3    64    67    1
     4    64    63    1
     5    58    57    2
     6    69    71   ar
     7    69    68   ar
     8    67    68    1
     9    71    73   ar
    10    68    70   ar
    11    63    57   am
    12    57    56    1
    13    73    72   ar
    14    70    72   ar
    15    56    55    1
    16    56    59    1
    17    79    81    1
    18    79    78    1
    19    61    60    1
    20    60    59    1
    21    60    62    1
    22    74    75    1
    23    78    75    1
    24    78    80    1
    25    75    76    1
    26    87    86    1
    27    53    52    2
    28    82    76   am
    29    82    83    1
    30    76    77    2
    31    86    83    1
    32    86    88    1
    33    52    51    1
    34    41    40    2
    35    83    84    1
    36    84    85    2
    37    51    50    1
    38    51    54    1
    39    40    50   am
    40    40    39    1
    41    39    38    1
    42    39    42    1
    43    45    47   ar
    44    45    43   ar
    45    42    43    1
    46    47    48   ar
    47    89    90    1
    48    43    44   ar
    49    93    90    1
    50    93    94    1
    51    96    94    1
    52    48    49    1
    53    48    46   ar
    54    90    91    1
    55    44    46   ar
    56    94    95    1
    57    27    26    2
    58    91    92    2
    59    26    25    1
    60    34    36   ar
    61    34    31   ar
    62    36    37   ar
    63    25    28    1
    64    25    24    1
    65    28    29    1
    66    31    29   ar
    67    31    33   ar
    68    37    35   ar
    69   103   102    1
    70    29    30   ar
    71   102   101    1
    72   102   104    1
    73    97    98    1
    74    33    35   ar
    75    33    32   ar
    76   101    98    1
    77   111   109    1
    78    30    32   ar
    79    98    99    1
    80   109   110    1
    81   109   106    1
    82   105    99   am
    83   105   106    1
    84    99   100    2
    85   106   107    1
    86   107   108    2
    87   107   112   am
    88     6     5    1
    89     1     2    1
    90   112   113    1
    91     5     2    1
    92     5     7    1
    93    23    21    1
    94     2     3    1
    95     4     3    2
    96   113   114    1
    97   113   116    1
    98     3     8   am
    99   114   115    2
   100    22    21    1
   101    21    18    1
   102   116   117    1
   103   117   118    1
   104     8     9    1
   105    18    17    1
   106    18    19    1
   107    17    10   am
   108    10    11    2
   109    10     9    1
   110     9    12    1
   111   120   119    1
   112   119   118    1
   113    20    19    2
   114    12    13    1
   115    13    14    1
   116    14    16   ar
   117    14    15   ar
