@<TRIPOS>MOLECULE
tmp/4qi1B04.pdb
 98 98 0 0 0
SMALL
GASTEIGER

@<TRIPOS>ATOM
      1  N          0.8900  -23.3180   42.1930 N.3   133  TYR133     -0.1241
      2  CA         0.1500  -24.1640   41.2550 C.3   133  TYR133      0.1605
      3  C         -0.4750  -23.4270   40.1050 C.2   133  TYR133      0.2264
      4  O         -0.4520  -23.9150   38.9720 O.2   133  TYR133     -0.2867
      5  CB        -0.8240  -25.0820   41.9770 C.3   133  TYR133      0.0534
      6  CG        -0.0870  -26.0550   42.8570 C.ar  133  TYR133     -0.0201
      7  CD1        0.6950  -27.0750   42.3120 C.ar  133  TYR133     -0.0009
      8  CD2       -0.0800  -25.8900   44.2370 C.ar  133  TYR133     -0.0009
      9  CE1        1.4620  -27.9340   43.1230 C.ar  133  TYR133      0.0417
     10  CE2        0.6300  -26.7500   45.0690 C.ar  133  TYR133      0.0417
     11  CZ         1.3790  -27.7970   44.4890 C.ar  133  TYR133      0.1957
     12  OH         2.0800  -28.6490   45.3090 O.3   133  TYR133     -0.2866
     13  N          2.4870  -22.7900   37.7720 N.3   136  TRP136     -0.1227
     14  CA         2.8900  -24.0680   37.1620 C.3   136  TRP136      0.1737
     15  C          1.8990  -24.3910   36.0380 C.2   136  TRP136      0.2596
     16  O          2.2730  -24.8690   34.9330 O.2   136  TRP136     -0.2718
     17  CB         2.9000  -25.1830   38.2230 C.3   136  TRP136      0.0564
     18  CG         3.1890  -26.5150   37.6300 C.ar  136  TRP136      0.0003
     19  CD1        4.3920  -27.0470   37.3690 C.ar  136  TRP136      0.0946
     20  CD2        2.2040  -27.4600   37.0940 C.ar  136  TRP136      0.0152
     21  NE1        4.2530  -28.2970   36.7850 N.ar  136  TRP136     -0.2442
     22  CE2        2.9130  -28.5750   36.6310 C.ar  136  TRP136      0.0810
     23  CE3        0.8000  -27.4850   37.0580 C.ar  136  TRP136      0.0012
     24  CZ2        2.2880  -29.7150   36.0670 C.ar  136  TRP136      0.0191
     25  CZ3        0.1700  -28.6270   36.5020 C.ar  136  TRP136      0.0001
     26  CH2        0.9310  -29.6940   35.9630 C.ar  136  TRP136      0.0015
     27  N          0.6030  -24.0890   36.2840 N.am  137  THR137     -0.1953
     28  CA        -0.4310  -24.3490   35.2420 C.3   137  THR137      0.1897
     29  C         -0.2680  -23.4610   34.0440 C.2   137  THR137      0.2313
     30  O         -0.3660  -23.9180   32.8940 O.2   137  THR137     -0.2863
     31  CB        -1.8820  -24.2490   35.8140 C.3   137  THR137      0.1794
     32  OG1       -2.0000  -25.1230   36.9420 O.3   137  THR137     -0.2208
     33  CG2       -2.9330  -24.6740   34.7560 C.3   137  THR137      0.0378
     34  N          2.7830  -24.6340   32.0970 N.3   140  THR140     -0.1203
     35  CA         2.4750  -25.8880   31.3960 C.3   140  THR140      0.1994
     36  C          1.6160  -25.6810   30.1970 C.2   140  THR140      0.2617
     37  O          1.8670  -26.3540   29.1830 O.2   140  THR140     -0.2717
     38  CB         1.8930  -26.9380   32.3750 C.3   140  THR140      0.1784
     39  OG1        2.8280  -27.1450   33.4370 O.3   140  THR140     -0.2211
     40  CG2        1.5310  -28.2980   31.7260 C.3   140  THR140      0.0376
     41  N          0.5880  -24.8060   30.3240 N.am  141  ILE141     -0.1979
     42  CA        -0.2210  -24.4170   29.1960 C.3   141  ILE141      0.1595
     43  C          0.6400  -23.8760   28.0070 C.2   141  ILE141      0.2287
     44  O          0.4590  -24.2950   26.8650 O.2   141  ILE141     -0.2864
     45  CB        -1.3780  -23.4830   29.5840 C.3   141  ILE141      0.0276
     46  CG1       -2.3780  -24.2940   30.4150 C.3   141  ILE141      0.0022
     47  CG2       -2.0250  -22.8650   28.3250 C.3   141  ILE141      0.0022
     48  CD1       -3.4530  -23.4750   31.0410 C.3   141  ILE141      0.0001
     49  N          2.5690  -26.6230   26.2790 N.3   144  VAL144     -0.1231
     50  CA         1.7510  -27.3640   25.3170 C.3   144  VAL144      0.1692
     51  C          1.5940  -26.6580   24.0090 C.2   144  VAL144      0.2592
     52  O          1.7670  -27.2640   22.9370 O.2   144  VAL144     -0.2718
     53  CB         0.3810  -27.7200   25.9090 C.3   144  VAL144      0.0266
     54  CG1       -0.5400  -28.3510   24.8340 C.3   144  VAL144      0.0020
     55  CG2        0.5900  -28.5930   27.0410 C.3   144  VAL144      0.0020
     56  N          1.3530  -25.3490   24.0600 N.am  145  PHE145     -0.1976
     57  CA         1.2680  -24.4990   22.9060 C.3   145  PHE145      0.1639
     58  C          2.6300  -24.5740   22.1240 C.2   145  PHE145      0.2290
     59  O          2.6740  -24.7580   20.9020 O.2   145  PHE145     -0.2864
     60  CB         1.0110  -23.0300   23.2860 C.3   145  PHE145      0.0560
     61  CG        -0.4310  -22.6040   23.2930 C.ar  145  PHE145     -0.0200
     62  CD1       -1.0650  -22.2400   22.1140 C.ar  145  PHE145     -0.0042
     63  CD2       -1.1280  -22.4410   24.4970 C.ar  145  PHE145     -0.0042
     64  CE1       -2.3820  -21.7950   22.1360 C.ar  145  PHE145     -0.0003
     65  CE2       -2.4330  -21.9690   24.5210 C.ar  145  PHE145     -0.0003
     66  CZ        -3.0620  -21.6550   23.3550 C.ar  145  PHE145     -0.0000
     67  N          3.2050  -27.8540   20.4040 N.3   148  TYR148     -0.1227
     68  CA         2.3240  -27.9100   19.2580 C.3   148  TYR148      0.1736
     69  C          2.8520  -27.1060   18.0360 C.2   148  TYR148      0.2595
     70  O          2.8630  -27.5950   16.8750 O.2   148  TYR148     -0.2718
     71  CB         0.8930  -27.4780   19.6550 C.3   148  TYR148      0.0548
     72  CG         0.0430  -27.3220   18.4040 C.ar  148  TYR148     -0.0200
     73  CD1       -0.4900  -28.4240   17.7960 C.ar  148  TYR148     -0.0009
     74  CD2       -0.1180  -26.1150   17.8090 C.ar  148  TYR148     -0.0009
     75  CE1       -1.2180  -28.3320   16.6150 C.ar  148  TYR148      0.0417
     76  CE2       -0.8580  -25.9870   16.6300 C.ar  148  TYR148      0.0417
     77  CZ        -1.3960  -27.0890   16.0400 C.ar  148  TYR148      0.1957
     78  OH        -2.1340  -26.9530   14.8640 O.3   148  TYR148     -0.2866
     79  N          3.2600  -25.8680   18.2850 N.am  149  TYR149     -0.1976
     80  CA         3.8590  -25.0260   17.2620 C.3   149  TYR149      0.1639
     81  C          5.1630  -25.5940   16.7410 C.2   149  TYR149      0.2290
     82  O          5.4420  -25.4350   15.5650 O.2   149  TYR149     -0.2864
     83  CB         4.0140  -23.5600   17.7110 C.3   149  TYR149      0.0560
     84  CG         2.6610  -22.8730   17.8170 C.ar  149  TYR149     -0.0198
     85  CD1        1.7130  -23.0240   16.8100 C.ar  149  TYR149     -0.0009
     86  CD2        2.2920  -22.1400   18.9440 C.ar  149  TYR149     -0.0009
     87  CE1        0.4650  -22.4220   16.8860 C.ar  149  TYR149      0.0417
     88  CE2        1.0210  -21.5580   19.0310 C.ar  149  TYR149      0.0417
     89  CZ         0.1210  -21.7070   17.9980 C.ar  149  TYR149      0.1957
     90  OH        -1.1400  -21.1490   18.0190 O.3   149  TYR149     -0.2866
     91  N          6.2910  -30.8740   39.6180 N.3   188  LEU188     -0.1245
     92  CA         5.1010  -31.3320   40.4010 C.3   188  LEU188      0.1561
     93  C          5.4460  -32.4140   41.3980 C.2   188  LEU188      0.2260
     94  O          4.9760  -32.3780   42.5770 O.2   188  LEU188     -0.2867
     95  CB         3.9830  -31.8300   39.4840 C.3   188  LEU188      0.0270
     96  CG         2.6180  -31.1650   39.5010 C.3   188  LEU188      0.0019
     97  CD1        1.6130  -32.1030   38.8010 C.3   188  LEU188      0.0001
     98  CD2        2.1570  -30.7690   40.8750 C.3   188  LEU188      0.0001
@<TRIPOS>BOND
     1    78    77    1
     2    82    81    2
     3    77    75   ar
     4    77    76   ar
     5    75    73   ar
     6    76    74   ar
     7    81    80    1
     8    85    87   ar
     9    85    84   ar
    10    70    69    2
    11    87    89   ar
    12    80    83    1
    13    80    79    1
    14    83    84    1
    15    73    72   ar
    16    74    72   ar
    17    84    86   ar
    18    89    90    1
    19    89    88   ar
    20    69    79   am
    21    69    68    1
    22    72    71    1
    23    86    88   ar
    24    68    71    1
    25    68    67    1
    26    59    58    2
    27    62    64   ar
    28    62    61   ar
    29    58    57    1
    30    64    66   ar
    31    57    60    1
    32    57    56    1
    33    52    51    2
    34    60    61    1
    35    61    63   ar
    36    66    65   ar
    37    51    56   am
    38    51    50    1
    39    63    65   ar
    40    54    53    1
    41    50    53    1
    42    50    49    1
    43    53    55    1
    44    44    43    2
    45    43    42    1
    46    47    45    1
    47    37    36    2
    48    42    45    1
    49    42    41    1
    50    45    46    1
    51    36    41   am
    52    36    35    1
    53    46    48    1
    54    35    34    1
    55    35    38    1
    56    40    38    1
    57    38    39    1
    58    30    29    2
    59    29    28    1
    60    33    31    1
    61    16    15    2
    62    28    31    1
    63    28    27    1
    64    31    32    1
    65    26    24   ar
    66    26    25   ar
    67    15    27   am
    68    15    14    1
    69    24    22   ar
    70    25    23   ar
    71    22    21   ar
    72    22    20   ar
    73    21    19   ar
    74    23    20   ar
    75    20    18   ar
    76    14    13    1
    77    14    17    1
    78    19    18   ar
    79    18    17    1
    80    97    96    1
    81     4     3    2
    82    95    96    1
    83    95    92    1
    84    96    98    1
    85    91    92    1
    86     3     2    1
    87    92    93    1
    88     2     5    1
    89     2     1    1
    90    93    94    2
    91     5     6    1
    92     7     6   ar
    93     7     9   ar
    94     6     8   ar
    95     9    11   ar
    96     8    10   ar
    97    11    10   ar
    98    11    12    1
