@<TRIPOS>MOLECULE
tmp/4qi1B02.pdb
 127 119 0 0 0
SMALL
GASTEIGER

@<TRIPOS>ATOM
      1  N         27.5800  -22.5390   12.1210 N.3    38  GLU38      -0.1245
      2  CA        26.5900  -21.9200   13.0140 C.3    38  GLU38       0.1567
      3  C         25.9810  -23.0030   13.9260 C.2    38  GLU38       0.2260
      4  O         25.7750  -22.7680   15.1300 O.2    38  GLU38      -0.2867
      5  CB        25.5220  -21.1440   12.2400 C.3    38  GLU38       0.0388
      6  CG        24.4250  -20.5970   13.1280 C.3    38  GLU38       0.1160
      7  CD        23.3970  -19.7620   12.4130 C.2    38  GLU38       0.3649
      8  OE1       23.3310  -19.7830   11.1380 O.co2  38  GLU38      -0.2457
      9  OE2       22.6190  -19.0950   13.1670 O.co2  38  GLU38      -0.2457
     10  N         28.4170  -23.6350   16.6880 N.3    41  VAL41      -0.1231
     11  CA        28.5110  -22.5800   17.6670 C.3    41  VAL41       0.1692
     12  C         27.3770  -22.6550   18.6650 C.2    41  VAL41       0.2591
     13  O         27.6230  -22.6180   19.9010 O.2    41  VAL41      -0.2718
     14  CB        28.5300  -21.1870   17.0140 C.3    41  VAL41       0.0266
     15  CG1       28.3380  -20.1020   18.0950 C.3    41  VAL41       0.0020
     16  CG2       29.8670  -21.0350   16.2860 C.3    41  VAL41       0.0020
     17  N         26.1810  -22.7320   18.1430 N.am   42  ILE42      -0.1980
     18  CA        24.9570  -22.8120   18.9940 C.3    42  ILE42       0.1595
     19  C         25.0580  -24.0270   19.9260 C.2    42  ILE42       0.2287
     20  O         24.7350  -23.9930   21.1250 O.2    42  ILE42      -0.2864
     21  CB        23.6850  -22.9150   18.1250 C.3    42  ILE42       0.0276
     22  CG1       23.4410  -21.6550   17.3130 C.3    42  ILE42       0.0022
     23  CG2       22.4060  -23.0980   18.9750 C.3    42  ILE42       0.0022
     24  CD1       22.5120  -21.7830   16.1060 C.3    42  ILE42       0.0001
     25  N         27.6320  -23.7420   22.7340 N.3    45  LEU45      -0.1245
     26  CA        27.2170  -22.7610   23.7210 C.3    45  LEU45       0.1561
     27  C         26.2430  -23.3200   24.7320 C.2    45  LEU45       0.2260
     28  O         26.3200  -23.0080   25.9410 O.2    45  LEU45      -0.2867
     29  CB        26.6470  -21.5180   23.0190 C.3    45  LEU45       0.0270
     30  CG        26.3150  -20.2960   23.9150 C.3    45  LEU45       0.0019
     31  CD1       27.4870  -19.8120   24.7770 C.3    45  LEU45       0.0001
     32  CD2       25.7310  -19.1440   23.0950 C.3    45  LEU45       0.0001
     33  N         26.8400  -23.2350   28.7470 N.3    49  ILE49      -0.1245
     34  CA        25.9660  -22.5500   29.7250 C.3    49  ILE49       0.1561
     35  C         25.5630  -23.5130   30.8510 C.2    49  ILE49       0.2260
     36  O         25.5420  -23.1610   32.0530 O.2    49  ILE49      -0.2867
     37  CB        24.7570  -21.9330   29.0370 C.3    49  ILE49       0.0252
     38  CG1       25.2150  -20.8030   28.1460 C.3    49  ILE49       0.0019
     39  CG2       23.7800  -21.4510   30.0050 C.3    49  ILE49       0.0019
     40  CD1       24.2470  -20.5490   27.0350 C.3    49  ILE49       0.0001
     41  N         28.3690  -24.3760   33.2840 N.3    52  ALA52      -0.1231
     42  CA        28.6440  -23.2730   34.1680 C.3    52  ALA52       0.1694
     43  C         27.5640  -23.1020   35.2560 C.2    52  ALA52       0.2592
     44  O         27.8130  -22.8450   36.4460 O.2    52  ALA52      -0.2718
     45  CB        28.8400  -22.0100   33.3470 C.3    52  ALA52       0.0304
     46  N         26.3030  -23.2940   34.8490 N.am   53  SER53      -0.1952
     47  CA        25.1930  -23.3330   35.7810 C.3    53  SER53       0.1924
     48  C         25.2050  -24.4810   36.7590 C.2    53  SER53       0.2314
     49  O         25.0410  -24.2700   37.9950 O.2    53  SER53      -0.2863
     50  CB        23.8870  -23.3820   34.9700 C.3    53  SER53       0.2116
     51  OG        22.8010  -23.5530   35.8900 O.3    53  SER53      -0.2180
     52  N         28.0440  -23.7240   39.3130 N.3    56  SER56      -0.1217
     53  CA        27.5520  -22.7190   40.2550 C.3    56  SER56       0.1889
     54  C         26.6470  -23.3050   41.3400 C.2    56  SER56       0.2288
     55  O         26.8440  -23.0010   42.4960 O.2    56  SER56      -0.2866
     56  CB        26.8770  -21.5100   39.5950 C.3    56  SER56       0.2089
     57  OG        25.5640  -21.7570   39.2040 O.3    56  SER56      -0.2183
     58  N         26.0160  -21.4950   44.8480 N.3    61  PHE61      -0.1241
     59  CA        25.5390  -20.2460   44.2880 C.3    61  PHE61       0.1605
     60  C         24.2500  -20.5120   43.4850 C.2    61  PHE61       0.2264
     61  O         24.1860  -21.4510   42.7060 O.2    61  PHE61      -0.2867
     62  CB        26.5550  -19.5920   43.3630 C.3    61  PHE61       0.0534
     63  CG        26.1130  -18.2600   42.8550 C.ar   61  PHE61      -0.0203
     64  CD1       26.3030  -17.1210   43.6520 C.ar   61  PHE61      -0.0042
     65  CD2       25.5140  -18.1210   41.6400 C.ar   61  PHE61      -0.0042
     66  CE1       25.8890  -15.8770   43.2190 C.ar   61  PHE61      -0.0003
     67  CE2       25.1290  -16.8730   41.1990 C.ar   61  PHE61      -0.0003
     68  CZ        25.3000  -15.7550   41.9960 C.ar   61  PHE61      -0.0000
     69  N         17.5120  -21.8630   41.9890 N.3    78  TRP78      -0.1227
     70  CA        17.1110  -20.9430   40.9720 C.3    78  TRP78       0.1737
     71  C         18.0600  -20.7870   39.8190 C.2    78  TRP78       0.2595
     72  O         17.5880  -20.3310   38.7220 O.2    78  TRP78      -0.2718
     73  CB        16.7020  -19.5550   41.4890 C.3    78  TRP78       0.0564
     74  CG        17.6430  -18.9190   42.3620 C.ar   78  TRP78       0.0003
     75  CD1       17.6280  -18.9580   43.7820 C.ar   78  TRP78       0.0946
     76  CD2       18.7610  -18.1060   42.0060 C.ar   78  TRP78       0.0152
     77  NE1       18.6460  -18.1980   44.2640 N.ar   78  TRP78      -0.2442
     78  CE2       19.3810  -17.6990   43.2120 C.ar   78  TRP78       0.0810
     79  CE3       19.3100  -17.6730   40.7840 C.ar   78  TRP78       0.0012
     80  CZ2       20.5240  -16.8690   43.2250 C.ar   78  TRP78       0.0191
     81  CZ3       20.4810  -16.8740   40.8300 C.ar   78  TRP78       0.0001
     82  CH2       21.0210  -16.4570   42.0310 C.ar   78  TRP78       0.0015
     83  N         19.3120  -21.2360   39.9540 N.am   79  ALA79      -0.1980
     84  CA        20.2000  -20.9980   38.8270 C.3    79  ALA79       0.1597
     85  C         19.8220  -21.8320   37.6260 C.2    79  ALA79       0.2287
     86  O         20.2170  -21.5000   36.4760 O.2    79  ALA79      -0.2864
     87  CB        21.6220  -21.2720   39.1840 C.3    79  ALA79       0.0319
     88  N         17.9660  -19.5270   35.1630 N.3    82  ALA82      -0.1231
     89  CA        18.8910  -18.6580   34.4460 C.3    82  ALA82       0.1694
     90  C         19.4200  -19.3990   33.2340 C.2    82  ALA82       0.2592
     91  O         19.3700  -18.8600   32.1110 O.2    82  ALA82      -0.2718
     92  CB        20.0270  -18.1980   35.3620 C.3    82  ALA82       0.0304
     93  N         19.8590  -20.6470   33.4700 N.am   83  ASP83      -0.1974
     94  CA        20.4020  -21.5750   32.4570 C.3    83  ASP83       0.1709
     95  C         19.3120  -21.7560   31.3550 C.2    83  ASP83       0.2293
     96  O         19.5220  -21.4560   30.2010 O.2    83  ASP83      -0.2864
     97  CB        20.8070  -22.9180   33.1630 C.3    83  ASP83       0.1436
     98  CG        21.0350  -24.1060   32.1890 C.2    83  ASP83       0.3671
     99  OD1       20.9130  -23.9270   30.9470 O.co2  83  ASP83      -0.2456
    100  OD2       21.3430  -25.2180   32.7100 O.co2  83  ASP83      -0.2456
    101  N         18.2050  -19.1080   28.5610 N.3    86  PHE86      -0.1241
    102  CA        19.0590  -18.9410   27.4280 C.3    86  PHE86       0.1605
    103  C         19.2530  -20.2120   26.6050 C.2    86  PHE86       0.2264
    104  O         19.3080  -20.1390   25.3700 O.2    86  PHE86      -0.2867
    105  CB        20.4040  -18.4200   27.9000 C.3    86  PHE86       0.0534
    106  CG        20.3320  -17.0260   28.5000 C.ar   86  PHE86      -0.0203
    107  CD1       20.0850  -15.9080   27.6830 C.ar   86  PHE86      -0.0042
    108  CD2       20.4670  -16.8500   29.8620 C.ar   86  PHE86      -0.0042
    109  CE1       20.0040  -14.6350   28.2330 C.ar   86  PHE86      -0.0003
    110  CE2       20.3930  -15.5810   30.4170 C.ar   86  PHE86      -0.0003
    111  CZ        20.1560  -14.4800   29.6020 C.ar   86  PHE86      -0.0000
    112  N         18.0710  -21.1510   22.4980 N.3    90  LEU90      -0.1245
    113  CA        19.1590  -21.6510   21.6630 C.3    90  LEU90       0.1561
    114  C         18.8180  -23.0510   21.0470 C.2    90  LEU90       0.2260
    115  O         19.1480  -23.2950   19.8890 O.2    90  LEU90      -0.2867
    116  CB        20.4670  -21.7240   22.4300 C.3    90  LEU90       0.0270
    117  CG        21.1330  -20.3740   22.7770 C.3    90  LEU90       0.0019
    118  CD1       22.2300  -20.5650   23.7960 C.3    90  LEU90       0.0001
    119  CD2       21.7020  -19.8230   21.4910 C.3    90  LEU90       0.0001
    120  N         16.3320  -22.3440   18.4210 N.3    93  LEU93      -0.1245
    121  CA        17.0250  -21.7500   17.2670 C.3    93  LEU93       0.1561
    122  C         17.6810  -22.8520   16.4660 C.2    93  LEU93       0.2260
    123  O         17.5620  -22.9240   15.2210 O.2    93  LEU93      -0.2867
    124  CB        18.0200  -20.6750   17.6960 C.3    93  LEU93       0.0270
    125  CG        18.9600  -20.0440   16.6550 C.3    93  LEU93       0.0019
    126  CD1       18.1550  -19.4150   15.5280 C.3    93  LEU93       0.0001
    127  CD2       19.9070  -19.0840   17.3630 C.3    93  LEU93       0.0001
@<TRIPOS>BOND
     1     8     7   ar
     2     1     2    1
     3     5     2    1
     4     5     6    1
     5     7     6    1
     6     7     9   ar
     7     2     3    1
     8     3     4    2
     9   123   122    2
    10   126   125    1
    11    24    22    1
    12    16    14    1
    13   122   121    1
    14   125   127    1
    15   125   124    1
    16    10    11    1
    17    14    11    1
    18    14    15    1
    19   121   124    1
    20   121   120    1
    21    22    21    1
    22    11    12    1
    23    21    23    1
    24    21    18    1
    25    17    12   am
    26    17    18    1
    27    12    13    2
    28    18    19    1
    29   115   114    2
    30    19    20    2
    31   114   113    1
    32   119   117    1
    33   113   116    1
    34   113   112    1
    35   116   117    1
    36    25    26    1
    37   117   118    1
    38    29    26    1
    39    29    30    1
    40    32    30    1
    41    26    27    1
    42    30    31    1
    43    27    28    2
    44   104   103    2
    45   103   102    1
    46    40    38    1
    47   102   105    1
    48   102   101    1
    49   107   109   ar
    50   107   106   ar
    51   105   106    1
    52    38    37    1
    53   109   111   ar
    54   106   108   ar
    55    33    34    1
    56    37    34    1
    57    37    39    1
    58   111   110   ar
    59    34    35    1
    60   108   110   ar
    61    96    95    2
    62    35    36    2
    63    99    98   ar
    64    95    94    1
    65    91    90    2
    66    98   100   ar
    67    98    97    1
    68    94    97    1
    69    94    93    1
    70    90    93   am
    71    90    89    1
    72    41    42    1
    73    45    42    1
    74    42    43    1
    75    89    88    1
    76    89    92    1
    77    46    43   am
    78    46    47    1
    79    50    47    1
    80    50    51    1
    81    43    44    2
    82    47    48    1
    83    86    85    2
    84    48    49    2
    85    85    84    1
    86    72    71    2
    87    84    87    1
    88    84    83    1
    89    57    56    1
    90    52    53    1
    91    56    53    1
    92    71    83   am
    93    71    70    1
    94    53    54    1
    95    79    81   ar
    96    79    76   ar
    97    81    82   ar
    98    70    73    1
    99    70    69    1
   100    67    65   ar
   101    67    68   ar
   102    54    55    2
   103    73    74    1
   104    65    63   ar
   105    68    66   ar
   106    76    74   ar
   107    76    78   ar
   108    82    80   ar
   109    74    75   ar
   110    61    60    2
   111    63    62    1
   112    63    64   ar
   113    78    80   ar
   114    78    77   ar
   115    66    64   ar
   116    62    59    1
   117    60    59    1
   118    75    77   ar
   119    59    58    1
