@<TRIPOS>MOLECULE
tmp/4qi1B05.pdb
 90 83 0 0 0
SMALL
GASTEIGER

@<TRIPOS>ATOM
      1  N          3.8120  -24.4000   27.5890 N.3   143  MET143     -0.1230
      2  CA         4.5920  -25.5640   27.0810 C.3   143  MET143      0.1702
      3  C          3.8480  -26.3810   26.0020 C.2   143  MET143      0.2592
      4  O          4.3900  -26.6780   24.9420 O.2   143  MET143     -0.2718
      5  CB         5.0110  -26.5190   28.1520 C.3   143  MET143      0.0401
      6  CG         6.0800  -27.4950   27.6940 C.3   143  MET143      0.0596
      7  SD         6.4890  -28.8450   28.7790 S.3   143  MET143     -0.1393
      8  CE         4.9390  -29.6780   28.9120 C.3   143  MET143      0.0692
      9  N          2.5690  -26.6230   26.2790 N.am  144  VAL144     -0.1980
     10  CA         1.7510  -27.3640   25.3170 C.3   144  VAL144      0.1595
     11  C          1.5940  -26.6580   24.0090 C.2   144  VAL144      0.2287
     12  O          1.7670  -27.2640   22.9370 O.2   144  VAL144     -0.2864
     13  CB         0.3810  -27.7200   25.9090 C.3   144  VAL144      0.0276
     14  CG1       -0.5400  -28.3510   24.8340 C.3   144  VAL144      0.0022
     15  CG2        0.5900  -28.5930   27.0410 C.3   144  VAL144      0.0022
     16  N          5.0310  -26.8240   22.1310 N.3   147  LEU147     -0.1231
     17  CA         5.3120  -28.1410   21.5790 C.3   147  LEU147      0.1693
     18  C          4.4370  -28.3440   20.3310 C.2   147  LEU147      0.2592
     19  O          4.8970  -28.8980   19.2900 O.2   147  LEU147     -0.2718
     20  CB         5.1260  -29.2430   22.5680 C.3   147  LEU147      0.0284
     21  CG         6.1680  -29.2210   23.7090 C.3   147  LEU147      0.0019
     22  CD1        5.7740  -30.2490   24.7200 C.3   147  LEU147      0.0001
     23  CD2        7.6190  -29.3720   23.2670 C.3   147  LEU147      0.0001
     24  N          3.2050  -27.8540   20.4040 N.am  148  TYR148     -0.1976
     25  CA         2.3240  -27.9100   19.2580 C.3   148  TYR148      0.1639
     26  C          2.8520  -27.1060   18.0360 C.2   148  TYR148      0.2290
     27  O          2.8630  -27.5950   16.8750 O.2   148  TYR148     -0.2864
     28  CB         0.8930  -27.4780   19.6550 C.3   148  TYR148      0.0560
     29  CG         0.0430  -27.3220   18.4040 C.ar  148  TYR148     -0.0198
     30  CD1       -0.4900  -28.4240   17.7960 C.ar  148  TYR148     -0.0009
     31  CD2       -0.1180  -26.1150   17.8090 C.ar  148  TYR148     -0.0009
     32  CE1       -1.2180  -28.3320   16.6150 C.ar  148  TYR148      0.0417
     33  CE2       -0.8580  -25.9870   16.6300 C.ar  148  TYR148      0.0417
     34  CZ        -1.3960  -27.0890   16.0400 C.ar  148  TYR148      0.1957
     35  OH        -2.1340  -26.9530   14.8640 O.3   148  TYR148     -0.2866
     36  N          5.8500  -28.9220   16.3900 N.3   151  VAL151     -0.1231
     37  CA         5.3720  -29.9740   15.4860 C.3   151  VAL151      0.1692
     38  C          4.7340  -29.4020   14.1980 C.2   151  VAL151      0.2591
     39  O          5.0870  -29.8300   13.0780 O.2   151  VAL151     -0.2718
     40  CB         4.3480  -30.9250   16.1850 C.3   151  VAL151      0.0266
     41  CG1        3.8440  -31.9890   15.2540 C.3   151  VAL151      0.0020
     42  CG2        4.9520  -31.6390   17.3480 C.3   151  VAL151      0.0020
     43  N          3.8760  -28.3950   14.3440 N.am  152  ALA152     -0.1980
     44  CA         3.1090  -27.9050   13.2240 C.3   152  ALA152      0.1597
     45  C          3.8460  -26.9060   12.3560 C.2   152  ALA152      0.2287
     46  O          3.8540  -27.0440   11.1030 O.2   152  ALA152     -0.2864
     47  CB         1.7660  -27.3300   13.6930 C.3   152  ALA152      0.0319
     48  N          7.5350  -28.2660   11.6140 N.3   155  GLY155     -0.1210
     49  CA         7.2370  -29.4020   10.7420 C.3   155  GLY155      0.1956
     50  C          6.7590  -29.0290    9.3560 C.2   155  GLY155      0.2611
     51  O          7.1720  -29.6620    8.3860 O.2   155  GLY155     -0.2717
     52  N          5.9040  -28.0060    9.2360 N.am  156  GLU156     -0.1979
     53  CA         5.6090  -27.4810    7.8720 C.3   156  GLU156      0.1602
     54  C          6.8370  -26.8370    7.1680 C.2   156  GLU156      0.2287
     55  O          7.0230  -27.0050    5.9420 O.2   156  GLU156     -0.2864
     56  CB         4.4030  -26.5210    7.8020 C.3   156  GLU156      0.0415
     57  CG         3.7850  -26.5020    6.4020 C.3   156  GLU156      0.1163
     58  CD         3.4110  -27.9080    5.9670 C.2   156  GLU156      0.3649
     59  OE1        3.3180  -28.2060    4.7430 O.co2 156  GLU156     -0.2457
     60  OE2        3.2050  -28.7320    6.8930 O.co2 156  GLU156     -0.2457
     61  N          9.0180  -29.4890    5.5780 N.3   159  SER159     -0.1217
     62  CA         8.3800  -30.4100    4.6480 C.3   159  SER159      0.1889
     63  C          8.9100  -30.3470    3.2090 C.2   159  SER159      0.2288
     64  O          8.8330  -31.3370    2.5220 O.2   159  SER159     -0.2866
     65  CB         6.8660  -30.2250    4.6310 C.3   159  SER159      0.2089
     66  OG         6.5340  -28.9630    4.0920 O.3   159  SER159     -0.2183
     67  N         12.9510  -33.3680   17.0360 N.3   173  ARG173     -0.1245
     68  CA        11.6050  -33.0560   17.4890 C.3   173  ARG173      0.1563
     69  C         11.1260  -34.0250   18.5570 C.2   173  ARG173      0.2260
     70  O         10.4890  -33.6540   19.5590 O.2   173  ARG173     -0.2867
     71  CB        10.6490  -33.0980   16.3050 C.3   173  ARG173      0.0307
     72  CG         9.1830  -32.9330   16.6520 C.3   173  ARG173      0.0489
     73  CD         8.1950  -33.4490   15.6290 C.3   173  ARG173      0.2205
     74  NE         8.2520  -34.9130   15.5200 N.pl3 173  ARG173     -0.0865
     75  CZ         7.7020  -35.5980   14.5030 C.cat 173  ARG173      0.5346
     76  NH1        7.0170  -34.9600   13.5660 N.pl3 173  ARG173      0.1354
     77  NH2        7.8300  -36.9210   14.4200 N.pl3 173  ARG173      0.1354
     78  N         10.0000  -33.3520   22.3300 N.3   177  LEU177     -0.1245
     79  CA         8.6330  -33.6960   22.7650 C.3   177  LEU177      0.1561
     80  C          8.5840  -34.5720   24.0230 C.2   177  LEU177      0.2260
     81  O          7.8060  -34.2930   24.9510 O.2   177  LEU177     -0.2867
     82  CB         7.8640  -34.4050   21.6510 C.3   177  LEU177      0.0270
     83  CG         7.4020  -33.5700   20.4590 C.3   177  LEU177      0.0019
     84  CD1        6.8630  -34.5150   19.3910 C.3   177  LEU177      0.0001
     85  CD2        6.4200  -32.5250   20.9020 C.3   177  LEU177      0.0001
     86  N          8.4600  -32.4110   27.8750 N.3   181  ALA181     -0.1245
     87  CA         7.1690  -32.7000   28.5550 C.3   181  ALA181      0.1562
     88  C          7.3090  -33.2510   29.9880 C.2   181  ALA181      0.2260
     89  O          6.3790  -33.1530   30.8140 O.2   181  ALA181     -0.2867
     90  CB         6.3680  -33.6650   27.6670 C.3   181  ALA181      0.0290
@<TRIPOS>BOND
     1    64    63    2
     2    63    62    1
     3    66    65    1
     4    65    62    1
     5    62    61    1
     6    59    58   ar
     7    55    54    2
     8    58    57    1
     9    58    60   ar
    10    57    56    1
    11    54    53    1
    12    56    53    1
    13    53    52    1
    14    51    50    2
    15    52    50   am
    16    50    49    1
    17    49    48    1
    18    46    45    2
    19    45    44    1
    20    39    38    2
    21    44    47    1
    22    44    43    1
    23    76    75    1
    24    38    43   am
    25    38    37    1
    26    77    75    1
    27    75    74    2
    28    35    34    1
    29    41    40    1
    30    37    40    1
    31    37    36    1
    32    74    73    1
    33    73    72    1
    34    34    32   ar
    35    34    33   ar
    36    40    42    1
    37    71    72    1
    38    71    68    1
    39    32    30   ar
    40    33    31   ar
    41    27    26    2
    42    67    68    1
    43    68    69    1
    44    30    29   ar
    45    31    29   ar
    46    26    25    1
    47    29    28    1
    48    69    70    2
    49    25    28    1
    50    25    24    1
    51    19    18    2
    52    84    83    1
    53    18    24   am
    54    18    17    1
    55    83    85    1
    56    83    82    1
    57    17    16    1
    58    17    20    1
    59    82    79    1
    60    78    79    1
    61    20    21    1
    62    79    80    1
    63    12    11    2
    64    23    21    1
    65    21    22    1
    66    11    10    1
    67    80    81    2
    68    14    13    1
    69     4     3    2
    70    10    13    1
    71    10     9    1
    72    13    15    1
    73     3     9   am
    74     3     2    1
    75     2     1    1
    76     2     5    1
    77    90    87    1
    78     6     5    1
    79     6     7    1
    80    86    87    1
    81    87    88    1
    82     7     8    1
    83    88    89    2
