@<TRIPOS>MOLECULE
tmp/4qi1B06.pdb
 117 106 0 0 0
SMALL
GASTEIGER

@<TRIPOS>ATOM
      1  N         27.6780  -31.3520   35.7970 N.3    14  THR14      -0.1218
      2  CA        28.7700  -30.5070   35.3510 C.3    14  THR14       0.1862
      3  C         29.7450  -31.2680   34.3880 C.2    14  THR14       0.2287
      4  O         30.0490  -30.8000   33.3030 O.2    14  THR14      -0.2866
      5  CB        29.6010  -29.9310   36.5000 C.3    14  THR14       0.1770
      6  OG1       28.7630  -29.2950   37.4610 O.3    14  THR14      -0.2211
      7  CG2       30.5750  -28.8680   35.9930 C.3    14  THR14       0.0375
      8  N         30.2760  -30.7850   30.3930 N.3    18  LEU18      -0.1245
      9  CA        31.6410  -30.3790   29.9620 C.3    18  LEU18       0.1561
     10  C         32.1830  -31.3060   28.9430 C.2    18  LEU18       0.2260
     11  O         32.7420  -30.8440   27.9040 O.2    18  LEU18      -0.2867
     12  CB        32.5860  -30.2780   31.1580 C.3    18  LEU18       0.0270
     13  CG        34.1020  -30.1310   30.9930 C.3    18  LEU18       0.0019
     14  CD1       34.3240  -28.8890   30.1310 C.3    18  LEU18       0.0001
     15  CD2       34.8280  -30.0400   32.3450 C.3    18  LEU18       0.0001
     16  N         30.3810  -30.7190   25.6230 N.3    21  MET21      -0.1245
     17  CA        30.9600  -29.4720   25.0510 C.3    21  MET21       0.1570
     18  C         32.3080  -29.7330   24.3800 C.2    21  MET21       0.2261
     19  O         32.5450  -29.2600   23.2310 O.2    21  MET21      -0.2867
     20  CB        31.1100  -28.3850   26.1280 C.3    21  MET21       0.0387
     21  CG        31.4490  -26.9980   25.6150 C.3    21  MET21       0.0595
     22  SD        32.1240  -25.9060   26.8250 S.3    21  MET21      -0.1393
     23  CE        33.6980  -26.7330   27.0970 C.3    21  MET21       0.0692
     24  N         33.3380  -29.4550   20.3670 N.3    25  ILE25      -0.1245
     25  CA        34.4290  -28.5380   19.9230 C.3    25  ILE25       0.1561
     26  C         35.4280  -29.3570   19.0940 C.2    25  ILE25       0.2260
     27  O         35.8320  -28.9280   18.0250 O.2    25  ILE25      -0.2867
     28  CB        35.1740  -27.8720   21.1050 C.3    25  ILE25       0.0252
     29  CG1       34.2470  -26.8550   21.8330 C.3    25  ILE25       0.0019
     30  CG2       36.5260  -27.2470   20.6650 C.3    25  ILE25       0.0019
     31  CD1       34.6590  -26.5990   23.2640 C.3    25  ILE25       0.0001
     32  N         34.1240  -30.1270   15.6570 N.3    28  GLY28      -0.1210
     33  CA        33.9280  -29.0020   14.7510 C.3    28  GLY28       0.1956
     34  C         35.1810  -28.2920   14.2790 C.2    28  GLY28       0.2611
     35  O         35.0740  -27.3100   13.5570 O.2    28  GLY28      -0.2717
     36  N         36.3550  -28.7660   14.6980 N.am   29  LEU29      -0.1979
     37  CA        37.6340  -28.0450   14.4310 C.3    29  LEU29       0.1596
     38  C         37.9120  -27.7770   12.9460 C.2    29  LEU29       0.2287
     39  O         38.4220  -26.7290   12.6070 O.2    29  LEU29      -0.2864
     40  CB        38.8520  -28.7860   15.0250 C.3    29  LEU29       0.0297
     41  CG        39.0250  -28.7270   16.5290 C.3    29  LEU29       0.0022
     42  CD1       40.2720  -29.4830   16.9450 C.3    29  LEU29       0.0001
     43  CD2       39.0790  -27.3000   17.0310 C.3    29  LEU29       0.0001
     44  N         35.6590  -27.4870   10.5450 N.3    31  VAL31      -0.1245
     45  CA        34.4460  -27.1190    9.8060 C.3    31  VAL31       0.1561
     46  C         34.6280  -25.7690    9.1040 C.2    31  VAL31       0.2260
     47  O         35.0080  -24.8010    9.7150 O.2    31  VAL31      -0.2867
     48  CB        33.2070  -27.1390   10.7430 C.3    31  VAL31       0.0252
     49  CG1       32.0260  -26.4810   10.0920 C.3    31  VAL31       0.0019
     50  CG2       32.8640  -28.5870   11.1190 C.3    31  VAL31       0.0019
     51  N         28.9380  -24.3590   10.4830 N.3    37  LYS37      -0.1245
     52  CA        29.6090  -23.7430   11.5820 C.3    37  LYS37       0.1561
     53  C         28.6430  -23.1350   12.6070 C.2    37  LYS37       0.2260
     54  O         28.9070  -23.2140   13.8090 O.2    37  LYS37      -0.2867
     55  CB        30.5470  -22.6230   11.1240 C.3    37  LYS37       0.0271
     56  CG        32.0010  -22.9950   10.9210 C.3    37  LYS37       0.0035
     57  CD        32.7880  -21.7520   10.5020 C.3    37  LYS37       0.0206
     58  CE        34.0030  -22.0730    9.6510 C.3    37  LYS37       0.1093
     59  NZ        34.1610  -21.0940    8.5360 N.3    37  LYS37      -0.1314
     60  N         27.4610  -25.8390   15.0480 N.3    40  TYR40      -0.1227
     61  CA        28.4720  -25.9800   16.0780 C.3    40  TYR40       0.1736
     62  C         28.4940  -24.8890   17.1310 C.2    40  TYR40       0.2595
     63  O         28.5810  -25.1860   18.3570 O.2    40  TYR40      -0.2718
     64  CB        29.8620  -26.2180   15.4880 C.3    40  TYR40       0.0548
     65  CG        29.9980  -27.5800   15.0080 C.ar   40  TYR40      -0.0200
     66  CD1       29.6120  -27.9260   13.7340 C.ar   40  TYR40      -0.0009
     67  CD2       30.5320  -28.5510   15.8090 C.ar   40  TYR40      -0.0009
     68  CE1       29.7450  -29.2260   13.2620 C.ar   40  TYR40       0.0417
     69  CE2       30.6530  -29.8520   15.3660 C.ar   40  TYR40       0.0417
     70  CZ        30.3130  -30.1710   14.0850 C.ar   40  TYR40       0.1957
     71  OH        30.4470  -31.4850   13.7310 O.3    40  TYR40      -0.2866
     72  N         28.4170  -23.6350   16.6880 N.am   41  VAL41      -0.1980
     73  CA        28.5110  -22.5800   17.6670 C.3    41  VAL41       0.1595
     74  C         27.3770  -22.6550   18.6650 C.2    41  VAL41       0.2287
     75  O         27.6230  -22.6180   19.9010 O.2    41  VAL41      -0.2864
     76  CB        28.5300  -21.1870   17.0140 C.3    41  VAL41       0.0276
     77  CG1       28.3380  -20.1020   18.0950 C.3    41  VAL41       0.0022
     78  CG2       29.8670  -21.0350   16.2860 C.3    41  VAL41       0.0022
     79  N         27.5950  -25.8630   20.9360 N.3    44  ILE44      -0.1231
     80  CA        28.6620  -25.7740   21.9370 C.3    44  ILE44       0.1692
     81  C         28.2540  -24.8640   23.0770 C.2    44  ILE44       0.2591
     82  O         28.4900  -25.2030   24.2470 O.2    44  ILE44      -0.2718
     83  CB        29.9840  -25.3300   21.2780 C.3    44  ILE44       0.0266
     84  CG1       30.4980  -26.4900   20.4030 C.3    44  ILE44       0.0019
     85  CG2       31.0330  -24.9340   22.3090 C.3    44  ILE44       0.0020
     86  CD1       31.4320  -26.0530   19.2870 C.3    44  ILE44       0.0001
     87  N         27.6320  -23.7420   22.7340 N.am   45  LEU45      -0.1980
     88  CA        27.2170  -22.7610   23.7210 C.3    45  LEU45       0.1596
     89  C         26.2430  -23.3200   24.7320 C.2    45  LEU45       0.2287
     90  O         26.3200  -23.0080   25.9410 O.2    45  LEU45      -0.2864
     91  CB        26.6470  -21.5180   23.0190 C.3    45  LEU45       0.0297
     92  CG        26.3150  -20.2960   23.9150 C.3    45  LEU45       0.0022
     93  CD1       27.4870  -19.8120   24.7770 C.3    45  LEU45       0.0001
     94  CD2       25.7310  -19.1440   23.0950 C.3    45  LEU45       0.0001
     95  N         28.0280  -25.4390   27.3070 N.3    48  ALA48      -0.1245
     96  CA        28.8320  -24.4900   28.0610 C.3    48  ALA48       0.1562
     97  C         27.9860  -23.7420   29.1510 C.2    48  ALA48       0.2260
     98  O         28.3350  -23.7110   30.3810 O.2    48  ALA48      -0.2867
     99  CB        29.5320  -23.5130   27.1530 C.3    48  ALA48       0.0290
    100  N         27.0260  -26.2840   31.8090 N.3    51  ALA51      -0.1231
    101  CA        28.1210  -26.7210   32.6880 C.3    51  ALA51       0.1694
    102  C         28.3780  -25.6380   33.7070 C.2    51  ALA51       0.2591
    103  O         28.5530  -25.9310   34.8770 O.2    51  ALA51      -0.2718
    104  CB        29.3900  -27.0600   31.8970 C.3    51  ALA51       0.0304
    105  N         28.3690  -24.3760   33.2840 N.am   52  ALA52      -0.1980
    106  CA        28.6440  -23.2730   34.1680 C.3    52  ALA52       0.1597
    107  C         27.5640  -23.1020   35.2560 C.2    52  ALA52       0.2287
    108  O         27.8130  -22.8450   36.4460 O.2    52  ALA52      -0.2864
    109  CB        28.8400  -22.0100   33.3470 C.3    52  ALA52       0.0319
    110  N         27.8970  -26.1050   37.6940 N.3    55  LEU55      -0.1245
    111  CA        29.0460  -25.8460   38.6160 C.3    55  LEU55       0.1561
    112  C         28.7310  -24.8010   39.7070 C.2    55  LEU55       0.2260
    113  O         29.1060  -24.9590   40.9060 O.2    55  LEU55      -0.2867
    114  CB        30.2550  -25.4300   37.8350 C.3    55  LEU55       0.0270
    115  CG        31.5560  -25.3160   38.6330 C.3    55  LEU55       0.0019
    116  CD1       31.9540  -26.6770   39.2010 C.3    55  LEU55       0.0001
    117  CD2       32.6390  -24.6600   37.8190 C.3    55  LEU55       0.0001
@<TRIPOS>BOND
     1    59    58    1
     2    46    47    2
     3    46    45    1
     4    58    57    1
     5    45    44    1
     6    45    48    1
     7    49    48    1
     8    51    52    1
     9    57    56    1
    10    48    50    1
    11    56    55    1
    12    55    52    1
    13    52    53    1
    14    39    38    2
    15    53    54    2
    16    38    37    1
    17    68    66   ar
    18    68    70   ar
    19    35    34    2
    20    71    70    1
    21    66    65   ar
    22    70    69   ar
    23    34    36   am
    24    34    33    1
    25    37    36    1
    26    37    40    1
    27    33    32    1
    28    65    64    1
    29    65    67   ar
    30    40    41    1
    31    60    61    1
    32    69    67   ar
    33    64    61    1
    34    61    62    1
    35    78    76    1
    36    41    42    1
    37    41    43    1
    38    72    62   am
    39    72    73    1
    40    76    73    1
    41    76    77    1
    42    62    63    2
    43    73    74    1
    44    27    26    2
    45    74    75    2
    46    26    25    1
    47    86    84    1
    48    25    24    1
    49    25    28    1
    50    84    83    1
    51    30    28    1
    52    79    80    1
    53    28    29    1
    54    83    80    1
    55    83    85    1
    56    29    31    1
    57    80    81    1
    58    87    81   am
    59    87    88    1
    60    91    88    1
    61    91    92    1
    62    81    82    2
    63    94    92    1
    64    19    18    2
    65    88    89    1
    66    92    93    1
    67    18    17    1
    68    89    90    2
    69    17    16    1
    70    17    20    1
    71    21    20    1
    72    21    22    1
    73    22    23    1
    74    99    96    1
    75    95    96    1
    76    11    10    2
    77    96    97    1
    78    10     9    1
    79    97    98    2
    80     9     8    1
    81     9    12    1
    82    14    13    1
    83    13    12    1
    84    13    15    1
    85   100   101    1
    86   104   101    1
    87   101   102    1
    88   105   102   am
    89   105   106    1
    90     4     3    2
    91   109   106    1
    92   102   103    2
    93   106   107    1
    94     3     2    1
    95   107   108    2
    96     2     1    1
    97     2     5    1
    98     7     5    1
    99     5     6    1
   100   110   111    1
   101   117   115    1
   102   114   111    1
   103   114   115    1
   104   111   112    1
   105   115   116    1
   106   112   113    2
