@<TRIPOS>MOLECULE
tmp/4qi5A03.pdb
 78 75 0 0 0
SMALL
GASTEIGER

@<TRIPOS>ATOM
      1  N         78.4510   -8.3800  -17.7250 N.3    40  PHE40      -0.1227
      2  CA        77.3180   -7.6710  -18.3090 C.3    40  PHE40       0.1736
      3  C         77.1890   -7.9440  -19.7990 C.2    40  PHE40       0.2595
      4  O         78.0220   -8.6290  -20.3840 O.2    40  PHE40      -0.2718
      5  CB        77.4550   -6.1690  -18.0730 C.3    40  PHE40       0.0547
      6  CG        78.7900   -5.5950  -18.5080 C.ar   40  PHE40      -0.0202
      7  CD1       79.0770   -5.3920  -19.8570 C.ar   40  PHE40      -0.0042
      8  CD2       79.7390   -5.2250  -17.5690 C.ar   40  PHE40      -0.0042
      9  CE1       80.2950   -4.8530  -20.2680 C.ar   40  PHE40      -0.0003
     10  CE2       80.9690   -4.6810  -17.9700 C.ar   40  PHE40      -0.0003
     11  CZ        81.2430   -4.4950  -19.3250 C.ar   40  PHE40      -0.0000
     12  N         76.1520   -7.3760  -20.4020 N.am   41  ALA41      -0.1980
     13  CA        75.8800   -7.5420  -21.8180 C.3    41  ALA41       0.1597
     14  C         77.0620   -7.0300  -22.6430 C.2    41  ALA41       0.2287
     15  O         77.6690   -6.0290  -22.2880 O.2    41  ALA41      -0.2864
     16  CB        74.5990   -6.8150  -22.1870 C.3    41  ALA41       0.0319
     17  N         72.4020   -6.7650  -26.2420 N.3    47  GLY47      -0.1210
     18  CA        72.0580   -5.4870  -25.6460 C.3    47  GLY47       0.1956
     19  C         73.2260   -4.7440  -25.0130 C.2    47  GLY47       0.2612
     20  O         73.0160   -3.8250  -24.2410 O.2    47  GLY47      -0.2717
     21  N         74.4540   -5.1540  -25.3130 N.am   48  GLY48      -0.1942
     22  CA        75.6250   -4.4560  -24.8110 C.3    48  GLY48       0.2014
     23  C         75.7160   -3.0860  -25.4620 C.2    48  GLY48       0.2640
     24  O         75.3630   -2.9280  -26.6300 O.2    48  GLY48      -0.2714
     25  N         76.0740   -2.0740  -24.6850 N.am   49  THR49      -0.1936
     26  CA        76.3190   -0.7340  -25.2300 C.3    49  THR49       0.2028
     27  C         77.7780   -0.2260  -25.3220 C.2    49  THR49       0.2642
     28  O         78.0310    0.8590  -25.8660 O.2    49  THR49      -0.2714
     29  CB        75.5300    0.2920  -24.4210 C.3    49  THR49       0.1808
     30  OG1       75.8960    0.1880  -23.0340 O.3    49  THR49      -0.2208
     31  CG2       74.0370    0.0370  -24.5860 C.3    49  THR49       0.0379
     32  N         78.7300   -0.9940  -24.8040 N.am   50  LEU50      -0.1977
     33  CA        80.0680   -0.4650  -24.5310 C.3    50  LEU50       0.1596
     34  C         80.9720   -0.3850  -25.7750 C.2    50  LEU50       0.2287
     35  O         81.0910   -1.3530  -26.5270 O.2    50  LEU50      -0.2864
     36  CB        80.7130   -1.3260  -23.4440 C.3    50  LEU50       0.0297
     37  CG        82.0840   -1.0050  -22.8620 C.3    50  LEU50       0.0022
     38  CD1       82.1010    0.3880  -22.2300 C.3    50  LEU50       0.0001
     39  CD2       82.4640   -2.0940  -21.8530 C.3    50  LEU50       0.0001
     40  N         72.3670  -11.4500  -15.4810 N.3   214  LEU214     -0.1231
     41  CA        73.6850  -10.8660  -15.6370 C.3   214  LEU214      0.1693
     42  C         74.1420  -10.2890  -14.3140 C.2   214  LEU214      0.2592
     43  O         73.3950  -10.3160  -13.3370 O.2   214  LEU214     -0.2718
     44  CB        73.6630   -9.7910  -16.7090 C.3   214  LEU214      0.0284
     45  CG        73.2280  -10.3190  -18.0650 C.3   214  LEU214      0.0019
     46  CD1       73.1810   -9.1710  -19.0500 C.3   214  LEU214      0.0001
     47  CD2       74.2120  -11.3870  -18.5190 C.3   214  LEU214      0.0001
     48  N         75.3720   -9.7880  -14.2820 N.am  215  ASN215     -0.1974
     49  CA        75.8960   -9.0720  -13.1250 C.3   215  ASN215      0.1688
     50  C         75.8190   -9.8610  -11.8060 C.2   215  ASN215      0.2292
     51  O         75.8190   -9.2780  -10.7070 O.2   215  ASN215     -0.2864
     52  CB        75.1570   -7.7360  -12.9760 C.3   215  ASN215      0.1181
     53  CG        75.3770   -6.8180  -14.1580 C.2   215  ASN215      0.2629
     54  OD1       76.2310   -7.0680  -15.0000 O.2   215  ASN215     -0.2716
     55  ND2       74.6140   -5.7410  -14.2170 N.am  215  ASN215     -0.0877
     56  N         77.7210   -6.7410   -9.9970 N.3   237  ARG237     -0.1231
     57  CA        77.3850   -5.3360  -10.2610 C.3   237  ARG237      0.1694
     58  C         75.9240   -5.1130   -9.8800 C.2   237  ARG237      0.2592
     59  O         75.1920   -6.0860   -9.6760 O.2   237  ARG237     -0.2718
     60  CB        77.6100   -4.9660  -11.7350 C.3   237  ARG237      0.0321
     61  CG        79.0360   -4.6040  -12.0800 C.3   237  ARG237      0.0489
     62  CD        79.1920   -4.1170  -13.5410 C.3   237  ARG237      0.2205
     63  NE        80.6030   -3.8580  -13.8220 N.pl3 237  ARG237     -0.0865
     64  CZ        81.4710   -4.8090  -14.1680 C.cat 237  ARG237      0.5346
     65  NH1       81.0560   -6.0720  -14.3020 N.pl3 237  ARG237      0.1354
     66  NH2       82.7500   -4.5120  -14.3760 N.pl3 237  ARG237      0.1354
     67  N         75.4900   -3.8490   -9.8060 N.am  238  ASP238     -0.1960
     68  CA        74.0890   -3.5340   -9.5030 C.3   238  ASP238      0.1840
     69  C         73.1560   -4.2520  -10.4470 C.2   238  ASP238      0.2622
     70  O         73.3760   -4.2550  -11.6630 O.2   238  ASP238     -0.2715
     71  CB        73.8060   -2.0330   -9.6000 C.3   238  ASP238      0.1450
     72  CG        72.2990   -1.7090   -9.5650 C.2   238  ASP238      0.3671
     73  OD1       71.7040   -1.4450  -10.6370 O.co2 238  ASP238     -0.2456
     74  OD2       71.7060   -1.7200   -8.4620 O.co2 238  ASP238     -0.2456
     75  N         72.1040   -4.8400   -9.8940 N.am  239  GLY239     -0.1954
     76  CA        71.1050   -5.5030  -10.7050 C.3   239  GLY239      0.1869
     77  C         71.3830   -6.9850  -10.8190 C.2   239  GLY239      0.2309
     78  O         70.6360   -7.7160  -11.4650 O.2   239  GLY239     -0.2863
@<TRIPOS>BOND
     1    24    23    2
     2    35    34    2
     3    17    18    1
     4    28    27    2
     5    34    33    1
     6    18    19    1
     7    23    22    1
     8    23    25   am
     9    27    26    1
    10    27    32   am
    11    21    19   am
    12    21    22    1
    13    26    25    1
    14    26    29    1
    15    19    20    2
    16    32    33    1
    17    31    29    1
    18    33    36    1
    19    29    30    1
    20    36    37    1
    21    37    38    1
    22    37    39    1
    23    14    15    2
    24    14    13    1
    25    16    13    1
    26    13    12    1
    27    12     3   am
    28     4     3    2
    29     9     7   ar
    30     9    11   ar
    31     7     6   ar
    32     3     2    1
    33    11    10   ar
    34    46    45    1
    35    47    45    1
    36     6     5    1
    37     6     8   ar
    38     2     5    1
    39     2     1    1
    40    45    44    1
    41    10     8   ar
    42    44    41    1
    43    41    40    1
    44    41    42    1
    45    54    53    2
    46    66    64    1
    47    42    48   am
    48    42    43    2
    49    65    64    1
    50    48    49    1
    51    55    53   am
    52    64    63    2
    53    53    52    1
    54    63    62    1
    55    62    61    1
    56    49    52    1
    57    49    50    1
    58    61    60    1
    59    50    51    2
    60    60    57    1
    61    70    69    2
    62    78    77    2
    63    77    76    1
    64    76    75    1
    65    73    72   ar
    66    69    75   am
    67    69    68    1
    68    57    56    1
    69    57    58    1
    70    58    67   am
    71    58    59    2
    72    67    68    1
    73    71    72    1
    74    71    68    1
    75    72    74   ar
