@<TRIPOS>MOLECULE
tmp/4qi5A01.pdb
 165 157 0 0 0
SMALL
GASTEIGER

@<TRIPOS>ATOM
      1  N         91.8970   -6.3580  -30.2090 N.3    70  ASN70      -0.1240
      2  CA        93.1250   -6.2540  -29.4200 C.3    70  ASN70       0.1653
      3  C         93.0890   -5.1900  -28.3390 C.2    70  ASN70       0.2266
      4  O         94.0200   -5.1120  -27.5480 O.2    70  ASN70      -0.2867
      5  CB        94.3350   -6.0420  -30.3290 C.3    70  ASN70       0.1155
      6  CG        95.0730   -7.3550  -30.6130 C.2    70  ASN70       0.2627
      7  OD1       94.6660   -8.4230  -30.1240 O.2    70  ASN70      -0.2716
      8  ND2       96.1420   -7.2900  -31.4110 N.am   70  ASN70      -0.0877
      9  N         93.9070   -5.9600  -24.6880 N.3    73  TRP73      -0.1241
     10  CA        95.2830   -5.9610  -24.1910 C.3    73  TRP73       0.1605
     11  C         95.7660   -4.6230  -23.6270 C.2    73  TRP73       0.2264
     12  O         96.6810   -4.5950  -22.8040 O.2    73  TRP73      -0.2867
     13  CB        96.2350   -6.4220  -25.2890 C.3    73  TRP73       0.0550
     14  CG        95.9920   -7.8420  -25.6620 C.ar   73  TRP73       0.0003
     15  CD1       95.5850   -8.3200  -26.8820 C.ar   73  TRP73       0.0946
     16  CD2       96.1060   -8.9840  -24.8010 C.ar   73  TRP73       0.0152
     17  NE1       95.4580   -9.6920  -26.8320 N.ar   73  TRP73      -0.2442
     18  CE2       95.7720  -10.1230  -25.5690 C.ar   73  TRP73       0.0810
     19  CE3       96.4750   -9.1560  -23.4610 C.ar   73  TRP73       0.0012
     20  CZ2       95.7890  -11.4110  -25.0400 C.ar   73  TRP73       0.0191
     21  CZ3       96.4890  -10.4450  -22.9330 C.ar   73  TRP73       0.0001
     22  CH2       96.1490  -11.5520  -23.7230 C.ar   73  TRP73       0.0015
     23  N         87.9100  -12.8540  -27.3440 N.3    99  ASN99      -0.1225
     24  CA        89.0530  -13.5170  -27.9960 C.3    99  ASN99       0.1785
     25  C         89.2210  -13.0440  -29.4300 C.2    99  ASN99       0.2597
     26  O         88.5110  -12.1470  -29.8600 O.2    99  ASN99      -0.2718
     27  CB        88.9450  -15.0500  -27.9390 C.3    99  ASN99       0.1169
     28  CG        87.7240  -15.6030  -28.6450 C.2    99  ASN99       0.2627
     29  OD1       87.0160  -14.8930  -29.3590 O.2    99  ASN99      -0.2716
     30  ND2       87.4700  -16.8990  -28.4400 N.am   99  ASN99      -0.0877
     31  N         90.1730  -13.6270  -30.1580 N.am  100  ALA100     -0.1979
     32  CA        90.4350  -13.2170  -31.5410 C.3   100  ALA100      0.1597
     33  C         89.4300  -13.8590  -32.5030 C.2   100  ALA100      0.2287
     34  O         89.3700  -13.5010  -33.6730 O.2   100  ALA100     -0.2864
     35  CB        91.8710  -13.5720  -31.9400 C.3   100  ALA100      0.0319
     36  N         89.2680  -17.0280  -33.6510 N.3   102  LEU102     -0.1245
     37  CA        89.7260  -18.1420  -34.4760 C.3   102  LEU102      0.1561
     38  C         88.8700  -19.3590  -34.1560 C.2   102  LEU102      0.2260
     39  O         88.5550  -19.6210  -32.9940 O.2   102  LEU102     -0.2867
     40  CB        91.2040  -18.4270  -34.2570 C.3   102  LEU102      0.0270
     41  CG        92.1140  -17.3560  -34.8500 C.3   102  LEU102      0.0019
     42  CD1       93.4740  -17.4040  -34.1910 C.3   102  LEU102      0.0001
     43  CD2       92.2120  -17.5190  -36.3640 C.3   102  LEU102      0.0001
     44  N        103.2730  -21.2710  -25.6130 N.3   311  ASN311     -0.1240
     45  CA       103.5380  -20.3120  -26.6700 C.3   311  ASN311      0.1653
     46  C        105.0190  -19.9310  -26.7370 C.2   311  ASN311      0.2266
     47  O        105.6270  -19.5860  -25.7220 O.2   311  ASN311     -0.2867
     48  CB       102.6760  -19.0650  -26.4780 C.3   311  ASN311      0.1155
     49  CG       102.9690  -17.9980  -27.5090 C.2   311  ASN311      0.2627
     50  OD1      102.6040  -18.1230  -28.6850 O.2   311  ASN311     -0.2716
     51  ND2      103.6430  -16.9390  -27.0760 N.am  311  ASN311     -0.0877
     52  N         95.3020   -0.5350  -33.0150 N.3   327  TYR327     -0.1241
     53  CA        95.1090    0.2170  -31.7870 C.3   327  TYR327      0.1605
     54  C         94.6800    1.6410  -32.1140 C.2   327  TYR327      0.2264
     55  O         93.8070    2.1880  -31.4380 O.2   327  TYR327     -0.2867
     56  CB        96.3710    0.2100  -30.9240 C.3   327  TYR327      0.0534
     57  CG        96.6340   -1.1220  -30.2520 C.ar  327  TYR327     -0.0201
     58  CD1       97.6440   -1.9790  -30.7110 C.ar  327  TYR327     -0.0009
     59  CD2       95.8680   -1.5310  -29.1650 C.ar  327  TYR327     -0.0009
     60  CE1       97.8820   -3.1900  -30.0970 C.ar  327  TYR327      0.0417
     61  CE2       96.0980   -2.7470  -28.5480 C.ar  327  TYR327      0.0417
     62  CZ        97.1040   -3.5700  -29.0160 C.ar  327  TYR327      0.1957
     63  OH        97.3290   -4.7770  -28.4040 O.3   327  TYR327     -0.2866
     64  N         92.2640   -8.2810  -35.1840 N.3   353  ALA353     -0.1231
     65  CA        93.5610   -7.6520  -34.9290 C.3   353  ALA353      0.1679
     66  C         94.5580   -8.6700  -34.3620 C.2   353  ALA353      0.2434
     67  O         94.1530   -9.6850  -33.7820 O.2   353  ALA353     -0.2733
     68  CB        93.3980   -6.4600  -33.9530 C.3   353  ALA353      0.0304
     69  N         95.8660   -8.4660  -34.6180 N.am  354  PRO354     -0.2729
     70  CA        96.4170   -7.6340  -35.6920 C.3   354  PRO354      0.1401
     71  C         96.1810   -8.4510  -36.9420 C.2   354  PRO354      0.2269
     72  O         95.4020   -9.3880  -36.8510 O.2   354  PRO354     -0.2865
     73  CB        97.8910   -7.4880  -35.3330 C.3   354  PRO354      0.0296
     74  CG        98.1980   -8.6990  -34.5310 C.3   354  PRO354      0.0237
     75  CD        96.9260   -9.2010  -33.9040 C.3   354  PRO354      0.0939
     76  N         95.7010  -11.2880  -39.0340 N.3   356  ILE356     -0.1245
     77  CA        96.1540  -12.6320  -38.6320 C.3   356  ILE356      0.1561
     78  C         96.3790  -13.5300  -39.8400 C.2   356  ILE356      0.2260
     79  O         95.4540  -14.0630  -40.4380 O.2   356  ILE356     -0.2867
     80  CB        95.1970  -13.3190  -37.6460 C.3   356  ILE356      0.0252
     81  CG1       95.2180  -12.5890  -36.3020 C.3   356  ILE356      0.0019
     82  CG2       95.6590  -14.7380  -37.3980 C.3   356  ILE356      0.0019
     83  CD1       94.4790  -13.3110  -35.1880 C.3   356  ILE356      0.0001
     84  N        100.7050  -19.4560  -35.4870 N.3   377  THR377     -0.1218
     85  CA        99.8340  -18.3490  -35.8680 C.3   377  THR377      0.1862
     86  C        100.7200  -17.1980  -36.3310 C.2   377  THR377      0.2287
     87  O        101.4630  -16.6380  -35.5210 O.2   377  THR377     -0.2866
     88  CB        98.9410  -17.8810  -34.6940 C.3   377  THR377      0.1770
     89  OG1       98.1810  -18.9860  -34.2030 O.3   377  THR377     -0.2211
     90  CG2       97.9850  -16.7800  -35.1250 C.3   377  THR377      0.0375
     91  N        100.9320  -13.3310  -37.5060 N.3   379  ARG379     -0.1245
     92  CA       100.1590  -12.0980  -37.4470 C.3   379  ARG379      0.1563
     93  C        101.0970  -10.9250  -37.7530 C.2   379  ARG379      0.2260
     94  O        102.3020  -11.0290  -37.5320 O.2   379  ARG379     -0.2867
     95  CB        99.4920  -11.9390  -36.0730 C.3   379  ARG379      0.0307
     96  CG       100.4700  -11.8670  -34.9130 C.3   379  ARG379      0.0489
     97  CD        99.7750  -11.6600  -33.5830 C.3   379  ARG379      0.2205
     98  NE        99.2710  -12.9120  -33.0260 N.pl3 379  ARG379     -0.0865
     99  CZ        99.8540  -13.5830  -32.0350 C.cat 379  ARG379      0.5346
    100  NH1      100.9630  -13.1120  -31.4700 N.pl3 379  ARG379      0.1354
    101  NH2       99.3130  -14.7180  -31.5990 N.pl3 379  ARG379      0.1354
    102  N        102.6580   -7.8170  -36.7460 N.3   381  GLU381     -0.1245
    103  CA       102.8580   -7.1170  -35.4860 C.3   381  GLU381      0.1567
    104  C        104.2440   -7.4580  -34.9790 C.2   381  GLU381      0.2260
    105  O        104.7450   -8.5300  -35.2670 O.2   381  GLU381     -0.2867
    106  CB       101.8000   -7.5530  -34.4640 C.3   381  GLU381      0.0388
    107  CG       101.5000   -6.5550  -33.3780 C.3   381  GLU381      0.1160
    108  CD       100.6370   -7.1420  -32.2840 C.2   381  GLU381      0.3649
    109  OE1       99.9760   -6.3560  -31.5740 O.co2 381  GLU381     -0.2457
    110  OE2      100.6280   -8.3840  -32.1300 O.co2 381  GLU381     -0.2457
    111  N        102.5140  -22.7530  -31.0560 N.3   397  TYR397     -0.1241
    112  CA       101.7900  -23.3790  -29.9540 C.3   397  TYR397      0.1605
    113  C        102.1910  -24.8390  -29.8810 C.2   397  TYR397      0.2264
    114  O        102.1120  -25.5530  -30.8910 O.2   397  TYR397     -0.2867
    115  CB       100.2710  -23.2830  -30.1340 C.3   397  TYR397      0.0534
    116  CG        99.6410  -21.9100  -29.9870 C.ar  397  TYR397     -0.0201
    117  CD1      100.3720  -20.8180  -29.5240 C.ar  397  TYR397     -0.0009
    118  CD2       98.3050  -21.7120  -30.3210 C.ar  397  TYR397     -0.0009
    119  CE1       99.7870  -19.5740  -29.3970 C.ar  397  TYR397      0.0417
    120  CE2       97.7090  -20.4680  -30.1990 C.ar  397  TYR397      0.0417
    121  CZ        98.4550  -19.4030  -29.7350 C.ar  397  TYR397      0.1957
    122  OH        97.8660  -18.1600  -29.6150 O.3   397  TYR397     -0.2866
    123  N        102.3050  -18.0110  -21.8810 N.3   476  ARG476     -0.1231
    124  CA       100.9460  -18.5330  -21.9420 C.3   476  ARG476      0.1694
    125  C        100.2780  -18.3030  -23.3140 C.2   476  ARG476      0.2593
    126  O        100.6040  -17.3450  -24.0470 O.2   476  ARG476     -0.2718
    127  CB       100.0860  -17.9060  -20.8530 C.3   476  ARG476      0.0321
    128  CG        99.5570  -16.5280  -21.2460 C.3   476  ARG476      0.0489
    129  CD        98.9910  -15.7870  -20.0590 C.3   476  ARG476      0.2205
    130  NE        98.6770  -14.4220  -20.4400 N.pl3 476  ARG476     -0.0865
    131  CZ        98.3140  -13.4740  -19.5900 C.cat 476  ARG476      0.5346
    132  NH1       98.2280  -13.7510  -18.2900 N.pl3 476  ARG476      0.1354
    133  NH2       98.0480  -12.2520  -20.0470 N.pl3 476  ARG476      0.1354
    134  N         99.3820  -19.2220  -23.6770 N.am  477  SER477     -0.1938
    135  CA        98.4890  -19.0300  -24.8130 C.3   477  SER477      0.2055
    136  C         97.0440  -18.6380  -24.4690 C.2   477  SER477      0.2643
    137  O         96.2250  -18.5060  -25.3820 O.2   477  SER477     -0.2714
    138  CB        98.4850  -20.2860  -25.6670 C.3   477  SER477      0.2130
    139  OG        99.7980  -20.5750  -26.1080 O.3   477  SER477     -0.2179
    140  N         96.7290  -18.4820  -23.1790 N.am  478  ASN478     -0.1957
    141  CA        95.3720  -18.1320  -22.7250 C.3   478  ASN478      0.1819
    142  C         94.3380  -19.2060  -23.0690 C.2   478  ASN478      0.2621
    143  O         93.1410  -18.9400  -23.1860 O.2   478  ASN478     -0.2715
    144  CB        94.9310  -16.7830  -23.3180 C.3   478  ASN478      0.1195
    145  CG        95.9930  -15.7140  -23.1750 C.2   478  ASN478      0.2630
    146  OD1       96.3240  -15.3160  -22.0660 O.2   478  ASN478     -0.2716
    147  ND2       96.5390  -15.2520  -24.2910 N.am  478  ASN478     -0.0877
    148  N         94.8500  -20.4070  -23.2850 N.am  479  HIS479     -0.1973
    149  CA        94.0990  -21.6310  -23.5840 C.3   479  HIS479      0.1656
    150  C         93.9710  -22.6020  -22.4090 C.2   479  HIS479      0.2291
    151  O         94.0610  -23.8180  -22.6060 O.2   479  HIS479     -0.2864
    152  CB        94.6870  -22.3030  -24.8030 C.3   479  HIS479      0.0771
    153  CG        94.5820  -21.4550  -26.0240 C.ar  479  HIS479      0.0820
    154  ND1       95.2200  -21.7540  -27.2080 N.ar  479  HIS479     -0.2267
    155  CD2       93.8950  -20.3090  -26.2390 C.ar  479  HIS479      0.1154
    156  CE1       94.9340  -20.8230  -28.1010 C.ar  479  HIS479      0.1986
    157  NE2       94.1340  -19.9360  -27.5380 N.ar  479  HIS479     -0.2212
    158  N         93.3360  -23.5210  -31.4940 N.3   526  ASN526     -0.1240
    159  CA        92.6040  -22.6400  -30.5750 C.3   526  ASN526      0.1653
    160  C         91.2930  -23.3220  -30.1490 C.2   526  ASN526      0.2266
    161  O         90.4610  -23.6560  -30.9890 O.2   526  ASN526     -0.2867
    162  CB        92.3030  -21.2820  -31.2200 C.3   526  ASN526      0.1155
    163  CG        93.5240  -20.6320  -31.8410 C.2   526  ASN526      0.2627
    164  OD1       93.9980  -21.0550  -32.9020 O.2   526  ASN526     -0.2716
    165  ND2       94.0080  -19.5610  -31.2150 N.am  526  ASN526     -0.0877
@<TRIPOS>BOND
     1    79    78    2
     2    78    77    1
     3    76    77    1
     4    77    80    1
     5    93    94    2
     6    93    92    1
     7    80    82    1
     8    80    81    1
     9    91    92    1
    10    92    95    1
    11    71    72    2
    12    71    70    1
    13   102   103    1
    14    43    41    1
    15    86    85    1
    16    86    87    2
    17    81    83    1
    18    95    96    1
    19    85    84    1
    20    85    88    1
    21    70    73    1
    22    70    69    1
    23   103   104    1
    24   103   106    1
    25    73    74    1
    26   105   104    2
    27    64    65    1
    28    90    88    1
    29    65    66    1
    30    65    68    1
    31    96    97    1
    32    41    40    1
    33    41    42    1
    34    88    89    1
    35    69    66   am
    36    69    75    1
    37    74    75    1
    38    37    40    1
    39    37    38    1
    40    37    36    1
    41   106   107    1
    42    66    67    2
    43    38    39    2
    44    34    33    2
    45    97    98    1
    46   107   108    1
    47    98    99    2
    48    52    53    1
    49   164   163    2
    50    33    32    1
    51   108   110   ar
    52   108   109   ar
    53    54    53    1
    54    54    55    2
    55    99   101    1
    56    99   100    1
    57    35    32    1
    58   163   162    1
    59   163   165   am
    60    53    56    1
    61    32    31    1
    62   158   159    1
    63     8     6   am
    64   162   159    1
    65   111   112    1
    66   161   160    2
    67    56    57    1
    68   114   113    2
    69    58    57   ar
    70    58    60   ar
    71     6     5    1
    72     6     7    2
    73   159   160    1
    74     5     2    1
    75   118   120   ar
    76   118   116   ar
    77    57    59   ar
    78     1     2    1
    79   120   121   ar
    80    31    25   am
    81   115   116    1
    82   115   112    1
    83    60    62   ar
    84   116   117   ar
    85   112   113    1
    86    26    25    2
    87   121   122    1
    88   121   119   ar
    89   117   119   ar
    90    25    24    1
    91     2     3    1
    92    29    28    2
    93    59    61   ar
    94    62    61   ar
    95    62    63    1
    96    50    49    2
    97    28    30   am
    98    28    27    1
    99     3     4    2
   100   156   157   ar
   101   156   154   ar
   102    24    27    1
   103    24    23    1
   104   157   155   ar
   105    49    51   am
   106    49    48    1
   107   154   153   ar
   108    15    17   ar
   109    15    14   ar
   110    17    18   ar
   111    46    45    1
   112    46    47    2
   113    45    48    1
   114    45    44    1
   115   155   153   ar
   116   139   138    1
   117   153   152    1
   118   138   135    1
   119    14    13    1
   120    14    16   ar
   121    18    20   ar
   122    18    16   ar
   123   137   136    2
   124    13    10    1
   125    20    22   ar
   126   135   136    1
   127   135   134    1
   128   152   149    1
   129    16    19   ar
   130     9    10    1
   131   136   140   am
   132   147   145   am
   133    10    11    1
   134   126   125    2
   135    22    21   ar
   136   134   125   am
   137    11    12    2
   138   149   148    1
   139   149   150    1
   140    19    21   ar
   141   144   145    1
   142   144   141    1
   143   125   124    1
   144   148   142   am
   145   143   142    2
   146   140   141    1
   147   145   146    2
   148   142   141    1
   149   151   150    2
   150   124   123    1
   151   124   127    1
   152   128   127    1
   153   128   129    1
   154   130   129    1
   155   130   131    2
   156   133   131    1
   157   131   132    1
