@<TRIPOS>MOLECULE
tmp/4qi7A00.pdb
 190 188 0 0 0
SMALL
GASTEIGER

@<TRIPOS>ATOM
      1  N        130.9770  -17.8530  166.2290 N.3    64  TRP64      -0.1241
      2  CA       131.4660  -19.1110  165.7330 C.3    64  TRP64       0.1605
      3  C        130.4370  -20.1980  165.9960 C.2    64  TRP64       0.2264
      4  O        129.5420  -20.0420  166.8250 O.2    64  TRP64      -0.2867
      5  CB       132.8290  -19.4480  166.3490 C.3    64  TRP64       0.0550
      6  CG       132.9000  -19.3920  167.8430 C.ar   64  TRP64       0.0003
      7  CD1      133.1170  -18.2880  168.6170 C.ar   64  TRP64       0.0946
      8  CD2      132.7880  -20.4990  168.7450 C.ar   64  TRP64       0.0152
      9  NE1      133.1370  -18.6410  169.9470 N.ar   64  TRP64      -0.2442
     10  CE2      132.9340  -19.9920  170.0510 C.ar   64  TRP64       0.0810
     11  CE3      132.5690  -21.8720  168.5730 C.ar   64  TRP64       0.0012
     12  CZ2      132.8680  -20.8060  171.1790 C.ar   64  TRP64       0.0191
     13  CZ3      132.5030  -22.6810  169.6930 C.ar   64  TRP64       0.0001
     14  CH2      132.6530  -22.1470  170.9800 C.ar   64  TRP64       0.0015
     15  N        129.6550  -24.6150  166.2380 N.3    66  GLY66      -0.1210
     16  CA       130.2650  -25.8800  166.5730 C.3    66  GLY66       0.1956
     17  C        129.3150  -27.0480  166.4780 C.2    66  GLY66       0.2612
     18  O        128.0980  -26.8920  166.5910 O.2    66  GLY66      -0.2717
     19  N        129.8900  -28.2270  166.2710 N.am   67  VAL67      -0.1965
     20  CA       129.1450  -29.4700  166.2740 C.3    67  VAL67       0.1727
     21  C        129.9660  -30.5470  166.9900 C.2    67  VAL67       0.2616
     22  O        131.1660  -30.6830  166.7630 O.2    67  VAL67      -0.2715
     23  CB       128.7900  -29.9080  164.8420 C.3    67  VAL67       0.0290
     24  CG1      128.3200  -31.3570  164.8090 C.3    67  VAL67       0.0023
     25  CG2      127.7310  -28.9990  164.2680 C.3    67  VAL67       0.0023
     26  N        129.3190  -31.2820  167.8870 N.am   68  SER68      -0.1950
     27  CA       129.9490  -32.4130  168.5470 C.3    68  SER68       0.1924
     28  C        129.4050  -33.6780  167.8990 C.2    68  SER68       0.2314
     29  O        128.2080  -33.7840  167.6550 O.2    68  SER68      -0.2863
     30  CB       129.6750  -32.3830  170.0470 C.3    68  SER68       0.2116
     31  OG       130.3630  -33.4270  170.7100 O.3    68  SER68      -0.2180
     32  N        128.0540  -36.0080  170.3650 N.3    71  GLY71      -0.1210
     33  CA       127.1690  -35.0070  170.9630 C.3    71  GLY71       0.1956
     34  C        127.5260  -34.3390  172.2820 C.2    71  GLY71       0.2612
     35  O        127.1590  -33.1910  172.5360 O.2    71  GLY71      -0.2717
     36  N        128.2900  -35.0260  173.1070 N.am   72  ALA72      -0.1965
     37  CA       128.8140  -34.4210  174.3090 C.3    72  ALA72       0.1728
     38  C        130.0760  -33.6800  173.8950 C.2    72  ALA72       0.2616
     39  O        130.7480  -34.1180  172.9590 O.2    72  ALA72      -0.2715
     40  CB       129.0970  -35.4860  175.3580 C.3    72  ALA72       0.0334
     41  N        130.4020  -32.5710  174.5610 N.am   73  MET73      -0.1977
     42  CA       131.5780  -31.7670  174.1840 C.3    73  MET73       0.1605
     43  C        132.8670  -32.5450  174.3740 C.2    73  MET73       0.2287
     44  O        133.8730  -32.3070  173.6910 O.2    73  MET73      -0.2864
     45  CB       131.6410  -30.4670  174.9910 C.3    73  MET73       0.0413
     46  CG       132.9100  -29.6580  174.7850 C.3    73  MET73       0.0598
     47  SD       132.9790  -28.1550  175.7770 S.3    73  MET73      -0.1393
     48  CE       134.7340  -27.8390  175.8660 C.3    73  MET73       0.0692
     49  N        135.1180  -32.4330  167.7020 N.3    78  LEU78      -0.1231
     50  CA       134.3820  -31.2000  167.4730 C.3    78  LEU78       0.1693
     51  C        134.7170  -30.6070  166.1030 C.2    78  LEU78       0.2592
     52  O        135.8480  -30.7030  165.6330 O.2    78  LEU78      -0.2718
     53  CB       134.6910  -30.1830  168.5620 C.3    78  LEU78       0.0284
     54  CG       134.6870  -30.7130  169.9840 C.3    78  LEU78       0.0019
     55  CD1      135.2110  -29.6330  170.9200 C.3    78  LEU78       0.0001
     56  CD2      133.2890  -31.1400  170.3630 C.3    78  LEU78       0.0001
     57  N        133.7170  -30.0170  165.4600 N.am   79  ILE79      -0.1966
     58  CA       133.9150  -29.2410  164.2450 C.3    79  ILE79       0.1727
     59  C        133.5750  -27.8090  164.5610 C.2    79  ILE79       0.2616
     60  O        132.4820  -27.5330  165.0300 O.2    79  ILE79      -0.2715
     61  CB       133.0290  -29.7230  163.0980 C.3    79  ILE79       0.0290
     62  CG1      133.3920  -31.1510  162.7040 C.3    79  ILE79       0.0022
     63  CG2      133.1330  -28.7770  161.9050 C.3    79  ILE79       0.0023
     64  CD1      132.6250  -31.6400  161.5160 C.3    79  ILE79       0.0001
     65  N        134.4930  -26.8900  164.3190 N.am   80  THR80      -0.1951
     66  CA       134.2390  -25.5130  164.7140 C.3    80  THR80       0.1897
     67  C        134.3660  -24.5440  163.5110 C.2    80  THR80       0.2313
     68  O        135.3450  -24.5890  162.7700 O.2    80  THR80      -0.2863
     69  CB       135.1720  -25.1330  165.8960 C.3    80  THR80       0.1794
     70  OG1      134.8920  -23.8060  166.3320 O.3    80  THR80      -0.2208
     71  CG2      136.6250  -25.2320  165.5200 C.3    80  THR80       0.0378
     72  N        138.5830  -29.8570  166.4040 N.3    93  MET93      -0.1245
     73  CA       139.0330  -29.8030  167.7910 C.3    93  MET93       0.1570
     74  C        138.5940  -31.0150  168.6160 C.2    93  MET93       0.2261
     75  O        137.6790  -31.7410  168.2400 O.2    93  MET93      -0.2867
     76  CB       138.5350  -28.5190  168.4440 C.3    93  MET93       0.0387
     77  CG       138.7010  -27.2990  167.5660 C.3    93  MET93       0.0595
     78  SD       138.8380  -25.7260  168.4550 S.3    93  MET93      -0.1393
     79  CE       140.5750  -25.7470  168.9110 C.3    93  MET93       0.0692
     80  N        135.8540  -29.5800  180.2440 N.3    98  TYR98      -0.1227
     81  CA       134.9790  -28.4680  179.9340 C.3    98  TYR98       0.1736
     82  C        135.7500  -27.1560  179.8860 C.2    98  TYR98       0.2595
     83  O        135.1860  -26.0820  180.0780 O.2    98  TYR98      -0.2718
     84  CB       133.7960  -28.4480  180.9090 C.3    98  TYR98       0.0548
     85  CG       132.8290  -29.5210  180.4800 C.ar   98  TYR98      -0.0200
     86  CD1      132.9380  -30.8290  180.9670 C.ar   98  TYR98      -0.0009
     87  CD2      131.8790  -29.2610  179.4960 C.ar   98  TYR98      -0.0009
     88  CE1      132.0760  -31.8430  180.5240 C.ar   98  TYR98       0.0417
     89  CE2      131.0170  -30.2630  179.0420 C.ar   98  TYR98       0.0417
     90  CZ       131.1170  -31.5510  179.5570 C.ar   98  TYR98       0.1957
     91  OH       130.2570  -32.5300  179.1030 O.3    98  TYR98      -0.2866
     92  N        137.0670  -27.2610  179.7650 N.am   99  ALA99      -0.1966
     93  CA       137.8710  -26.1090  179.3700 C.3    99  ALA99       0.1728
     94  C        138.0020  -26.0250  177.8460 C.2    99  ALA99       0.2616
     95  O        137.4550  -26.8540  177.1210 O.2    99  ALA99      -0.2715
     96  CB       139.2410  -26.1760  180.0130 C.3    99  ALA99       0.0334
     97  N        138.7420  -25.0230  177.3780 N.am  100  MET100     -0.1964
     98  CA       139.0880  -24.8740  175.9620 C.3   100  MET100      0.1722
     99  C        139.6910  -26.1340  175.3320 C.2   100  MET100      0.2458
    100  O        140.6870  -26.6710  175.8330 O.2   100  MET100     -0.2730
    101  CB       140.0790  -23.7140  175.7970 C.3   100  MET100      0.0427
    102  CG       140.9420  -23.7780  174.5430 C.3   100  MET100      0.0599
    103  SD       140.3740  -22.6480  173.2470 S.3   100  MET100     -0.1393
    104  CE       140.9180  -21.0850  173.9490 C.3   100  MET100      0.0692
    105  N        139.0950  -26.6000  174.2170 N.am  101  PRO101     -0.2727
    106  CA       139.5730  -27.7790  173.4830 C.3   101  PRO101      0.1402
    107  C        140.8780  -27.5540  172.7080 C.2   101  PRO101      0.2269
    108  O        141.1910  -26.4360  172.3080 O.2   101  PRO101     -0.2865
    109  CB       138.4170  -28.0830  172.5220 C.3   101  PRO101      0.0296
    110  CG       137.7220  -26.7970  172.3530 C.3   101  PRO101      0.0237
    111  CD       137.8260  -26.0940  173.6660 C.3   101  PRO101      0.0939
    112  N        125.7830  -32.8400  169.0860 N.3   153  GLY153     -0.1210
    113  CA       125.7340  -31.6050  169.8510 C.3   153  GLY153      0.1956
    114  C        125.9830  -30.3740  168.9810 C.2   153  GLY153      0.2612
    115  O        126.5300  -30.4690  167.8810 O.2   153  GLY153     -0.2717
    116  N        125.5860  -29.2060  169.4680 N.am  154  TRP154     -0.1962
    117  CA       125.8220  -27.9740  168.7270 C.3   154  TRP154      0.1771
    118  C        126.0340  -26.7850  169.6660 C.2   154  TRP154      0.2619
    119  O        125.5360  -26.7760  170.7850 O.2   154  TRP154     -0.2715
    120  CB       124.6540  -27.6990  167.7770 C.3   154  TRP154      0.0590
    121  CG       123.3320  -27.3790  168.4570 C.ar  154  TRP154      0.0006
    122  CD1      122.3070  -28.2490  168.7100 C.ar  154  TRP154      0.0946
    123  CD2      122.8980  -26.1000  168.9520 C.ar  154  TRP154      0.0152
    124  NE1      121.2680  -27.5950  169.3340 N.ar  154  TRP154     -0.2442
    125  CE2      121.6040  -26.2770  169.4920 C.ar  154  TRP154      0.0810
    126  CE3      123.4790  -24.8250  168.9970 C.ar  154  TRP154      0.0012
    127  CZ2      120.8850  -25.2310  170.0640 C.ar  154  TRP154      0.0191
    128  CZ3      122.7620  -23.7860  169.5680 C.ar  154  TRP154      0.0001
    129  CH2      121.4800  -23.9960  170.0920 C.ar  154  TRP154      0.0015
    130  N        126.7810  -25.7850  169.2110 N.am  155  VAL155     -0.1977
    131  CA       126.9270  -24.5360  169.9560 C.3   155  VAL155      0.1596
    132  C        126.9900  -23.3350  169.0270 C.2   155  VAL155      0.2287
    133  O        127.1710  -23.4640  167.8120 O.2   155  VAL155     -0.2864
    134  CB       128.1860  -24.5200  170.8320 C.3   155  VAL155      0.0276
    135  CG1      127.9980  -25.4000  172.0530 C.3   155  VAL155      0.0022
    136  CG2      129.4090  -24.9410  170.0250 C.3   155  VAL155      0.0022
    137  N        139.2980  -18.9350  172.1700 N.3   172  LEU172     -0.1231
    138  CA       137.8570  -18.9340  172.4220 C.3   172  LEU172      0.1693
    139  C        137.5210  -18.8080  173.9100 C.2   172  LEU172      0.2593
    140  O        138.2830  -19.2450  174.7780 O.2   172  LEU172     -0.2718
    141  CB       137.2050  -20.2150  171.8730 C.3   172  LEU172      0.0284
    142  CG       137.3050  -20.6460  170.4050 C.3   172  LEU172      0.0019
    143  CD1      136.8170  -22.0730  170.2860 C.3   172  LEU172      0.0001
    144  CD2      136.5230  -19.7370  169.4640 C.3   172  LEU172      0.0001
    145  N        136.3810  -18.1940  174.2010 N.am  173  SER173     -0.1938
    146  CA       135.7810  -18.3170  175.5200 C.3   173  SER173      0.2055
    147  C        134.5670  -19.2290  175.3830 C.2   173  SER173      0.2643
    148  O        134.2510  -19.6650  174.2780 O.2   173  SER173     -0.2714
    149  CB       135.3990  -16.9500  176.0860 C.3   173  SER173      0.2130
    150  OG       134.3500  -16.3680  175.3410 O.3   173  SER173     -0.2179
    151  N        133.8820  -19.5090  176.4870 N.am  174  GLN174     -0.1963
    152  CA       132.7220  -20.4030  176.4430 C.3   174  GLN174      0.1733
    153  C        131.6350  -19.8890  175.4960 C.2   174  GLN174      0.2616
    154  O        131.4890  -18.6850  175.3100 O.2   174  GLN174     -0.2715
    155  CB       132.1410  -20.5960  177.8440 C.3   174  GLN174      0.0408
    156  CG       130.9980  -21.5900  177.9060 C.3   174  GLN174      0.0908
    157  CD       130.6900  -22.0200  179.3140 C.2   174  GLN174      0.2608
    158  OE1      131.4970  -21.8260  180.2260 O.2   174  GLN174     -0.2717
    159  NE2      129.5200  -22.6160  179.5050 N.am  174  GLN174     -0.0878
    160  N        130.8890  -20.8130  174.8970 N.am  175  HIS175     -0.1973
    161  CA       129.8620  -20.4870  173.9170 C.3   175  HIS175      0.1656
    162  C        128.6540  -19.7710  174.5390 C.2   175  HIS175      0.2291
    163  O        128.0110  -20.3040  175.4460 O.2   175  HIS175     -0.2864
    164  CB       129.4200  -21.7700  173.2060 C.3   175  HIS175      0.0771
    165  CG       129.7590  -23.0250  173.9520 C.ar  175  HIS175      0.0820
    166  ND1      128.7950  -23.8840  174.4420 N.ar  175  HIS175     -0.2267
    167  CD2      130.9510  -23.5730  174.2980 C.ar  175  HIS175      0.1154
    168  CE1      129.3790  -24.8990  175.0520 C.ar  175  HIS175      0.1986
    169  NE2      130.6910  -24.7410  174.9800 N.ar  175  HIS175     -0.2212
    170  N        123.4960  -23.7330  173.2140 N.3   179  MET179     -0.1230
    171  CA       124.0460  -25.0900  173.1510 C.3   179  MET179      0.1702
    172  C        122.9260  -26.1260  173.2880 C.2   179  MET179      0.2593
    173  O        121.8120  -25.8030  173.6960 O.2   179  MET179     -0.2718
    174  CB       125.1430  -25.3110  174.2140 C.3   179  MET179      0.0401
    175  CG       124.6840  -25.4530  175.6580 C.3   179  MET179      0.0596
    176  SD       126.0300  -25.1240  176.8230 S.3   179  MET179     -0.1393
    177  CE       126.0160  -23.3300  176.8770 C.3   179  MET179      0.0692
    178  N        123.2160  -27.3670  172.9270 N.am  180  GLY180     -0.1942
    179  CA       122.2180  -28.4200  172.9560 C.3   180  GLY180      0.2014
    180  C        122.6580  -29.6210  172.1430 C.2   180  GLY180      0.2638
    181  O        123.7600  -29.6430  171.6000 O.2   180  GLY180     -0.2714
    182  N        121.8170  -30.6400  172.0720 N.am  181  GLN181     -0.1977
    183  CA       122.1050  -31.7580  171.1880 C.3   181  GLN181      0.1601
    184  C        120.8120  -32.4410  170.7240 C.2   181  GLN181      0.2287
    185  O        119.7400  -32.1850  171.2620 O.2   181  GLN181     -0.2864
    186  CB       123.0750  -32.7510  171.8580 C.3   181  GLN181      0.0394
    187  CG       122.5970  -33.4320  173.1070 C.3   181  GLN181      0.0908
    188  CD       123.7330  -34.0020  173.9490 C.2   181  GLN181      0.2608
    189  OE1      124.2550  -33.3120  174.8250 O.2   181  GLN181     -0.2717
    190  NE2      124.1100  -35.2630  173.6980 N.am  181  GLN181     -0.0878
@<TRIPOS>BOND
     1    64    62    1
     2    63    61    1
     3    62    61    1
     4    68    67    2
     5    61    58    1
     6    67    66    1
     7    58    59    1
     8    58    57    1
     9    25    23    1
    10    65    59   am
    11    65    66    1
    12    59    60    2
    13    66    69    1
    14    24    23    1
    15    23    20    1
    16    57    51   am
    17    71    69    1
    18    52    51    2
    19     2     3    1
    20     2     1    1
    21     2     5    1
    22    69    70    1
    23     3     4    2
    24    51    50    1
    25    15    16    1
    26    19    20    1
    27    19    17   am
    28    20    21    1
    29     5     6    1
    30    72    73    1
    31    17    16    1
    32    17    18    2
    33    22    21    2
    34    21    26   am
    35    50    49    1
    36    50    53    1
    37    77    76    1
    38    77    78    1
    39    29    28    2
    40   120   121    1
    41   120   117    1
    42    73    76    1
    43    73    74    1
    44   133   132    2
    45     6     7   ar
    46     6     8   ar
    47   115   114    2
    48    26    27    1
    49    28    27    1
    50    75    74    2
    51    78    79    1
    52   121   122   ar
    53   121   123   ar
    54    27    30    1
    55    53    54    1
    56    11     8   ar
    57    11    13   ar
    58     7     9   ar
    59   122   124   ar
    60   117   116    1
    61   117   118    1
    62     8    10   ar
    63   123   126   ar
    64   123   125   ar
    65   114   116   am
    66   114   113    1
    67   126   128   ar
    68   132   131    1
    69   112   113    1
    70   130   118   am
    71   130   131    1
    72   124   125   ar
    73   144   142    1
    74   125   127   ar
    75   128   129   ar
    76   118   119    2
    77    13    14   ar
    78     9    10   ar
    79   131   134    1
    80    54    56    1
    81    54    55    1
    82   136   134    1
    83    30    31    1
    84    10    12   ar
    85   127   129   ar
    86   143   142    1
    87    32    33    1
    88   142   141    1
    89   184   183    1
    90   184   185    2
    91   134   135    1
    92    33    34    1
    93    14    12   ar
    94   183   186    1
    95   183   182    1
    96   181   180    2
    97   186   187    1
    98   141   138    1
    99   182   180   am
   100   180   179    1
   101   137   138    1
   102    34    35    2
   103    34    36   am
   104   108   107    2
   105   110   109    1
   106   110   111    1
   107   138   139    1
   108   109   106    1
   109   107   106    1
   110   178   179    1
   111   178   172   am
   112    39    38    2
   113    36    37    1
   114   187   188    1
   115   171   170    1
   116   171   172    1
   117   171   174    1
   118   164   161    1
   119   164   165    1
   120   103   104    1
   121   103   102    1
   122   172   173    2
   123   106   105    1
   124   111   105    1
   125    44    43    2
   126   190   188   am
   127    38    37    1
   128    38    41   am
   129   139   145   am
   130   139   140    2
   131   161   162    1
   132   161   160    1
   133   188   189    2
   134   165   167   ar
   135   165   166   ar
   136    42    43    1
   137    42    41    1
   138    42    45    1
   139   145   146    1
   140   174   175    1
   141   105    99   am
   142   148   147    2
   143   167   169   ar
   144    37    40    1
   145   166   168   ar
   146   162   163    2
   147   102   101    1
   148    46    45    1
   149    46    47    1
   150   160   153   am
   151   169   168   ar
   152   154   153    2
   153    99   100    2
   154    99    98    1
   155   150   149    1
   156   147   146    1
   157   147   151   am
   158   153   152    1
   159   146   149    1
   160   175   176    1
   161    47    48    1
   162   101    98    1
   163    98    97    1
   164   152   151    1
   165   152   155    1
   166   176   177    1
   167    95    94    2
   168    97    94   am
   169   155   156    1
   170    94    93    1
   171   156   157    1
   172    89    87   ar
   173    89    90   ar
   174    91    90    1
   175   157   159   am
   176   157   158    2
   177    93    92    1
   178    93    96    1
   179    87    85   ar
   180    90    88   ar
   181    92    82   am
   182    82    81    1
   183    82    83    2
   184    81    80    1
   185    81    84    1
   186    85    84    1
   187    85    86   ar
   188    88    86   ar
