@<TRIPOS>MOLECULE
tmp/4qi9B00.pdb
 161 155 0 0 0
SMALL
GASTEIGER

@<TRIPOS>ATOM
      1  N        -38.3460  -92.1360    6.6700 N.3     5  ILE5       -0.1231
      2  CA       -38.1110  -90.8550    6.0230 C.3     5  ILE5        0.1692
      3  C        -37.5500  -89.8520    7.0270 C.2     5  ILE5        0.2592
      4  O        -38.0580  -89.7120    8.1350 O.2     5  ILE5       -0.2718
      5  CB       -39.3730  -90.3030    5.3610 C.3     5  ILE5        0.0266
      6  CG1      -39.0550  -88.9900    4.6190 C.3     5  ILE5        0.0019
      7  CG2      -40.4820  -90.0920    6.3820 C.3     5  ILE5        0.0020
      8  CD1      -40.1490  -88.5710    3.6400 C.3     5  ILE5        0.0001
      9  N        -36.4950  -89.1610    6.6140 N.am    6  ALA6       -0.1966
     10  CA       -35.6530  -88.4040    7.5250 C.3     6  ALA6        0.1728
     11  C        -34.8190  -87.3520    6.7960 C.2     6  ALA6        0.2616
     12  O        -34.3590  -87.5650    5.6640 O.2     6  ALA6       -0.2715
     13  CB       -34.7480  -89.3320    8.2810 C.3     6  ALA6        0.0334
     14  N        -34.6370  -86.2140    7.4610 N.am    7  ALA7       -0.1977
     15  CA       -33.7100  -85.1880    6.9980 C.3     7  ALA7        0.1597
     16  C        -32.4420  -85.2170    7.8610 C.2     7  ALA7        0.2287
     17  O        -32.5190  -85.1990    9.0810 O.2     7  ALA7       -0.2864
     18  CB       -34.3700  -83.8260    7.0400 C.3     7  ALA7        0.0319
     19  N        -37.6610  -79.2810    1.4620 N.3    19  ASP19      -0.1225
     20  CA       -37.7250  -80.5750    2.1560 C.3    19  ASP19       0.1805
     21  C        -39.1230  -80.8610    2.6860 C.2    19  ASP19       0.2597
     22  O        -39.5960  -81.9920    2.5930 O.2    19  ASP19      -0.2718
     23  CB       -36.7260  -80.6390    3.3050 C.3    19  ASP19       0.1424
     24  CG       -36.7930  -81.9520    4.0590 C.2    19  ASP19       0.3668
     25  OD1      -36.4720  -82.9920    3.4560 O.co2  19  ASP19      -0.2456
     26  OD2      -37.1530  -81.9570    5.2580 O.co2  19  ASP19      -0.2456
     27  N        -39.7900  -79.8430    3.2280 N.am   20  LEU20      -0.1979
     28  CA       -41.1820  -80.0050    3.6430 C.3    20  LEU20       0.1596
     29  C        -42.0950  -80.4230    2.5060 C.2    20  LEU20       0.2287
     30  O        -42.9270  -81.3110    2.6980 O.2    20  LEU20      -0.2864
     31  CB       -41.7190  -78.7340    4.2890 C.3    20  LEU20       0.0297
     32  CG       -41.7540  -78.8010    5.8100 C.3    20  LEU20       0.0022
     33  CD1      -40.3790  -79.1030    6.3680 C.3    20  LEU20       0.0001
     34  CD2      -42.2740  -77.4710    6.3510 C.3    20  LEU20       0.0001
     35  N        -41.1540  -82.0920   -0.1430 N.3    22  TRP22      -0.1227
     36  CA       -40.7000  -83.4730   -0.3680 C.3    22  TRP22       0.1737
     37  C        -41.2730  -84.4520    0.6570 C.2    22  TRP22       0.2595
     38  O        -41.7170  -85.5460    0.3010 O.2    22  TRP22      -0.2718
     39  CB       -39.1710  -83.5210   -0.3200 C.3    22  TRP22       0.0564
     40  CG       -38.5340  -84.8920   -0.2390 C.ar   22  TRP22       0.0003
     41  CD1      -38.0740  -85.5140    0.8930 C.ar   22  TRP22       0.0946
     42  CD2      -38.2070  -85.7650   -1.3290 C.ar   22  TRP22       0.0152
     43  NE1      -37.5180  -86.7270    0.5760 N.ar   22  TRP22      -0.2442
     44  CE2      -37.5910  -86.9070   -0.7800 C.ar   22  TRP22       0.0810
     45  CE3      -38.4010  -85.7050   -2.7110 C.ar   22  TRP22       0.0012
     46  CZ2      -37.1630  -87.9760   -1.5730 C.ar   22  TRP22       0.0191
     47  CZ3      -37.9630  -86.7670   -3.4900 C.ar   22  TRP22       0.0001
     48  CH2      -37.3590  -87.8790   -2.9220 C.ar   22  TRP22       0.0015
     49  N        -41.2510  -84.0580    1.9270 N.am   23  PHE23      -0.1962
     50  CA       -41.8680  -84.8500    2.9920 C.3    23  PHE23       0.1771
     51  C        -43.3540  -84.9950    2.7390 C.2    23  PHE23       0.2619
     52  O        -43.9050  -86.0830    2.8150 O.2    23  PHE23      -0.2715
     53  CB       -41.6390  -84.2050    4.3650 C.3    23  PHE23       0.0574
     54  CG       -42.4280  -84.8650    5.4840 C.ar   23  PHE23      -0.0200
     55  CD1      -41.9650  -86.0120    6.1020 C.ar   23  PHE23      -0.0042
     56  CD2      -43.6500  -84.3580    5.8790 C.ar   23  PHE23      -0.0042
     57  CE1      -42.6940  -86.6180    7.1040 C.ar   23  PHE23      -0.0003
     58  CE2      -44.3700  -84.9560    6.8840 C.ar   23  PHE23      -0.0003
     59  CZ       -43.8890  -86.0920    7.4910 C.ar   23  PHE23      -0.0000
     60  N        -44.0070  -83.8800    2.4510 N.am   24  LYS24      -0.1977
     61  CA       -45.4390  -83.8900    2.2240 C.3    24  LYS24       0.1596
     62  C        -45.8190  -84.7860    1.0450 C.2    24  LYS24       0.2287
     63  O        -46.6430  -85.6810    1.1820 O.2    24  LYS24      -0.2864
     64  CB       -45.9570  -82.4660    1.9990 C.3    24  LYS24       0.0298
     65  CG       -47.4420  -82.4260    1.7780 C.3    24  LYS24       0.0038
     66  CD       -47.9790  -81.0210    1.7100 C.3    24  LYS24       0.0206
     67  CE       -49.4810  -81.0660    1.4480 C.3    24  LYS24       0.1093
     68  NZ       -50.0780  -79.7090    1.3790 N.3    24  LYS24      -0.1314
     69  N        -41.5750  -85.9570   18.1130 N.3    37  THR37      -0.1218
     70  CA       -41.9050  -85.5500   16.7570 C.3    37  THR37       0.1862
     71  C        -43.3320  -85.0640   16.6120 C.2    37  THR37       0.2287
     72  O        -43.5820  -84.0260   15.9840 O.2    37  THR37      -0.2866
     73  CB       -41.6700  -86.6850   15.7940 C.3    37  THR37       0.1770
     74  OG1      -40.2690  -86.9380   15.7610 O.3    37  THR37      -0.2211
     75  CG2      -42.1720  -86.3140   14.3870 C.3    37  THR37       0.0375
     76  N        -43.5630  -81.6220   17.9760 N.3    40  SER40      -0.1202
     77  CA       -42.9540  -80.6040   17.1380 C.3    40  SER40       0.2020
     78  C        -43.9130  -80.2300   16.0330 C.2    40  SER40       0.2618
     79  O        -44.1270  -79.0550   15.7920 O.2    40  SER40      -0.2717
     80  CB       -41.6340  -81.0810   16.5600 C.3    40  SER40       0.2103
     81  OG       -40.7260  -81.2980   17.6160 O.3    40  SER40      -0.2182
     82  N        -44.5030  -81.2320   15.3830 N.am   41  ILE41      -0.1979
     83  CA       -45.5030  -80.9670   14.3540 C.3    41  ILE41       0.1595
     84  C        -46.6260  -80.1320   14.9480 C.2    41  ILE41       0.2287
     85  O        -47.0330  -79.1270   14.3650 O.2    41  ILE41      -0.2864
     86  CB       -46.1040  -82.2570   13.7590 C.3    41  ILE41       0.0276
     87  CG1      -45.0130  -83.1220   13.1120 C.3    41  ILE41       0.0022
     88  CG2      -47.1570  -81.9020   12.7320 C.3    41  ILE41       0.0022
     89  CD1      -45.4970  -84.5080   12.7350 C.3    41  ILE41       0.0001
     90  N        -49.7140  -81.0790   15.5900 N.3    43  ARG43      -0.1245
     91  CA       -51.0330  -81.4260   15.0570 C.3    43  ARG43       0.1563
     92  C        -50.9650  -82.7500   14.3170 C.2    43  ARG43       0.2260
     93  O        -49.8780  -83.2010   13.9600 O.2    43  ARG43      -0.2867
     94  CB       -51.5600  -80.3500   14.0900 C.3    43  ARG43       0.0307
     95  CG       -50.5460  -80.0250   13.0020 C.3    43  ARG43       0.0489
     96  CD       -51.1670  -79.3680   11.7840 C.3    43  ARG43       0.2205
     97  NE       -50.1400  -79.0030   10.8080 N.pl3  43  ARG43      -0.0865
     98  CZ       -50.3920  -78.5700    9.5780 C.cat  43  ARG43       0.5346
     99  NH1      -49.3830  -78.2460    8.7830 N.pl3  43  ARG43       0.1354
    100  NH2      -51.6410  -78.5000    9.1310 N.pl3  43  ARG43       0.1354
    101  N        -51.0050  -84.7740   10.9840 N.3    45  LEU45      -0.1231
    102  CA       -50.7660  -84.4110    9.6090 C.3    45  LEU45       0.1678
    103  C        -52.0310  -84.7170    8.8090 C.2    45  LEU45       0.2434
    104  O        -52.4670  -85.8660    8.7480 O.2    45  LEU45      -0.2733
    105  CB       -49.5560  -85.1640    9.0510 C.3    45  LEU45       0.0284
    106  CG       -48.2110  -84.7500    9.6440 C.3    45  LEU45       0.0019
    107  CD1      -47.0860  -85.6660    9.1810 C.3    45  LEU45       0.0001
    108  CD2      -47.9040  -83.3110    9.2610 C.3    45  LEU45       0.0001
    109  N        -52.6240  -83.6910    8.1850 N.am   46  PRO46      -0.2729
    110  CA       -53.8500  -83.8750    7.4030 C.3    46  PRO46       0.1401
    111  C        -53.6640  -84.8510    6.2300 C.2    46  PRO46       0.2269
    112  O        -52.5590  -84.9560    5.6810 O.2    46  PRO46      -0.2865
    113  CB       -54.1490  -82.4650    6.8950 C.3    46  PRO46       0.0296
    114  CG       -53.4380  -81.5680    7.8490 C.3    46  PRO46       0.0237
    115  CD       -52.1750  -82.2980    8.1670 C.3    46  PRO46       0.0939
    116  N        -53.5340  -87.9590    6.2410 N.3    48  ARG48      -0.1245
    117  CA       -52.6940  -89.0860    6.5890 C.3    48  ARG48       0.1563
    118  C        -53.2750  -89.7890    7.8160 C.2    48  ARG48       0.2260
    119  O        -54.0500  -89.2060    8.5750 O.2    48  ARG48      -0.2867
    120  CB       -51.2600  -88.5870    6.8100 C.3    48  ARG48       0.0307
    121  CG       -50.4480  -88.3570    5.5120 C.3    48  ARG48       0.0489
    122  CD       -49.3250  -87.4100    5.8240 C.3    48  ARG48       0.2205
    123  NE       -49.8760  -86.0450    5.8260 N.pl3  48  ARG48      -0.0865
    124  CZ       -49.2970  -84.9560    5.3240 C.cat  48  ARG48       0.5346
    125  NH1      -48.0120  -84.9700    4.9910 N.pl3  48  ARG48       0.1354
    126  NH2      -49.9470  -83.7920    5.3560 N.pl3  48  ARG48       0.1354
    127  N        -39.5550  -90.6400   12.4550 N.3    84  GLY84      -0.1225
    128  CA       -38.7050  -90.1400   13.5300 C.3    84  GLY84       0.1811
    129  C        -39.3790  -90.1030   14.8910 C.2    84  GLY84       0.2280
    130  O        -40.5820  -90.3230   14.9740 O.2    84  GLY84      -0.2866
    131  N        -36.4340  -94.3540   14.5960 N.3    89  TYR89      -0.1241
    132  CA       -35.6120  -94.8280   13.4840 C.3    89  TYR89       0.1605
    133  C        -34.7990  -96.0630   13.8920 C.2    89  TYR89       0.2264
    134  O        -34.6750  -97.0270   13.1310 O.2    89  TYR89      -0.2867
    135  CB       -34.6630  -93.7360   12.9960 C.3    89  TYR89       0.0534
    136  CG       -35.3210  -92.5530   12.3210 C.ar   89  TYR89      -0.0201
    137  CD1      -36.3380  -92.7330   11.3990 C.ar   89  TYR89      -0.0009
    138  CD2      -34.9050  -91.2510   12.6000 C.ar   89  TYR89      -0.0009
    139  CE1      -36.9200  -91.6590   10.7710 C.ar   89  TYR89       0.0417
    140  CE2      -35.4810  -90.1640   11.9750 C.ar   89  TYR89       0.0417
    141  CZ       -36.4880  -90.3730   11.0670 C.ar   89  TYR89       0.1957
    142  OH       -37.0710  -89.3000   10.4520 O.3    89  TYR89      -0.2866
    143  N        -36.0690  -92.7850    2.6500 N.3    99  TYR99      -0.1241
    144  CA       -36.1600  -91.5200    1.9510 C.3    99  TYR99       0.1605
    145  C        -35.2650  -90.5900    2.7230 C.2    99  TYR99       0.2264
    146  O        -35.6330  -90.1500    3.8120 O.2    99  TYR99      -0.2867
    147  CB       -37.5950  -90.9770    1.9470 C.3    99  TYR99       0.0534
    148  CG       -38.6140  -91.7580    1.1520 C.ar   99  TYR99      -0.0201
    149  CD1      -39.0660  -91.3040   -0.0800 C.ar   99  TYR99      -0.0009
    150  CD2      -39.1120  -92.9710    1.6260 C.ar   99  TYR99      -0.0009
    151  CE1      -40.0100  -92.0150   -0.8030 C.ar   99  TYR99       0.0417
    152  CE2      -40.0400  -93.6880    0.9130 C.ar   99  TYR99       0.0417
    153  CZ       -40.4910  -93.2130   -0.3050 C.ar   99  TYR99       0.1957
    154  OH       -41.4250  -93.9380   -1.0220 O.3    99  TYR99      -0.2866
    155  N        -33.0140  -87.0460    3.1190 N.3   101  THR101     -0.1218
    156  CA       -32.6260  -85.7240    2.6610 C.3   101  THR101      0.1862
    157  C        -31.2650  -85.3890    3.2820 C.2   101  THR101      0.2287
    158  O        -31.1460  -85.2370    4.4980 O.2   101  THR101     -0.2866
    159  CB       -33.6590  -84.6520    3.0390 C.3   101  THR101      0.1770
    160  OG1      -34.9230  -84.9790    2.4580 O.3   101  THR101     -0.2211
    161  CG2      -33.2180  -83.2760    2.5270 C.3   101  THR101      0.0375
@<TRIPOS>BOND
     1    47    48   ar
     2    47    45   ar
     3    48    46   ar
     4    45    42   ar
     5    46    44   ar
     6    42    44   ar
     7    42    40   ar
     8   154   153    1
     9   151   153   ar
    10   151   149   ar
    11    44    43   ar
    12    36    39    1
    13    36    35    1
    14    36    37    1
    15    39    40    1
    16   153   152   ar
    17    40    41   ar
    18   149   148   ar
    19    38    37    2
    20    43    41   ar
    21    37    49   am
    22   152   150   ar
    23    62    63    2
    24    62    61    1
    25   148   150   ar
    26   148   147    1
    27    68    67    1
    28    67    66    1
    29    19    20    1
    30    66    65    1
    31    65    64    1
    32    49    50    1
    33   147   144    1
    34   144   143    1
    35   144   145    1
    36    64    61    1
    37    20    21    1
    38    20    23    1
    39    61    60    1
    40    60    51   am
    41   160   159    1
    42    29    30    2
    43    29    28    1
    44   161   159    1
    45    22    21    2
    46   156   159    1
    47   156   155    1
    48   156   157    1
    49    21    27   am
    50   145   146    2
    51    51    52    2
    52    51    50    1
    53    50    53    1
    54    27    28    1
    55   157   158    2
    56    23    24    1
    57    25    24   ar
    58     8     6    1
    59    28    31    1
    60    24    26   ar
    61    31    32    1
    62    53    54    1
    63     6     5    1
    64   125   124    1
    65   124   126    1
    66   124   123    2
    67     5     2    1
    68     5     7    1
    69    54    56   ar
    70    54    55   ar
    71   121   122    1
    72   121   120    1
    73    12    11    2
    74   112   111    2
    75    32    34    1
    76    32    33    1
    77   122   123    1
    78    56    58   ar
    79     2     1    1
    80     2     3    1
    81    55    57   ar
    82   111   110    1
    83   116   117    1
    84   117   120    1
    85   117   118    1
    86     9     3   am
    87     9    10    1
    88    11    14   am
    89    11    10    1
    90    58    59   ar
    91   113   110    1
    92   113   114    1
    93    15    18    1
    94    15    14    1
    95    15    16    1
    96     3     4    2
    97    57    59   ar
    98   110   109    1
    99    10    13    1
   100   118   119    2
   101   114   115    1
   102    16    17    2
   103   115   109    1
   104   109   103   am
   105   104   103    2
   106    99    98    1
   107   103   102    1
   108   105   102    1
   109   105   106    1
   110   100    98    1
   111   107   106    1
   112   108   106    1
   113    98    97    2
   114   102   101    1
   115   142   141    1
   116   139   141   ar
   117   139   137   ar
   118    97    96    1
   119   141   140   ar
   120   137   136   ar
   121    96    95    1
   122   140   138   ar
   123   136   138   ar
   124   136   135    1
   125   127   128    1
   126    88    86    1
   127    89    87    1
   128   135   132    1
   129    95    94    1
   130    87    86    1
   131   134   133    2
   132   132   133    1
   133   132   131    1
   134   128   129    1
   135    86    83    1
   136    93    92    2
   137    94    91    1
   138    92    91    1
   139    83    84    1
   140    83    82    1
   141    85    84    2
   142    75    73    1
   143   129   130    2
   144    91    90    1
   145    82    78   am
   146    74    73    1
   147    79    78    2
   148    73    70    1
   149    72    71    2
   150    78    77    1
   151    80    77    1
   152    80    81    1
   153    71    70    1
   154    70    69    1
   155    77    76    1
