@<TRIPOS>MOLECULE
tmp/4qiaA00.pdb
 132 126 0 0 0
SMALL
GASTEIGER

@<TRIPOS>ATOM
      1  N        109.7380  -78.3620    0.8030 N.3   290  HIS290     -0.1241
      2  CA       110.4440  -77.4300    1.6760 C.3   290  HIS290      0.1621
      3  C        111.7240  -76.9110    1.0220 C.2   290  HIS290      0.2264
      4  O        112.0490  -75.7280    1.1240 O.2   290  HIS290     -0.2867
      5  CB       110.7690  -78.0930    3.0160 C.3   290  HIS290      0.0745
      6  CG       111.0870  -77.1220    4.1090 C.ar  290  HIS290      0.0817
      7  ND1      112.2430  -76.3710    4.1250 N.ar  290  HIS290     -0.2268
      8  CD2      110.4000  -76.7770    5.2240 C.ar  290  HIS290      0.1154
      9  CE1      112.2550  -75.6070    5.2020 C.ar  290  HIS290      0.1986
     10  NE2      111.1480  -75.8340    5.8860 N.ar  290  HIS290     -0.2212
     11  N        110.8330  -74.4680   -1.6650 N.3   293  GLY293     -0.1210
     12  CA       110.1490  -73.3480   -1.0360 C.3   293  GLY293      0.1956
     13  C        111.1080  -72.4440   -0.2820 C.2   293  GLY293      0.2611
     14  O        110.9330  -71.2250   -0.2290 O.2   293  GLY293     -0.2717
     15  N        112.1290  -73.0620    0.2970 N.am  294  HIS294     -0.1975
     16  CA       113.1720  -72.3870    1.0570 C.3   294  HIS294      0.1656
     17  C        114.0120  -71.5650    0.1110 C.2   294  HIS294      0.2291
     18  O        114.2610  -70.3810    0.3480 O.2   294  HIS294     -0.2864
     19  CB       114.0240  -73.4240    1.8060 C.3   294  HIS294      0.0771
     20  CG       115.2910  -72.8830    2.3990 C.ar  294  HIS294      0.0820
     21  ND1      116.5190  -73.0310    1.7910 N.ar  294  HIS294     -0.2267
     22  CD2      115.5230  -72.2220    3.5580 C.ar  294  HIS294      0.1154
     23  CE1      117.4510  -72.4750    2.5430 C.ar  294  HIS294      0.1986
     24  NE2      116.8730  -71.9750    3.6200 N.ar  294  HIS294     -0.2212
     25  N        111.6600  -68.9010   -1.8010 N.3   297  GLY297     -0.1225
     26  CA       111.1390  -67.9420   -0.8450 C.3   297  GLY297      0.1811
     27  C        112.1990  -67.1900   -0.0640 C.2   297  GLY297      0.2280
     28  O        111.8820  -66.2330    0.6390 O.2   297  GLY297     -0.2866
     29  N        114.9240  -64.7870    1.4470 N.3   299  GLU299     -0.1245
     30  CA       114.8950  -63.3300    1.4410 C.3   299  GLU299      0.1567
     31  C        116.2630  -62.7520    1.7720 C.2   299  GLU299      0.2260
     32  O        116.3930  -61.5590    2.0570 O.2   299  GLU299     -0.2867
     33  CB       113.8530  -62.8150    2.4320 C.3   299  GLU299      0.0388
     34  CG       112.4490  -63.3200    2.1600 C.3   299  GLU299      0.1160
     35  CD       111.4330  -62.7760    3.1400 C.2   299  GLU299      0.3649
     36  OE1      110.2510  -63.1680    3.0420 O.co2 299  GLU299     -0.2457
     37  OE2      111.8150  -61.9570    4.0050 O.co2 299  GLU299     -0.2457
     38  N        107.3310  -61.2900   -0.4960 N.3   317  LEU317     -0.1231
     39  CA       107.1690  -62.4890   -1.3020 C.3   317  LEU317      0.1693
     40  C        107.0390  -63.7260   -0.4320 C.2   317  LEU317      0.2592
     41  O        107.8010  -63.9030    0.5150 O.2   317  LEU317     -0.2718
     42  CB       108.3590  -62.6360   -2.2560 C.3   317  LEU317      0.0284
     43  CG       108.4560  -63.8110   -3.2350 C.3   317  LEU317      0.0019
     44  CD1      109.3010  -63.3850   -4.4200 C.3   317  LEU317      0.0001
     45  CD2      109.0540  -65.0660   -2.6110 C.3   317  LEU317      0.0001
     46  N        106.0870  -64.5860   -0.7780 N.am  318  VAL318     -0.1966
     47  CA       106.0040  -65.9260   -0.2060 C.3   318  VAL318      0.1727
     48  C        106.1120  -66.9600   -1.3210 C.2   318  VAL318      0.2617
     49  O        105.6920  -66.7120   -2.4500 O.2   318  VAL318     -0.2715
     50  CB       104.6920  -66.1610    0.5670 C.3   318  VAL318      0.0290
     51  CG1      104.6350  -65.2900    1.8110 C.3   318  VAL318      0.0023
     52  CG2      103.4900  -65.9070   -0.3340 C.3   318  VAL318      0.0023
     53  N        106.6730  -68.1200   -1.0080 N.am  319  GLY319     -0.1940
     54  CA       106.8440  -69.1530   -2.0110 C.3   319  GLY319      0.2014
     55  C        106.9970  -70.5240   -1.3960 C.2   319  GLY319      0.2639
     56  O        107.6070  -70.6700   -0.3400 O.2   319  GLY319     -0.2714
     57  N        106.4410  -71.5340   -2.0530 N.am  320  GLY320     -0.1939
     58  CA       106.5580  -72.8920   -1.5560 C.3   320  GLY320      0.2014
     59  C        105.3310  -73.7230   -1.8550 C.2   320  GLY320      0.2639
     60  O        104.4890  -73.3290   -2.6540 O.2   320  GLY320     -0.2714
     61  N        105.2270  -74.8780   -1.2100 N.am  321  GLN321     -0.1963
     62  CA       104.0880  -75.7570   -1.4280 C.3   321  GLN321      0.1733
     63  C        102.9190  -75.3860   -0.5220 C.2   321  GLN321      0.2616
     64  O        103.1030  -75.1280    0.6670 O.2   321  GLN321     -0.2715
     65  CB       104.4850  -77.2190   -1.2020 C.3   321  GLN321      0.0408
     66  CG       105.0630  -77.5030    0.1760 C.3   321  GLN321      0.0908
     67  CD       105.3450  -78.9760    0.4070 C.2   321  GLN321      0.2608
     68  OE1      105.2330  -79.7930   -0.5040 O.2   321  GLN321     -0.2717
     69  NE2      105.7160  -79.3190    1.6350 N.am  321  GLN321     -0.0878
     70  N        101.7210  -75.3350   -1.0960 N.am  322  LYS322     -0.1963
     71  CA       100.5040  -75.2360   -0.3000 C.3   322  LYS322      0.1728
     72  C         99.6940  -76.5020   -0.5360 C.2   322  LYS322      0.2616
     73  O         99.6870  -77.0490   -1.6410 O.2   322  LYS322     -0.2715
     74  CB        99.6940  -73.9790   -0.6430 C.3   322  LYS322      0.0311
     75  CG        98.9410  -74.0280   -1.9600 C.3   322  LYS322      0.0038
     76  CD        98.2790  -72.6910   -2.2790 C.3   322  LYS322      0.0206
     77  CE        96.9250  -72.5400   -1.6080 C.3   322  LYS322      0.1093
     78  NZ        95.8590  -73.2850   -2.3390 N.3   322  LYS322     -0.1314
     79  N         99.0320  -76.9810    0.5090 N.am  323  GLU323     -0.1977
     80  CA        98.3550  -78.2630    0.4300 C.3   323  GLU323      0.1602
     81  C         97.0050  -78.1170   -0.2550 C.2   323  GLU323      0.2287
     82  O         96.3490  -77.0810   -0.1410 O.2   323  GLU323     -0.2864
     83  CB        98.1890  -78.8680    1.8260 C.3   323  GLU323      0.0415
     84  CG        98.6070  -80.3360    1.9170 C.3   323  GLU323      0.1163
     85  CD        97.5960  -81.2860    1.2920 C.2   323  GLU323      0.3649
     86  OE1       96.4360  -80.8730    1.0980 O.co2 323  GLU323     -0.2457
     87  OE2       97.9630  -82.4440    0.9910 O.co2 323  GLU323     -0.2457
     88  N        102.9810  -72.3590   -4.8860 N.3   332  ILE332     -0.1245
     89  CA       102.6700  -70.9650   -5.1390 C.3   332  ILE332      0.1561
     90  C        103.8630  -70.0420   -4.9390 C.2   332  ILE332      0.2260
     91  O        104.7780  -70.3270   -4.1570 O.2   332  ILE332     -0.2867
     92  CB       101.5040  -70.4840   -4.2490 C.3   332  ILE332      0.0252
     93  CG1      101.7010  -70.9390   -2.8020 C.3   332  ILE332      0.0019
     94  CG2      100.1800  -71.0050   -4.7860 C.3   332  ILE332      0.0019
     95  CD1      102.3720  -69.9090   -1.9160 C.3   332  ILE332      0.0001
     96  N        103.8020  -65.8570   -4.4590 N.3   334  ASN334     -0.1240
     97  CA       102.9590  -64.6710   -4.3570 C.3   334  ASN334      0.1653
     98  C        103.7340  -63.4580   -3.8700 C.2   334  ASN334      0.2266
     99  O        104.5290  -63.5520   -2.9400 O.2   334  ASN334     -0.2867
    100  CB       101.7760  -64.9290   -3.4230 C.3   334  ASN334      0.1155
    101  CG       101.0490  -66.2190   -3.7420 C.2   334  ASN334      0.2627
    102  OD1      100.9230  -66.6090   -4.9050 O.2   334  ASN334     -0.2716
    103  ND2      100.5660  -66.8910   -2.7050 N.am  334  ASN334     -0.0877
    104  N        116.9010  -62.1810    8.0580 N.3   567  TYR567     -0.1241
    105  CA       116.2310  -63.3970    7.5890 C.3   567  TYR567      0.1605
    106  C        117.0150  -64.6670    7.9200 C.2   567  TYR567      0.2264
    107  O        116.4250  -65.6900    8.2820 O.2   567  TYR567     -0.2867
    108  CB       115.9770  -63.3310    6.0810 C.3   567  TYR567      0.0534
    109  CG       115.1960  -64.5130    5.5410 C.ar  567  TYR567     -0.0201
    110  CD1      113.8140  -64.5810    5.6780 C.ar  567  TYR567     -0.0009
    111  CD2      115.8400  -65.5620    4.8980 C.ar  567  TYR567     -0.0009
    112  CE1      113.0970  -65.6590    5.1870 C.ar  567  TYR567      0.0417
    113  CE2      115.1310  -66.6430    4.4040 C.ar  567  TYR567      0.0417
    114  CZ       113.7600  -66.6870    4.5520 C.ar  567  TYR567      0.1957
    115  OH       113.0540  -67.7640    4.0620 O.3   567  TYR567     -0.2866
    116  N        116.4590  -65.3910   11.4730 N.3   570  GLU570     -0.1231
    117  CA       115.0840  -65.8610   11.5730 C.3   570  GLU570      0.1699
    118  C        115.0010  -67.3490   11.2820 C.2   570  GLU570      0.2592
    119  O        114.3950  -68.1100   12.0310 O.2   570  GLU570     -0.2718
    120  CB       114.1800  -65.0890   10.6130 C.3   570  GLU570      0.0402
    121  CG       112.6980  -65.3080   10.8630 C.3   570  GLU570      0.1161
    122  CD       111.8390  -64.5450    9.8830 C.2   570  GLU570      0.3649
    123  OE1      112.0930  -63.3360    9.6830 O.co2 570  GLU570     -0.2457
    124  OE2      110.9070  -65.1510    9.3160 O.co2 570  GLU570     -0.2457
    125  N        115.6120  -67.7570   10.1770 N.am  571  LEU571     -0.1980
    126  CA       115.6940  -69.1760    9.8420 C.3   571  LEU571      0.1596
    127  C        116.4290  -69.9570   10.9260 C.2   571  LEU571      0.2287
    128  O        116.1050  -71.1110   11.1930 O.2   571  LEU571     -0.2864
    129  CB       116.3910  -69.3900    8.4930 C.3   571  LEU571      0.0297
    130  CG       115.6460  -68.9170    7.2440 C.3   571  LEU571      0.0022
    131  CD1      116.2950  -69.4950    6.0000 C.3   571  LEU571      0.0001
    132  CD2      114.1790  -69.2930    7.3140 C.3   571  LEU571      0.0001
@<TRIPOS>BOND
     1    89    90    1
     2    89    88    1
     3    89    92    1
     4    90    91    2
     5   102   101    2
     6    94    92    1
     7    96    97    1
     8    44    43    1
     9    97    98    1
    10    97   100    1
    11    92    93    1
    12    98    99    2
    13   101   100    1
    14   101   103   am
    15    43    45    1
    16    43    42    1
    17    93    95    1
    18    60    59    2
    19    49    48    2
    20    78    77    1
    21    76    75    1
    22    76    77    1
    23    42    39    1
    24    57    58    1
    25    57    55   am
    26    54    55    1
    27    54    53    1
    28    75    74    1
    29    59    58    1
    30    59    61   am
    31    25    26    1
    32    11    12    1
    33    73    72    2
    34    62    61    1
    35    62    65    1
    36    62    63    1
    37    55    56    2
    38    48    53   am
    39    48    47    1
    40    39    38    1
    41    39    40    1
    42    65    66    1
    43    70    63   am
    44    70    71    1
    45    12    13    1
    46    26    27    1
    47    46    40   am
    48    46    47    1
    49    74    71    1
    50    72    71    1
    51    72    79   am
    52    63    64    2
    53    68    67    2
    54    40    41    2
    55    52    50    1
    56    13    14    2
    57    13    15   am
    58    81    82    2
    59    81    80    1
    60    47    50    1
    61    27    28    2
    62    17    18    2
    63    17    16    1
    64    66    67    1
    65    15    16    1
    66    67    69   am
    67    80    79    1
    68    80    83    1
    69    50    51    1
    70     1     2    1
    71    87    85   ar
    72     3     4    2
    73     3     2    1
    74    16    19    1
    75    86    85   ar
    76    85    84    1
    77    30    29    1
    78    30    31    1
    79    30    33    1
    80     2     5    1
    81    31    32    2
    82    21    20   ar
    83    21    23   ar
    84    19    20    1
    85    83    84    1
    86    34    33    1
    87    34    35    1
    88    20    22   ar
    89    23    24   ar
    90     5     6    1
    91    36    35   ar
    92    35    37   ar
    93    22    24   ar
    94   115   114    1
    95     6     7   ar
    96     6     8   ar
    97     7     9   ar
    98   113   114   ar
    99   113   111   ar
   100   114   112   ar
   101   111   109   ar
   102   112   110   ar
   103     9    10   ar
   104     8    10   ar
   105   109   110   ar
   106   109   108    1
   107   131   130    1
   108   108   105    1
   109   130   132    1
   110   130   129    1
   111   105   106    1
   112   105   104    1
   113   106   107    2
   114   129   126    1
   115   124   122   ar
   116   123   122   ar
   117   126   125    1
   118   126   127    1
   119   122   121    1
   120   125   118   am
   121   120   121    1
   122   120   117    1
   123   127   128    2
   124   118   117    1
   125   118   119    2
   126   116   117    1
