@<TRIPOS>MOLECULE
tmp/4qiaB00.pdb
 98 94 0 0 0
SMALL
GASTEIGER

@<TRIPOS>ATOM
      1  N         71.8390  -92.5070   47.3840 N.3   290  HIS290     -0.1241
      2  CA        70.7210  -92.2770   46.4880 C.3   290  HIS290      0.1621
      3  C         71.0590  -92.8310   45.1200 C.2   290  HIS290      0.2264
      4  O         70.1940  -93.3780   44.4460 O.2   290  HIS290     -0.2867
      5  CB        70.3800  -90.7940   46.3930 C.3   290  HIS290      0.0745
      6  CG        69.3100  -90.4790   45.3940 C.ar  290  HIS290      0.0817
      7  ND1       68.1650  -91.2340   45.2570 N.ar  290  HIS290     -0.2268
      8  CD2       69.2070  -89.4750   44.4900 C.ar  290  HIS290      0.1154
      9  CE1       67.4040  -90.7110   44.3110 C.ar  290  HIS290      0.1986
     10  NE2       68.0150  -89.6430   43.8300 N.ar  290  HIS290     -0.2212
     11  N         71.0430  -96.7650   45.4380 N.3   293  GLY293     -0.1210
     12  CA        69.6740  -97.1110   45.7440 C.3   293  GLY293      0.1956
     13  C         68.8080  -96.9970   44.5240 C.2   293  GLY293      0.2611
     14  O         67.9990  -97.8400   44.2500 O.2   293  GLY293     -0.2717
     15  N         68.9730  -95.9430   43.7520 N.am  294  HIS294     -0.1975
     16  CA        68.1290  -95.8710   42.5650 C.3   294  HIS294      0.1656
     17  C         68.6100  -96.8400   41.4740 C.2   294  HIS294      0.2291
     18  O         67.7710  -97.2080   40.6200 O.2   294  HIS294     -0.2864
     19  CB        67.9400  -94.3960   42.1010 C.3   294  HIS294      0.0771
     20  CG        67.7790  -94.1920   40.6130 C.ar  294  HIS294      0.0820
     21  ND1       67.4650  -95.2140   39.7300 N.ar  294  HIS294     -0.2267
     22  CD2       67.6500  -93.0220   39.9060 C.ar  294  HIS294      0.1154
     23  CE1       67.3710  -94.6820   38.5110 C.ar  294  HIS294      0.1986
     24  NE2       67.4190  -93.3890   38.6110 N.ar  294  HIS294     -0.2212
     25  N         66.9900 -100.3640   43.2040 N.3   297  GLY297     -0.1225
     26  CA        65.5430 -100.3560   43.3310 C.3   297  GLY297      0.1811
     27  C         64.7860 -100.0630   42.0490 C.2   297  GLY297      0.2280
     28  O         63.5710  -99.8540   42.0700 O.2   297  GLY297     -0.2866
     29  N         62.8320 -100.4170   38.5580 N.3   299  GLU299     -0.1245
     30  CA        61.7760 -101.3450   38.1650 C.3   299  GLU299      0.1567
     31  C         61.5660 -101.3730   36.6520 C.2   299  GLU299      0.2260
     32  O         60.6130 -101.9790   36.1630 O.2   299  GLU299     -0.2867
     33  CB        60.4630 -100.9850   38.8660 C.3   299  GLU299      0.0388
     34  CG        60.5420 -101.0230   40.3830 C.3   299  GLU299      0.1160
     35  CD        59.2260 -100.6720   41.0470 C.2   299  GLU299      0.3649
     36  OE1       59.1980 -100.5600   42.2920 O.co2 299  GLU299     -0.2457
     37  OE2       58.2200 -100.5110   40.3260 O.co2 299  GLU299     -0.2457
     38  N         59.9590 -105.0360   45.1450 N.3   317  LEU317     -0.1231
     39  CA        61.2940 -104.8560   45.6910 C.3   317  LEU317      0.1693
     40  C         61.5050 -103.3980   46.0770 C.2   317  LEU317      0.2592
     41  O         60.9860 -102.5050   45.4140 O.2   317  LEU317     -0.2718
     42  CB        62.3500 -105.2970   44.6640 C.3   317  LEU317      0.0284
     43  CG        63.8440 -105.0440   44.9130 C.3   317  LEU317      0.0019
     44  CD1       64.6710 -106.1350   44.2620 C.3   317  LEU317      0.0001
     45  CD2       64.2920 -103.6870   44.3940 C.3   317  LEU317      0.0001
     46  N         62.2740 -103.1640   47.1370 N.am  318  VAL318     -0.1966
     47  CA        62.7540 -101.8270   47.4700 C.3   318  VAL318      0.1727
     48  C         64.2400 -101.8950   47.8060 C.2   318  VAL318      0.2617
     49  O         64.7090 -102.8580   48.4150 O.2   318  VAL318     -0.2715
     50  CB        61.9940 -101.1970   48.6560 C.3   318  VAL318      0.0290
     51  CG1       60.5320 -100.9890   48.3070 C.3   318  VAL318      0.0023
     52  CG2       62.1310 -102.0530   49.8990 C.3   318  VAL318      0.0023
     53  N         64.9850 -100.8750   47.4010 N.am  319  GLY319     -0.1940
     54  CA        66.4170 -100.8750   47.6230 C.3   319  GLY319      0.2014
     55  C         66.9590  -99.4830   47.8450 C.2   319  GLY319      0.2639
     56  O         66.5210  -98.5310   47.2010 O.2   319  GLY319     -0.2714
     57  N         67.9110  -99.3570   48.7630 N.am  320  GLY320     -0.1939
     58  CA        68.5320  -98.0650   49.0040 C.3   320  GLY320      0.2014
     59  C         69.0480  -97.8440   50.4100 C.2   320  GLY320      0.2639
     60  O         69.0900  -98.7620   51.2240 O.2   320  GLY320     -0.2714
     61  N         69.4420  -96.6100   50.7000 N.am  321  GLN321     -0.1963
     62  CA        70.0050  -96.2940   52.0050 C.3   321  GLN321      0.1733
     63  C         68.9110  -96.0730   53.0450 C.2   321  GLN321      0.2616
     64  O         67.9960  -95.2820   52.8400 O.2   321  GLN321     -0.2715
     65  CB        70.9090  -95.0630   51.9110 C.3   321  GLN321      0.0408
     66  CG        70.2580  -93.8690   51.2450 C.3   321  GLN321      0.0908
     67  CD        71.2330  -92.7380   51.0210 C.2   321  GLN321      0.2608
     68  OE1       72.3770  -92.7940   51.4740 O.2   321  GLN321     -0.2717
     69  NE2       70.7900  -91.7020   50.3200 N.am  321  GLN321     -0.0878
     70  N         69.0020  -96.8010   54.1520 N.am  322  LYS322     -0.1977
     71  CA        68.1190  -96.5850   55.2870 C.3   322  LYS322      0.1596
     72  C         68.9000  -95.8640   56.3780 C.2   322  LYS322      0.2287
     73  O         70.0060  -96.2730   56.7340 O.2   322  LYS322     -0.2864
     74  CB        67.5510  -97.9110   55.8050 C.3   322  LYS322      0.0298
     75  CG        66.5960  -97.7640   56.9850 C.3   322  LYS322      0.0038
     76  CD        65.6710  -98.9710   57.1150 C.3   322  LYS322      0.0206
     77  CE        66.4090 -100.2340   57.5470 C.3   322  LYS322      0.1093
     78  NZ        66.8430 -100.1810   58.9690 N.3   322  LYS322     -0.1314
     79  N         69.6270 -101.3840   52.2910 N.3   332  ILE332     -0.1245
     80  CA        68.6990 -102.4980   52.2800 C.3   332  ILE332      0.1561
     81  C         68.2130 -102.8750   50.8930 C.2   332  ILE332      0.2260
     82  O         68.1130 -102.0400   49.9920 O.2   332  ILE332     -0.2867
     83  CB        67.4740 -102.2060   53.1760 C.3   332  ILE332      0.0252
     84  CG1       66.8150 -100.8770   52.7910 C.3   332  ILE332      0.0019
     85  CG2       67.8850 -102.2010   54.6400 C.3   332  ILE332      0.0019
     86  CD1       65.5930 -101.0170   51.8890 C.3   332  ILE332      0.0001
     87  N         57.1410  -96.9870   35.1560 N.3   567  TYR567     -0.1241
     88  CA        58.0620  -96.6300   36.2280 C.3   567  TYR567      0.1605
     89  C         58.9180  -95.4360   35.8330 C.2   567  TYR567      0.2264
     90  O         59.1580  -94.5350   36.6410 O.2   567  TYR567     -0.2867
     91  CB        58.9560  -97.8110   36.6020 C.3   567  TYR567      0.0534
     92  CG        59.8800  -97.5090   37.7610 C.ar  567  TYR567     -0.0201
     93  CD1       59.3840  -97.3760   39.0510 C.ar  567  TYR567     -0.0009
     94  CD2       61.2460  -97.3550   37.5680 C.ar  567  TYR567     -0.0009
     95  CE1       60.2210  -97.0960   40.1160 C.ar  567  TYR567      0.0417
     96  CE2       62.0920  -97.0790   38.6280 C.ar  567  TYR567      0.0417
     97  CZ        61.5740  -96.9480   39.8990 C.ar  567  TYR567      0.1957
     98  OH        62.4080  -96.6690   40.9570 O.3   567  TYR567     -0.2866
@<TRIPOS>BOND
     1    87    88    1
     2    89    88    1
     3    89    90    2
     4    32    31    2
     5    88    91    1
     6    91    92    1
     7    31    30    1
     8    94    92   ar
     9    94    96   ar
    10    92    93   ar
    11    30    29    1
    12    30    33    1
    13    23    24   ar
    14    23    21   ar
    15    24    22   ar
    16    96    97   ar
    17    33    34    1
    18    93    95   ar
    19    21    20   ar
    20    97    95   ar
    21    97    98    1
    22    22    20   ar
    23    37    35   ar
    24    34    35    1
    25    20    19    1
    26    18    17    2
    27    35    36   ar
    28    17    16    1
    29    27    28    2
    30    27    26    1
    31    19    16    1
    32    16    15    1
    33    25    26    1
    34    15    13   am
    35    10     9   ar
    36    10     8   ar
    37    14    13    2
    38    44    43    1
    39     9     7   ar
    40    45    43    1
    41     4     3    2
    42     8     6   ar
    43    13    12    1
    44    42    43    1
    45    42    39    1
    46     3     2    1
    47    38    39    1
    48     7     6   ar
    49     6     5    1
    50    41    40    2
    51    11    12    1
    52    39    40    1
    53    40    46   am
    54     5     2    1
    55     2     1    1
    56    46    47    1
    57    56    55    2
    58    53    54    1
    59    53    48   am
    60    47    48    1
    61    47    50    1
    62    54    55    1
    63    48    49    2
    64    55    57   am
    65    51    50    1
    66    50    52    1
    67    57    58    1
    68    58    59    1
    69    82    81    2
    70    69    67   am
    71    59    61   am
    72    59    60    2
    73    61    62    1
    74    81    80    1
    75    67    66    1
    76    67    68    2
    77    66    65    1
    78    86    84    1
    79    65    62    1
    80    62    63    1
    81    80    79    1
    82    80    83    1
    83    84    83    1
    84    64    63    2
    85    63    70   am
    86    83    85    1
    87    70    71    1
    88    71    74    1
    89    71    72    1
    90    74    75    1
    91    72    73    2
    92    75    76    1
    93    76    77    1
    94    77    78    1
