@<TRIPOS>MOLECULE
tmp/4qidB01.pdb
 133 126 0 0 0
SMALL
GASTEIGER

@<TRIPOS>ATOM
      1  N          9.7390  -13.6940   47.4440 N.3   152  GLY152     -0.1210
      2  CA        10.2400  -14.8830   48.1100 C.3   152  GLY152      0.1956
      3  C         10.4400  -14.7020   49.6090 C.2   152  GLY152      0.2611
      4  O         10.0620  -15.5990   50.4090 O.2   152  GLY152     -0.2717
      5  N         11.0010  -13.5700   50.0180 N.am  153  GLU153     -0.1979
      6  CA        11.2280  -13.3560   51.4610 C.3   153  GLU153      0.1602
      7  C          9.9450  -12.9300   52.1910 C.2   153  GLU153      0.2287
      8  O          9.8040  -13.1410   53.3880 O.2   153  GLU153     -0.2864
      9  CB        12.4120  -12.4010   51.7240 C.3   153  GLU153      0.0415
     10  CG        13.1770  -12.6790   53.0350 C.3   153  GLU153      0.1163
     11  CD        13.8950  -14.0400   53.1150 C.2   153  GLU153      0.3649
     12  OE1       14.7000  -14.2510   54.0650 O.co2 153  GLU153     -0.2457
     13  OE2       13.6690  -14.9120   52.2430 O.co2 153  GLU153     -0.2457
     14  N          7.1300  -14.3950   51.5710 N.3   155  VAL155     -0.1231
     15  CA         6.3710  -15.6220   51.7720 C.3   155  VAL155      0.1692
     16  C          7.0740  -16.6370   52.6410 C.2   155  VAL155      0.2592
     17  O          6.4640  -17.5920   53.0410 O.2   155  VAL155     -0.2718
     18  CB         5.9560  -16.2280   50.4050 C.3   155  VAL155      0.0266
     19  CG1        7.0710  -17.0320   49.7860 C.3   155  VAL155      0.0020
     20  CG2        4.6770  -17.0390   50.5560 C.3   155  VAL155      0.0020
     21  N          8.3310  -16.3790   52.9900 N.am  156  SER156     -0.1952
     22  CA         9.1690  -17.3500   53.6980 C.3   156  SER156      0.1924
     23  C          8.6370  -17.7760   55.0680 C.2   156  SER156      0.2314
     24  O          8.7620  -18.9320   55.4350 O.2   156  SER156     -0.2863
     25  CB        10.5990  -16.8350   53.8210 C.3   156  SER156      0.2116
     26  OG        10.7220  -15.9490   54.9000 O.3   156  SER156     -0.2180
     27  N          3.5820  -23.6900   54.7090 N.3   160  GLU160     -0.1245
     28  CA         4.1460  -24.5200   53.6940 C.3   160  GLU160      0.1567
     29  C          3.3210  -24.5610   52.3820 C.2   160  GLU160      0.2260
     30  O          3.8930  -24.5590   51.3020 O.2   160  GLU160     -0.2867
     31  CB         4.3530  -25.9210   54.2700 C.3   160  GLU160      0.0388
     32  CG         4.9740  -26.9700   53.3500 C.3   160  GLU160      0.1160
     33  CD         6.1550  -26.4530   52.5320 C.2   160  GLU160      0.3649
     34  OE1        6.9170  -25.5990   53.0680 O.co2 160  GLU160     -0.2457
     35  OE2        6.2990  -26.8790   51.3490 O.co2 160  GLU160     -0.2457
     36  N          3.7800  -21.1910   50.4780 N.3   163  ARG163     -0.1231
     37  CA         5.1810  -21.2730   50.1150 C.3   163  ARG163      0.1694
     38  C          5.4270  -22.1530   48.8860 C.2   163  ARG163      0.2592
     39  O          6.0460  -21.7580   47.9490 O.2   163  ARG163     -0.2718
     40  CB         5.9420  -21.8870   51.2880 C.3   163  ARG163      0.0321
     41  CG         7.2180  -21.2110   51.6040 C.3   163  ARG163      0.0489
     42  CD         7.1280  -20.5680   52.9780 C.3   163  ARG163      0.2205
     43  NE         6.8860  -21.5560   54.0100 N.pl3 163  ARG163     -0.0865
     44  CZ         7.7790  -22.4490   54.4170 C.cat 163  ARG163      0.5346
     45  NH1        9.0060  -22.4680   53.8780 N.pl3 163  ARG163      0.1354
     46  NH2        7.4460  -23.3260   55.3680 N.pl3 163  ARG163      0.1354
     47  N          4.9060  -23.3610   48.9520 N.am  164  SER164     -0.1952
     48  CA         5.0490  -24.3760   47.9130 C.3   164  SER164      0.1924
     49  C          4.2430  -23.9610   46.6880 C.2   164  SER164      0.2314
     50  O          4.6530  -24.1880   45.5820 O.2   164  SER164     -0.2863
     51  CB         4.5580  -25.7360   48.4650 C.3   164  SER164      0.2116
     52  OG         4.4090  -26.7530   47.4770 O.3   164  SER164     -0.2180
     53  N          3.5820  -20.7490   45.9990 N.3   166  PHE166     -0.1227
     54  CA         4.3510  -19.6370   45.4590 C.3   166  PHE166      0.1736
     55  C          5.5600  -20.0950   44.6040 C.2   166  PHE166      0.2595
     56  O          5.7950  -19.5920   43.5120 O.2   166  PHE166     -0.2718
     57  CB         4.8270  -18.7030   46.5710 C.3   166  PHE166      0.0547
     58  CG         5.8270  -17.6680   46.1060 C.ar  166  PHE166     -0.0202
     59  CD1        7.2150  -17.9180   46.1070 C.ar  166  PHE166     -0.0042
     60  CD2        5.4020  -16.4820   45.6710 C.ar  166  PHE166     -0.0042
     61  CE1        8.1040  -16.9770   45.6970 C.ar  166  PHE166     -0.0003
     62  CE2        6.2960  -15.5050   45.2710 C.ar  166  PHE166     -0.0003
     63  CZ         7.6400  -15.7560   45.2560 C.ar  166  PHE166     -0.0000
     64  N          6.3360  -21.0160   45.1340 N.am  167  ASN167     -0.1960
     65  CA         7.4970  -21.5080   44.4130 C.3   167  ASN167      0.1819
     66  C          7.1250  -22.0780   43.0830 C.2   167  ASN167      0.2621
     67  O          7.7520  -21.7890   42.0860 O.2   167  ASN167     -0.2715
     68  CB         8.3030  -22.4720   45.2550 C.3   167  ASN167      0.1195
     69  CG         8.9110  -21.8030   46.4640 C.2   167  ASN167      0.2630
     70  OD1        8.9860  -22.3840   47.5080 O.2   167  ASN167     -0.2716
     71  ND2        9.2730  -20.5630   46.3410 N.am  167  ASN167     -0.0877
     72  N          6.0600  -22.8480   43.0760 N.am  168  ALA168     -0.1977
     73  CA         5.4640  -23.3350   41.8650 C.3   168  ALA168      0.1597
     74  C          5.1290  -22.1890   40.9190 C.2   168  ALA168      0.2287
     75  O          5.4970  -22.2380   39.7380 O.2   168  ALA168     -0.2864
     76  CB         4.2200  -24.1870   42.2090 C.3   168  ALA168      0.0319
     77  N          6.3340  -18.9830   40.8720 N.3   170  ARG170     -0.1231
     78  CA         7.5150  -18.3220   40.3840 C.3   170  ARG170      0.1694
     79  C          8.2800  -19.1600   39.4430 C.2   170  ARG170      0.2592
     80  O          8.9560  -18.6330   38.5720 O.2   170  ARG170     -0.2718
     81  CB         8.3760  -17.7800   41.5040 C.3   170  ARG170      0.0321
     82  CG         9.1020  -18.7920   42.3090 C.3   170  ARG170      0.0489
     83  CD        10.5690  -18.5850   42.1710 C.3   170  ARG170      0.2205
     84  NE        11.2190  -18.8650   43.4310 N.pl3 170  ARG170     -0.0865
     85  CZ        11.5360  -20.0660   43.8500 C.cat 170  ARG170      0.5346
     86  NH1       11.2480  -21.1410   43.1380 N.pl3 170  ARG170      0.1354
     87  NH2       12.1180  -20.1860   45.0170 N.pl3 170  ARG170      0.1354
     88  N          8.1120  -20.4770   39.5640 N.am  171  ASN171     -0.1960
     89  CA         8.7200  -21.4070   38.6310 C.3   171  ASN171      0.1819
     90  C          8.0900  -21.2480   37.2220 C.2   171  ASN171      0.2621
     91  O          8.8160  -21.0040   36.2480 O.2   171  ASN171     -0.2715
     92  CB         8.5800  -22.8340   39.1340 C.3   171  ASN171      0.1195
     93  CG         9.5730  -23.1780   40.2640 C.2   171  ASN171      0.2630
     94  OD1       10.4060  -22.3710   40.7260 O.2   171  ASN171     -0.2716
     95  ND2        9.5260  -24.3960   40.6510 N.am  171  ASN171     -0.0877
     96  N          6.7520  -21.3250   37.1340 N.am  172  ILE172     -0.1977
     97  CA         6.0380  -21.0640   35.8820 C.3   172  ILE172      0.1596
     98  C          6.4460  -19.7460   35.2630 C.2   172  ILE172      0.2287
     99  O          6.8200  -19.6950   34.0860 O.2   172  ILE172     -0.2864
    100  CB         4.5140  -20.9740   36.0790 C.3   172  ILE172      0.0276
    101  CG1        3.9190  -22.2700   36.6330 C.3   172  ILE172      0.0022
    102  CG2        3.8430  -20.6110   34.7650 C.3   172  ILE172      0.0022
    103  CD1        4.4830  -23.4940   35.9960 C.3   172  ILE172      0.0001
    104  N          0.0950  -21.5290   29.0530 N.3   209  VAL209     -0.1245
    105  CA         0.8410  -22.0010   30.2230 C.3   209  VAL209      0.1561
    106  C          1.0210  -20.8990   31.2700 C.2   209  VAL209      0.2260
    107  O          0.8300  -21.1300   32.4710 O.2   209  VAL209     -0.2867
    108  CB         2.1650  -22.6830   29.8270 C.3   209  VAL209      0.0252
    109  CG1        2.9790  -21.8160   28.8950 C.3   209  VAL209      0.0019
    110  CG2        3.0020  -23.0000   31.0410 C.3   209  VAL209      0.0019
    111  N         -2.3270  -22.2240   32.9340 N.3   213  GLY213     -0.1225
    112  CA        -1.5290  -23.1340   33.7540 C.3   213  GLY213      0.1811
    113  C         -1.2680  -22.5360   35.1340 C.2   213  GLY213      0.2280
    114  O         -1.4420  -23.1890   36.1560 O.2   213  GLY213     -0.2866
    115  N         -4.8060  -22.1570   37.1450 N.3   216  PHE216     -0.1227
    116  CA        -5.1360  -23.4930   37.6130 C.3   216  PHE216      0.1736
    117  C         -4.3300  -23.8700   38.8400 C.2   216  PHE216      0.2595
    118  O         -4.8950  -24.2990   39.8180 O.2   216  PHE216     -0.2718
    119  CB        -4.9000  -24.5140   36.4720 C.3   216  PHE216      0.0547
    120  CG        -5.2230  -25.9310   36.8380 C.ar  216  PHE216     -0.0202
    121  CD1       -6.5440  -26.3890   36.8510 C.ar  216  PHE216     -0.0042
    122  CD2       -4.1970  -26.8160   37.1870 C.ar  216  PHE216     -0.0042
    123  CE1       -6.8330  -27.7100   37.2030 C.ar  216  PHE216     -0.0003
    124  CE2       -4.4750  -28.1430   37.5250 C.ar  216  PHE216     -0.0003
    125  CZ        -5.7990  -28.5910   37.5320 C.ar  216  PHE216     -0.0000
    126  N         -3.0080  -23.7200   38.7990 N.am  217  ILE217     -0.1980
    127  CA        -2.1820  -24.0020   39.9940 C.3   217  ILE217      0.1595
    128  C         -2.6020  -23.1530   41.1940 C.2   217  ILE217      0.2287
    129  O         -2.6010  -23.6350   42.3100 O.2   217  ILE217     -0.2864
    130  CB        -0.6750  -23.7420   39.7210 C.3   217  ILE217      0.0276
    131  CG1       -0.1080  -24.7530   38.7190 C.3   217  ILE217      0.0022
    132  CG2        0.1480  -23.8060   41.0090 C.3   217  ILE217      0.0022
    133  CD1        1.1180  -24.2200   38.0100 C.3   217  ILE217      0.0001
@<TRIPOS>BOND
     1   109   108    1
     2   104   105    1
     3   108   105    1
     4   108   110    1
     5   105   106    1
     6   106   107    2
     7   111   112    1
     8   112   113    1
     9    99    98    2
    10   102   100    1
    11   113   114    2
    12    98    97    1
    13    97   100    1
    14    97    96    1
    15   103   101    1
    16   100   101    1
    17    91    90    2
    18   119   120    1
    19   119   116    1
    20   120   121   ar
    21   120   122   ar
    22   121   123   ar
    23    96    90   am
    24   115   116    1
    25   122   124   ar
    26   123   125   ar
    27    90    89    1
    28   124   125   ar
    29   116   117    1
    30   133   131    1
    31    80    79    2
    32    89    92    1
    33    89    88    1
    34   131   130    1
    35   126   117   am
    36   126   127    1
    37   117   118    2
    38    92    93    1
    39    79    88   am
    40    79    78    1
    41   130   127    1
    42   130   132    1
    43    75    74    2
    44   127   128    1
    45    93    95   am
    46    93    94    2
    47    78    77    1
    48    78    81    1
    49    74    73    1
    50   128   129    2
    51    81    82    1
    52    73    76    1
    53    73    72    1
    54    67    66    2
    55    83    82    1
    56    83    84    1
    57    72    66   am
    58    66    65    1
    59    86    85    1
    60    84    85    2
    61    56    55    2
    62    85    87    1
    63    65    64    1
    64    65    68    1
    65    55    64   am
    66    55    54    1
    67    68    69    1
    68    63    62   ar
    69    63    61   ar
    70    62    60   ar
    71    54    53    1
    72    54    57    1
    73    50    49    2
    74    60    58   ar
    75    61    59   ar
    76    58    59   ar
    77    58    57    1
    78    71    69   am
    79    69    70    2
    80    49    48    1
    81     1     2    1
    82    52    51    1
    83    48    51    1
    84    48    47    1
    85    39    38    2
    86     2     3    1
    87    38    47   am
    88    38    37    1
    89     3     5   am
    90     3     4    2
    91    19    18    1
    92     5     6    1
    93    37    36    1
    94    37    40    1
    95    18    20    1
    96    18    15    1
    97    40    41    1
    98    30    29    2
    99    35    33   ar
   100     6     9    1
   101     6     7    1
   102    14    15    1
   103    41    42    1
   104     9    10    1
   105    15    16    1
   106     7     8    2
   107    13    11   ar
   108    29    28    1
   109    33    34   ar
   110    33    32    1
   111    16    21   am
   112    16    17    2
   113    42    43    1
   114    21    22    1
   115    10    11    1
   116    11    12   ar
   117    32    31    1
   118    28    31    1
   119    28    27    1
   120    22    25    1
   121    22    23    1
   122    25    26    1
   123    45    44    1
   124    43    44    2
   125    44    46    1
   126    23    24    2
