@<TRIPOS>MOLECULE
tmp/4qijA00.pdb
 221 213 0 0 0
SMALL
GASTEIGER

@<TRIPOS>ATOM
      1  N         26.3800   -8.2790  201.1210 N.3    43  GLU43      -0.1231
      2  CA        25.9200   -9.5540  201.6620 C.3    43  GLU43       0.1699
      3  C         26.3940  -10.7290  200.8090 C.2    43  GLU43       0.2592
      4  O         26.5210  -11.8370  201.3120 O.2    43  GLU43      -0.2718
      5  CB        24.3860   -9.5670  201.7870 C.3    43  GLU43       0.0402
      6  CG        23.6100   -9.6200  200.4510 C.3    43  GLU43       0.1161
      7  CD        23.5480   -8.2650  199.7250 C.2    43  GLU43       0.3649
      8  OE1       22.9680   -8.2070  198.6160 O.co2  43  GLU43      -0.2457
      9  OE2       24.0640   -7.2570  200.2620 O.co2  43  GLU43      -0.2457
     10  N         26.6990  -10.4790  199.5370 N.am   44  VAL44      -0.1966
     11  CA        27.3050  -11.5130  198.6920 C.3    44  VAL44       0.1727
     12  C         28.6570  -11.0540  198.1460 C.2    44  VAL44       0.2616
     13  O         29.0010  -11.3090  196.9830 O.2    44  VAL44      -0.2715
     14  CB        26.3660  -11.9240  197.5240 C.3    44  VAL44       0.0290
     15  CG1       25.2000  -12.7620  198.0810 C.3    44  VAL44       0.0023
     16  CG2       25.8320  -10.6950  196.7770 C.3    44  VAL44       0.0023
     17  N         29.4110  -10.3600  199.0000 N.am   45  ARG45      -0.1977
     18  CA        30.7470   -9.8680  198.6600 C.3    45  ARG45       0.1597
     19  C         30.7380   -9.0010  197.3950 C.2    45  ARG45       0.2287
     20  O         31.6720   -9.0350  196.5890 O.2    45  ARG45      -0.2864
     21  CB        31.7140  -11.0410  198.4830 C.3    45  ARG45       0.0334
     22  CG        31.9190  -11.8880  199.7480 C.3    45  ARG45       0.0492
     23  CD        32.7890  -11.2080  200.7910 C.3    45  ARG45       0.2205
     24  NE        33.1480  -12.1430  201.8560 N.pl3  45  ARG45      -0.0865
     25  CZ        32.5270  -12.2470  203.0260 C.cat  45  ARG45       0.5346
     26  NH1       32.9450  -13.1430  203.9120 N.pl3  45  ARG45       0.1354
     27  NH2       31.5150  -11.4450  203.3290 N.pl3  45  ARG45       0.1354
     28  N         29.0780   -9.1910  194.6420 N.3    47  ALA47      -0.1231
     29  CA        28.8910   -9.8660  193.3570 C.3    47  ALA47       0.1694
     30  C         27.8900   -9.1070  192.4850 C.2    47  ALA47       0.2592
     31  O         26.8800   -8.6230  192.9930 O.2    47  ALA47      -0.2718
     32  CB        28.4170  -11.3060  193.5670 C.3    47  ALA47       0.0304
     33  N         28.1430   -9.0190  191.1750 N.am   48  PHE48      -0.1976
     34  CA        27.2100   -8.3070  190.3210 C.3    48  PHE48       0.1639
     35  C         26.2780   -9.2510  189.5650 C.2    48  PHE48       0.2290
     36  O         26.6550  -10.3400  189.1580 O.2    48  PHE48      -0.2864
     37  CB        27.9410   -7.3540  189.3500 C.3    48  PHE48       0.0560
     38  CG        29.0690   -7.9770  188.5410 C.ar   48  PHE48      -0.0200
     39  CD1       28.8030   -8.7340  187.4030 C.ar   48  PHE48      -0.0042
     40  CD2       30.4020   -7.7510  188.8950 C.ar   48  PHE48      -0.0042
     41  CE1       29.8450   -9.2730  186.6370 C.ar   48  PHE48      -0.0003
     42  CE2       31.4600   -8.2930  188.1430 C.ar   48  PHE48      -0.0003
     43  CZ        31.1830   -9.0550  187.0180 C.ar   48  PHE48      -0.0000
     44  N         26.2070   -9.5530  207.4580 N.3    82  LYS82      -0.1231
     45  CA        26.1230  -10.9220  207.9670 C.3    82  LYS82       0.1693
     46  C         27.3580  -11.3630  208.7680 C.2    82  LYS82       0.2592
     47  O         27.2210  -11.9310  209.8450 O.2    82  LYS82      -0.2718
     48  CB        25.8820  -11.8990  206.8140 C.3    82  LYS82       0.0285
     49  CG        25.7950  -13.3500  207.2500 C.3    82  LYS82       0.0035
     50  CD        25.2240  -14.2270  206.1410 C.3    82  LYS82       0.0206
     51  CE        25.2680  -15.6990  206.5340 C.3    82  LYS82       0.1093
     52  NZ        24.6650  -16.5490  205.4790 N.3    82  LYS82      -0.1314
     53  N         28.5630  -11.1120  208.2650 N.am   83  ASP83      -0.1974
     54  CA        29.7460  -11.5800  208.9820 C.3    83  ASP83       0.1709
     55  C         30.8580  -10.5280  209.1040 C.2    83  ASP83       0.2293
     56  O         31.9450  -10.8280  209.5840 O.2    83  ASP83      -0.2864
     57  CB        30.2920  -12.8490  208.3130 C.3    83  ASP83       0.1436
     58  CG        30.8450  -12.5970  206.9070 C.2    83  ASP83       0.3671
     59  OD1       30.6890  -11.4830  206.3580 O.co2  83  ASP83      -0.2456
     60  OD2       31.4260  -13.5390  206.3370 O.co2  83  ASP83      -0.2456
     61  N         33.1110   -9.5330  194.0340 N.3    90  SER90      -0.1202
     62  CA        33.4190  -10.9560  193.8740 C.3    90  SER90       0.2020
     63  C         33.0040  -11.4840  192.4920 C.2    90  SER90       0.2619
     64  O         32.8460  -12.6880  192.3050 O.2    90  SER90      -0.2717
     65  CB        32.7380  -11.7850  194.9770 C.3    90  SER90       0.2103
     66  OG        31.3300  -11.6450  194.9010 O.3    90  SER90      -0.2182
     67  N         32.7870  -10.5840  191.5370 N.am   91  GLY91      -0.1942
     68  CA        32.4730  -10.9950  190.1800 C.3    91  GLY91       0.2014
     69  C         31.0040  -11.3280  189.9710 C.2    91  GLY91       0.2639
     70  O         30.1460  -10.8850  190.7370 O.2    91  GLY91      -0.2714
     71  N         30.7160  -12.1140  188.9350 N.am   92  GLY92      -0.1939
     72  CA        29.3470  -12.4520  188.5810 C.3    92  GLY92       0.2014
     73  C         28.6410  -13.2300  189.6810 C.2    92  GLY92       0.2639
     74  O         29.2180  -14.1300  190.3000 O.2    92  GLY92      -0.2714
     75  N         27.3900  -12.8650  189.9350 N.am   93  ASP93      -0.1957
     76  CA        26.5610  -13.5410  190.9310 C.3    93  ASP93       0.1840
     77  C         26.2350  -14.9670  190.4830 C.2    93  ASP93       0.2622
     78  O         25.3980  -15.1720  189.6030 O.2    93  ASP93      -0.2715
     79  CB        25.2720  -12.7520  191.1720 C.3    93  ASP93       0.1450
     80  CG        24.5140  -13.2310  192.3910 C.2    93  ASP93       0.3671
     81  OD1       24.6400  -14.4160  192.7570 O.co2  93  ASP93      -0.2456
     82  OD2       23.7760  -12.4200  192.9770 O.co2  93  ASP93      -0.2456
     83  N         26.8880  -15.9500  191.0950 N.am   94  GLN94      -0.1963
     84  CA        26.7620  -17.3340  190.6510 C.3    94  GLN94       0.1733
     85  C         25.3430  -17.8810  190.8070 C.2    94  GLN94       0.2616
     86  O         24.9450  -18.7960  190.0960 O.2    94  GLN94      -0.2715
     87  CB        27.7610  -18.2190  191.4000 C.3    94  GLN94       0.0408
     88  CG        29.2080  -17.8750  191.0870 C.3    94  GLN94       0.0908
     89  CD        29.4800  -17.9200  189.5920 C.2    94  GLN94       0.2608
     90  OE1       29.5050  -18.9930  189.0050 O.2    94  GLN94      -0.2717
     91  NE2       29.6880  -16.7560  188.9740 N.am   94  GLN94      -0.0878
     92  N         24.5760  -17.2900  191.7130 N.am   95  ARG95      -0.1977
     93  CA        23.2070  -17.7310  191.9540 C.3    95  ARG95       0.1597
     94  C         22.3130  -17.6100  190.7280 C.2    95  ARG95       0.2287
     95  O         21.3970  -18.4070  190.5520 O.2    95  ARG95      -0.2864
     96  CB        22.5880  -16.9320  193.1070 C.3    95  ARG95       0.0334
     97  CG        23.2530  -17.2010  194.4420 C.3    95  ARG95       0.0492
     98  CD        22.6820  -16.2870  195.5220 C.3    95  ARG95       0.2205
     99  NE        22.8770  -14.8720  195.2080 N.pl3  95  ARG95      -0.0865
    100  CZ        22.4460  -13.8810  195.9870 C.cat  95  ARG95       0.5346
    101  NH1       21.8010  -14.1620  197.1220 N.pl3  95  ARG95       0.1354
    102  NH2       22.6570  -12.6150  195.6460 N.pl3  95  ARG95       0.1354
    103  N         24.7250  -14.7350  182.7670 N.3   102  TYR102     -0.1241
    104  CA        24.0770  -14.1940  183.9680 C.3   102  TYR102      0.1605
    105  C         22.6700  -13.6840  183.6040 C.2   102  TYR102      0.2264
    106  O         22.4910  -12.9680  182.6180 O.2   102  TYR102     -0.2867
    107  CB        24.9680  -13.0910  184.5790 C.3   102  TYR102      0.0534
    108  CG        26.2900  -13.6930  185.0190 C.ar  102  TYR102     -0.0201
    109  CD1       26.4030  -14.3690  186.2260 C.ar  102  TYR102     -0.0009
    110  CD2       27.3820  -13.7130  184.1560 C.ar  102  TYR102     -0.0009
    111  CE1       27.6020  -14.9780  186.6000 C.ar  102  TYR102      0.0417
    112  CE2       28.5750  -14.3250  184.5090 C.ar  102  TYR102      0.0417
    113  CZ        28.6760  -14.9630  185.7330 C.ar  102  TYR102      0.1957
    114  OH        29.8540  -15.5770  186.0890 O.3   102  TYR102     -0.2866
    115  N         26.6610  -11.3930  179.3580 N.3   121  LEU121     -0.1245
    116  CA        27.9710  -11.2560  179.9690 C.3   121  LEU121      0.1561
    117  C         28.4340   -9.8060  179.8410 C.2   121  LEU121      0.2260
    118  O         29.5830   -9.5410  179.5190 O.2   121  LEU121     -0.2867
    119  CB        28.9660  -12.1980  179.2920 C.3   121  LEU121      0.0270
    120  CG        28.6870  -13.7010  179.4260 C.3   121  LEU121      0.0019
    121  CD1       29.7110  -14.4980  178.6500 C.3   121  LEU121      0.0001
    122  CD2       28.6630  -14.1260  180.8800 C.3   121  LEU121      0.0001
    123  N         29.2110   -7.2570  181.6600 N.3   123  ILE123     -0.1231
    124  CA        30.2450   -6.5390  182.4010 C.3   123  ILE123      0.1692
    125  C         31.3350   -6.1280  181.4000 C.2   123  ILE123      0.2591
    126  O         32.0710   -5.1690  181.6320 O.2   123  ILE123     -0.2718
    127  CB        30.8570   -7.3800  183.5670 C.3   123  ILE123      0.0266
    128  CG1       31.6350   -6.4820  184.5440 C.3   123  ILE123      0.0019
    129  CG2       31.7460   -8.5220  183.0340 C.3   123  ILE123      0.0020
    130  CD1       30.7520   -5.5240  185.3370 C.3   123  ILE123      0.0001
    131  N         31.4300   -6.8540  180.2800 N.am  124  LEU124     -0.1980
    132  CA        32.3700   -6.5020  179.2170 C.3   124  LEU124      0.1596
    133  C         32.1060   -5.0870  178.6810 C.2   124  LEU124      0.2287
    134  O         33.0410   -4.3700  178.3410 O.2   124  LEU124     -0.2864
    135  CB        32.3080   -7.5340  178.0730 C.3   124  LEU124      0.0297
    136  CG        32.6920   -8.9660  178.4770 C.3   124  LEU124      0.0022
    137  CD1       32.6880   -9.9340  177.2950 C.3   124  LEU124      0.0001
    138  CD2       34.0470   -8.9790  179.1800 C.3   124  LEU124      0.0001
    139  N         38.0210   -8.1860  199.3130 N.3   144  TRP144     -0.1241
    140  CA        38.1470   -9.2050  198.2700 C.3   144  TRP144      0.1605
    141  C         37.9420   -8.6330  196.8720 C.2   144  TRP144      0.2264
    142  O         37.0090   -7.8580  196.6410 O.2   144  TRP144     -0.2867
    143  CB        37.1330  -10.3270  198.4760 C.3   144  TRP144      0.0550
    144  CG        37.4060  -11.2850  199.5650 C.ar  144  TRP144      0.0003
    145  CD1       36.8040  -11.3300  200.8020 C.ar  144  TRP144      0.0946
    146  CD2       38.3290  -12.3790  199.5270 C.ar  144  TRP144      0.0152
    147  NE1       37.2930  -12.3900  201.5210 N.ar  144  TRP144     -0.2442
    148  CE2       38.2330  -13.0490  200.7680 C.ar  144  TRP144      0.0810
    149  CE3       39.2290  -12.8590  198.5650 C.ar  144  TRP144      0.0012
    150  CZ2       39.0100  -14.1740  201.0750 C.ar  144  TRP144      0.0191
    151  CZ3       40.0000  -13.9800  198.8670 C.ar  144  TRP144      0.0001
    152  CH2       39.8840  -14.6230  200.1140 C.ar  144  TRP144      0.0015
    153  N         37.7560  -10.6610  193.3930 N.3   146  ALA146     -0.1231
    154  CA        37.8080  -12.0240  192.8910 C.3   146  ALA146      0.1694
    155  C         37.0410  -12.1560  191.5890 C.2   146  ALA146      0.2593
    156  O         36.0860  -11.4180  191.3590 O.2   146  ALA146     -0.2718
    157  CB        37.2400  -12.9830  193.9350 C.3   146  ALA146      0.0304
    158  N         37.4650  -13.0930  190.7430 N.am  147  GLY147     -0.1942
    159  CA        36.7970  -13.3260  189.4680 C.3   147  GLY147      0.2014
    160  C         36.6580  -12.0570  188.6500 C.2   147  GLY147      0.2639
    161  O         37.6220  -11.3180  188.4600 O.2   147  GLY147     -0.2714
    162  N         35.4410  -11.8000  188.1800 N.am  148  GLY148     -0.1954
    163  CA        35.1250  -10.5960  187.4310 C.3   148  GLY148      0.1869
    164  C         35.4210   -9.3210  188.2110 C.2   148  GLY148      0.2309
    165  O         35.6180   -8.2510  187.6270 O.2   148  GLY148     -0.2863
    166  N         42.2390  -12.5270  194.2620 N.3   169  LYS169     -0.1245
    167  CA        42.1560  -13.9470  193.9840 C.3   169  LYS169      0.1561
    168  C         41.4130  -14.1580  192.6850 C.2   169  LYS169      0.2260
    169  O         40.2100  -13.9100  192.6070 O.2   169  LYS169     -0.2867
    170  CB        41.4550  -14.6880  195.1290 C.3   169  LYS169      0.0271
    171  CG        41.5540  -16.2100  195.0710 C.3   169  LYS169      0.0035
    172  CD        40.7360  -16.8500  196.2010 C.3   169  LYS169      0.0206
    173  CE        40.9910  -18.3620  196.3080 C.3   169  LYS169      0.1093
    174  NZ        42.4410  -18.6190  196.6390 N.3   169  LYS169     -0.1314
    175  N         39.6050  -16.3490  190.7140 N.3   171  THR171     -0.1203
    176  CA        38.9390  -17.6420  190.8830 C.3   171  THR171      0.1994
    177  C         38.2230  -18.1970  189.6290 C.2   171  THR171      0.2617
    178  O         37.5950  -19.2590  189.7070 O.2   171  THR171     -0.2717
    179  CB        37.8810  -17.5690  192.0190 C.3   171  THR171      0.1784
    180  OG1       36.9760  -16.4990  191.7500 O.3   171  THR171     -0.2211
    181  CG2       38.5270  -17.3320  193.3780 C.3   171  THR171      0.0376
    182  N         38.3210  -17.4960  188.4940 N.am  172  ASP172     -0.1973
    183  CA        37.6150  -17.8840  187.2600 C.3   172  ASP172      0.1709
    184  C         37.6220  -19.3880  186.9910 C.2   172  ASP172      0.2293
    185  O         36.5790  -20.0270  186.8470 O.2   172  ASP172     -0.2864
    186  CB        38.2160  -17.1690  186.0360 C.3   172  ASP172      0.1436
    187  CG        37.6020  -15.8030  185.7960 C.2   172  ASP172      0.3671
    188  OD1       36.5980  -15.4740  186.4730 O.co2 172  ASP172     -0.2456
    189  OD2       38.0910  -15.0790  184.8990 O.co2 172  ASP172     -0.2456
    190  N         35.4910  -22.0320  188.9960 N.3   175  VAL175     -0.1245
    191  CA        34.0680  -22.2060  188.7510 C.3   175  VAL175      0.1561
    192  C         33.8040  -22.4000  187.2650 C.2   175  VAL175      0.2260
    193  O         32.6870  -22.1900  186.8020 O.2   175  VAL175     -0.2867
    194  CB        33.2480  -21.0060  189.2860 C.3   175  VAL175      0.0252
    195  CG1       33.4630  -20.8530  190.7910 C.3   175  VAL175      0.0019
    196  CG2       33.6200  -19.6900  188.5540 C.3   175  VAL175      0.0019
    197  N         34.9030  -20.7530  184.6670 N.3   177  SER177     -0.1202
    198  CA        34.8030  -19.5490  183.8560 C.3   177  SER177      0.2020
    199  C         36.1860  -19.0640  183.4560 C.2   177  SER177      0.2619
    200  O         37.2000  -19.5750  183.9520 O.2   177  SER177     -0.2717
    201  CB        34.0590  -18.4450  184.6240 C.3   177  SER177      0.2103
    202  OG        33.8560  -17.2950  183.8070 O.3   177  SER177     -0.2182
    203  N         36.2240  -18.0600  182.5790 N.am  178  PHE178     -0.1961
    204  CA        37.4770  -17.3880  182.2530 C.3   178  PHE178      0.1771
    205  C         37.2090  -16.0330  181.6270 C.2   178  PHE178      0.2619
    206  O         36.2820  -15.8820  180.8310 O.2   178  PHE178     -0.2715
    207  CB        38.3440  -18.2370  181.3140 C.3   178  PHE178      0.0574
    208  CG        37.6700  -18.6220  180.0250 C.ar  178  PHE178     -0.0200
    209  CD1       37.7620  -17.8010  178.9010 C.ar  178  PHE178     -0.0042
    210  CD2       36.9560  -19.8090  179.9290 C.ar  178  PHE178     -0.0042
    211  CE1       37.1440  -18.1500  177.7050 C.ar  178  PHE178     -0.0003
    212  CE2       36.3310  -20.1710  178.7360 C.ar  178  PHE178     -0.0003
    213  CZ        36.4250  -19.3470  177.6230 C.ar  178  PHE178     -0.0000
    214  N         37.9990  -15.0420  182.0310 N.am  179  ASP179     -0.1971
    215  CA        38.0280  -13.7570  181.3430 C.3   179  ASP179      0.1709
    216  C         39.2180  -13.8340  180.4050 C.2   179  ASP179      0.2293
    217  O         40.3650  -13.7590  180.8460 O.2   179  ASP179     -0.2864
    218  CB        38.1430  -12.5730  182.3340 C.3   179  ASP179      0.1436
    219  CG        38.0640  -11.1980  181.6430 C.2   179  ASP179      0.3671
    220  OD1       38.6330  -11.0430  180.5410 O.co2 179  ASP179     -0.2456
    221  OD2       37.4510  -10.2600  182.2080 O.co2 179  ASP179     -0.2456
@<TRIPOS>BOND
     1   137   136    1
     2   213   211   ar
     3   213   212   ar
     4   211   209   ar
     5   135   136    1
     6   135   132    1
     7   134   133    2
     8   136   138    1
     9   121   120    1
    10   133   132    1
    11   212   210   ar
    12   209   208   ar
    13   132   131    1
    14   119   120    1
    15   119   116    1
    16   115   116    1
    17   120   122    1
    18   118   117    2
    19   117   116    1
    20   210   208   ar
    21   208   207    1
    22   131   125   am
    23   216   217    2
    24   216   215    1
    25   220   219   ar
    26   206   205    2
    27   207   204    1
    28   215   214    1
    29   215   218    1
    30   125   126    2
    31   125   124    1
    32   205   214   am
    33   205   204    1
    34   219   221   ar
    35   219   218    1
    36   123   124    1
    37   204   203    1
    38   124   127    1
    39   203   199   am
    40   106   105    2
    41   103   104    1
    42   129   127    1
    43   199   198    1
    44   199   200    2
    45   127   128    1
    46   105   104    1
    47   202   201    1
    48   198   201    1
    49   198   197    1
    50   104   107    1
    51   110   112   ar
    52   110   108   ar
    53   112   113   ar
    54   128   130    1
    55   107   108    1
    56   189   187   ar
    57   108   109   ar
    58   113   114    1
    59   113   111   ar
    60   187   186    1
    61   187   188   ar
    62   186   183    1
    63   109   111   ar
    64    41    43   ar
    65    41    39   ar
    66   193   192    2
    67   185   184    2
    68   184   183    1
    69    43    42   ar
    70   183   182    1
    71   192   191    1
    72    39    38   ar
    73   163   162    1
    74   163   164    1
    75   165   164    2
    76    42    40   ar
    77   162   160   am
    78   161   160    2
    79   182   177   am
    80    38    40   ar
    81    38    37    1
    82   196   194    1
    83    72    71    1
    84    72    73    1
    85   160   159    1
    86   191   190    1
    87   191   194    1
    88    71    69   am
    89    91    89   am
    90    90    89    2
    91    36    35    2
    92   194   195    1
    93    37    34    1
    94   159   158    1
    95    35    34    1
    96    89    88    1
    97    78    77    2
    98   177   178    2
    99   177   176    1
   100    73    75   am
   101    73    74    2
   102    75    76    1
   103    69    68    1
   104    69    70    2
   105    86    85    2
   106    68    67    1
   107    34    33    1
   108    77    76    1
   109    77    83   am
   110    95    94    2
   111    84    85    1
   112    84    83    1
   113    84    87    1
   114   175   176    1
   115    94    93    1
   116   158   155   am
   117    85    92   am
   118   176   179    1
   119    76    79    1
   120    88    87    1
   121    79    80    1
   122    33    30   am
   123   156   155    2
   124    67    63   am
   125   155   154    1
   126    92    93    1
   127   180   179    1
   128    93    96    1
   129   179   181    1
   130    64    63    2
   131    80    81   ar
   132    80    82   ar
   133    30    31    2
   134    30    29    1
   135    63    62    1
   136   169   168    2
   137   168   167    1
   138   154   153    1
   139   154   157    1
   140    96    97    1
   141    29    32    1
   142    29    28    1
   143    62    61    1
   144    62    65    1
   145   167   166    1
   146   167   170    1
   147    97    98    1
   148    66    65    1
   149   171   170    1
   150   171   172    1
   151    99    98    1
   152    99   100    2
   153   102   100    1
   154   100   101    1
   155   172   173    1
   156   173   174    1
   157    20    19    2
   158   142   141    2
   159    16    14    1
   160   141   140    1
   161    13    12    2
   162    19    18    1
   163    14    15    1
   164    14    11    1
   165    12    11    1
   166    12    17   am
   167   140   143    1
   168   140   139    1
   169   143   144    1
   170    21    18    1
   171    21    22    1
   172   149   151   ar
   173   149   146   ar
   174     8     7   ar
   175    18    17    1
   176    11    10    1
   177   151   152   ar
   178   146   144   ar
   179   146   148   ar
   180    10     3   am
   181   144   145   ar
   182     7     9   ar
   183     7     6    1
   184    22    23    1
   185   152   150   ar
   186     6     5    1
   187   148   150   ar
   188   148   147   ar
   189    23    24    1
   190   145   147   ar
   191     3     4    2
   192     3     2    1
   193     1     2    1
   194     2     5    1
   195    24    25    2
   196    25    27    1
   197    25    26    1
   198    52    51    1
   199    50    51    1
   200    50    49    1
   201    60    58   ar
   202    59    58   ar
   203    48    49    1
   204    48    45    1
   205    58    57    1
   206    44    45    1
   207    45    46    1
   208    53    46   am
   209    53    54    1
   210    57    54    1
   211    46    47    2
   212    54    55    1
   213    55    56    2
