@<TRIPOS>MOLECULE
tmp/4qinA00.pdb
 216 208 0 0 0
SMALL
GASTEIGER

@<TRIPOS>ATOM
      1  N        -28.4360   74.5980   -6.9860 N.3    16  TYR16      -0.1241
      2  CA       -28.2400   74.2230   -5.6080 C.3    16  TYR16       0.1605
      3  C        -29.4850   74.6280   -4.7900 C.2    16  TYR16       0.2264
      4  O        -30.3050   75.4280   -5.2580 O.2    16  TYR16      -0.2867
      5  CB       -26.9600   74.9030   -5.1090 C.3    16  TYR16       0.0534
      6  CG       -26.5030   74.4180   -3.7610 C.ar   16  TYR16      -0.0201
      7  CD1      -25.8990   73.1760   -3.6160 C.ar   16  TYR16      -0.0009
      8  CD2      -26.6610   75.2060   -2.6250 C.ar   16  TYR16      -0.0009
      9  CE1      -25.4930   72.7130   -2.3670 C.ar   16  TYR16       0.0417
     10  CE2      -26.2530   74.7580   -1.3700 C.ar   16  TYR16       0.0417
     11  CZ       -25.6650   73.5100   -1.2460 C.ar   16  TYR16       0.1957
     12  OH       -25.2620   73.0500   -0.0140 O.3    16  TYR16      -0.2866
     13  N        -23.7150   72.7900   -7.9800 N.3    24  ILE24      -0.1245
     14  CA       -22.4720   72.2410   -7.4380 C.3    24  ILE24       0.1561
     15  C        -21.6230   71.6000   -8.5660 C.2    24  ILE24       0.2260
     16  O        -22.1080   70.7420   -9.2770 O.2    24  ILE24      -0.2867
     17  CB       -22.8040   71.2410   -6.2870 C.3    24  ILE24       0.0252
     18  CG1      -21.6710   70.2440   -6.0080 C.3    24  ILE24       0.0019
     19  CG2      -24.1460   70.5230   -6.5050 C.3    24  ILE24       0.0019
     20  CD1      -20.5370   70.8310   -5.5200 C.3    24  ILE24       0.0001
     21  N        -15.8830   66.2400   -7.4550 N.3    28  ASN28      -0.1226
     22  CA       -16.2340   66.1860   -6.0310 C.3    28  ASN28       0.1770
     23  C        -15.4400   67.2540   -5.2740 C.2    28  ASN28       0.2439
     24  O        -14.2160   67.1500   -5.1540 O.2    28  ASN28      -0.2733
     25  CB       -16.0130   64.7800   -5.4330 C.3    28  ASN28       0.1168
     26  CG       -16.5470   64.5850   -4.0310 C.2    28  ASN28       0.2627
     27  OD1      -16.6690   65.5100   -3.2150 O.2    28  ASN28      -0.2716
     28  ND2      -16.8580   63.3590   -3.7000 N.am   28  ASN28      -0.0877
     29  N        -16.1610   68.3030   -4.7980 N.am   29  PRO29      -0.2718
     30  CA       -15.4990   69.4350   -4.1190 C.3    29  PRO29       0.1535
     31  C        -14.7940   69.0710   -2.8220 C.2    29  PRO29       0.2598
     32  O        -13.8860   69.7970   -2.3970 O.2    29  PRO29      -0.2715
     33  CB       -16.6640   70.3710   -3.7950 C.3    29  PRO29       0.0310
     34  CG       -17.6760   70.0300   -4.7400 C.3    29  PRO29       0.0237
     35  CD       -17.6080   68.5530   -4.9090 C.3    29  PRO29       0.0939
     36  N        -15.2170   67.9560   -2.1960 N.am   30  LEU30      -0.1964
     37  CA       -14.6750   67.4830   -0.9290 C.3    30  LEU30       0.1728
     38  C        -13.3370   66.7780   -1.1480 C.2    30  LEU30       0.2616
     39  O        -12.6540   66.4520   -0.1810 O.2    30  LEU30      -0.2715
     40  CB       -15.6860   66.5590   -0.2200 C.3    30  LEU30       0.0311
     41  CG       -16.8970   67.2690    0.3910 C.3    30  LEU30       0.0022
     42  CD1      -17.9080   67.6870   -0.6690 C.3    30  LEU30       0.0001
     43  CD2      -17.5610   66.3920    1.4010 C.3    30  LEU30       0.0001
     44  N        -12.9330   66.5700   -2.3980 N.am   31  PHE31      -0.1974
     45  CA       -11.6730   65.8900   -2.6140 C.3    31  PHE31       0.1639
     46  C        -10.8750   66.6130   -3.6820 C.2    31  PHE31       0.2290
     47  O        -11.4290   67.2200   -4.6100 O.2    31  PHE31      -0.2864
     48  CB       -11.8880   64.4060   -2.9570 C.3    31  PHE31       0.0560
     49  CG       -12.5770   63.6660   -1.8270 C.ar   31  PHE31      -0.0200
     50  CD1      -11.8560   63.2160   -0.7250 C.ar   31  PHE31      -0.0042
     51  CD2      -13.9550   63.4690   -1.8390 C.ar   31  PHE31      -0.0042
     52  CE1      -12.5000   62.5930    0.3440 C.ar   31  PHE31      -0.0003
     53  CE2      -14.5980   62.8330   -0.7740 C.ar   31  PHE31      -0.0003
     54  CZ       -13.8650   62.3920    0.3060 C.ar   31  PHE31      -0.0000
     55  N        -22.6320   68.1190  -11.0120 N.3   110  MET110     -0.1245
     56  CA       -22.6980   66.7240  -10.6590 C.3   110  MET110      0.1570
     57  C        -23.9950   66.1030  -11.1910 C.2   110  MET110      0.2261
     58  O        -25.0460   66.7490  -11.1410 O.2   110  MET110     -0.2867
     59  CB       -22.6230   66.6250   -9.1390 C.3   110  MET110      0.0387
     60  CG       -21.3640   65.9890   -8.6510 C.3   110  MET110      0.0595
     61  SD       -20.8560   66.4840   -6.9870 S.3   110  MET110     -0.1393
     62  CE       -22.2590   66.1460   -6.1380 C.3   110  MET110      0.0692
     63  N        -26.9320   64.1560  -10.6660 N.3   112  LEU112     -0.1245
     64  CA       -27.6740   63.8280   -9.4440 C.3   112  LEU112      0.1561
     65  C        -29.1520   63.6270   -9.7260 C.2   112  LEU112      0.2260
     66  O        -29.6900   64.2580  -10.6410 O.2   112  LEU112     -0.2867
     67  CB       -27.5120   64.9520   -8.3700 C.3   112  LEU112      0.0270
     68  CG       -26.0820   65.3750   -7.9200 C.3   112  LEU112      0.0019
     69  CD1      -26.1330   66.5690   -6.9840 C.3   112  LEU112      0.0001
     70  CD2      -25.3110   64.2210   -7.2800 C.3   112  LEU112      0.0001
     71  N        -24.1040   60.6230   -9.2220 N.3   192  GLY192     -0.1210
     72  CA       -22.7180   60.4250   -9.6310 C.3   192  GLY192      0.1956
     73  C        -21.7100   60.9300   -8.6240 C.2   192  GLY192      0.2611
     74  O        -21.9500   61.9670   -8.0110 O.2   192  GLY192     -0.2717
     75  N        -20.5770   60.2060   -8.4410 N.am  193  ASP193     -0.1973
     76  CA       -19.4630   60.5990   -7.5490 C.3   193  ASP193      0.1709
     77  C        -18.1490   60.4810   -8.3260 C.2   193  ASP193      0.2293
     78  O        -17.8060   59.3810   -8.7690 O.2   193  ASP193     -0.2864
     79  CB       -19.4300   59.7590   -6.2550 C.3   193  ASP193      0.1436
     80  CG       -18.4070   60.1850   -5.2100 C.2   193  ASP193      0.3671
     81  OD1      -17.5880   59.3310   -4.7960 O.co2 193  ASP193     -0.2456
     82  OD2      -18.4590   61.3530   -4.7690 O.co2 193  ASP193     -0.2456
     83  N        -15.4430   57.9910   -7.1510 N.3   196  SER196     -0.1217
     84  CA       -15.8650   56.6210   -7.4410 C.3   196  SER196      0.1889
     85  C        -15.8400   56.3530   -8.9190 C.2   196  SER196      0.2288
     86  O        -15.6090   55.2180   -9.3240 O.2   196  SER196     -0.2866
     87  CB       -17.2730   56.3630   -6.9060 C.3   196  SER196      0.2089
     88  OG       -17.3380   56.5460   -5.5030 O.3   196  SER196     -0.2183
     89  N        -24.4210   55.6400   -8.6490 N.3   200  PHE200     -0.1241
     90  CA       -24.9840   54.7180   -7.6780 C.3   200  PHE200      0.1605
     91  C        -26.1780   55.3370   -6.9880 C.2   200  PHE200      0.2264
     92  O        -26.3900   56.5450   -7.0830 O.2   200  PHE200     -0.2867
     93  CB       -23.9000   54.3310   -6.6610 C.3   200  PHE200      0.0534
     94  CG       -24.1670   53.0660   -5.8930 C.ar  200  PHE200     -0.0203
     95  CD1      -24.4750   53.1070   -4.5390 C.ar  200  PHE200     -0.0042
     96  CD2      -24.1340   51.8280   -6.5260 C.ar  200  PHE200     -0.0042
     97  CE1      -24.7080   51.9270   -3.8250 C.ar  200  PHE200     -0.0003
     98  CE2      -24.4070   50.6570   -5.8200 C.ar  200  PHE200     -0.0003
     99  CZ       -24.7020   50.7150   -4.4770 C.ar  200  PHE200     -0.0000
    100  N        -26.3640   58.3960   -3.4200 N.3   203  TYR203     -0.1227
    101  CA       -25.1100   59.0800   -3.1200 C.3   203  TYR203      0.1736
    102  C        -25.4250   60.3660   -2.4160 C.2   203  TYR203      0.2595
    103  O        -25.0050   60.5410   -1.2790 O.2   203  TYR203     -0.2718
    104  CB       -24.2870   59.3430   -4.3830 C.3   203  TYR203      0.0548
    105  CG       -23.2720   58.2800   -4.7260 C.ar  203  TYR203     -0.0200
    106  CD1      -22.7880   57.4050   -3.7530 C.ar  203  TYR203     -0.0009
    107  CD2      -22.7160   58.2100   -6.0000 C.ar  203  TYR203     -0.0009
    108  CE1      -21.8230   56.4480   -4.0600 C.ar  203  TYR203      0.0417
    109  CE2      -21.7550   57.2510   -6.3210 C.ar  203  TYR203      0.0417
    110  CZ       -21.2720   56.4070   -5.3360 C.ar  203  TYR203      0.1957
    111  OH       -20.2930   55.5000   -5.6630 O.3   203  TYR203     -0.2866
    112  N        -26.2820   61.2030   -3.0470 N.am  204  LYS204     -0.1980
    113  CA       -26.7440   62.4890   -2.5370 C.3   204  LYS204      0.1596
    114  C        -27.7150   62.2460   -1.3490 C.2   204  LYS204      0.2287
    115  O        -27.3290   62.5090   -0.2110 O.2   204  LYS204     -0.2864
    116  CB       -27.3760   63.3060   -3.6780 C.3   204  LYS204      0.0298
    117  CG       -28.1400   64.5270   -3.2370 C.3   204  LYS204      0.0038
    118  CD       -28.5570   65.3990   -4.4220 C.3   204  LYS204      0.0206
    119  CE       -29.7360   66.2870   -4.1110 C.3   204  LYS204      0.1093
    120  NZ       -29.6000   66.9730   -2.7880 N.3   204  LYS204     -0.1314
    121  N        -30.1600   54.9190    0.5600 N.3   209  ARG209     -0.1245
    122  CA       -29.2080   53.8180    0.6960 C.3   209  ARG209      0.1563
    123  C        -29.6120   52.9040    1.8390 C.2   209  ARG209      0.2260
    124  O        -29.1310   51.7740    1.9010 O.2   209  ARG209     -0.2867
    125  CB       -27.7660   54.2990    0.9040 C.3   209  ARG209      0.0307
    126  CG       -27.1160   55.0380   -0.2770 C.3   209  ARG209      0.0489
    127  CD       -25.5920   55.0530   -0.1510 C.3   209  ARG209      0.2205
    128  NE       -25.1130   55.6250    1.1190 N.pl3 209  ARG209     -0.0865
    129  CZ       -24.6900   56.8820    1.2960 C.cat 209  ARG209      0.5346
    130  NH1      -24.6430   57.7330    0.2700 N.pl3 209  ARG209      0.1354
    131  NH2      -24.2850   57.2880    2.4920 N.pl3 209  ARG209      0.1354
    132  N        -20.5910   50.9400    4.2140 N.3   378  HIS378     -0.1241
    133  CA       -21.8300   51.5710    3.7520 C.3   378  HIS378      0.1621
    134  C        -22.6150   52.1660    4.9140 C.2   378  HIS378      0.2264
    135  O        -23.1710   53.2650    4.7730 O.2   378  HIS378     -0.2867
    136  CB       -22.7180   50.5880    2.9900 C.3   378  HIS378      0.0745
    137  CG       -22.2650   50.3140    1.5970 C.ar  378  HIS378      0.0817
    138  ND1      -22.2200   51.3140    0.6450 N.ar  378  HIS378     -0.2268
    139  CD2      -21.9480   49.1370    1.0090 C.ar  378  HIS378      0.1154
    140  CE1      -21.8170   50.7310   -0.4720 C.ar  378  HIS378      0.1986
    141  NE2      -21.6430   49.4180   -0.3050 N.ar  378  HIS378     -0.2212
    142  N        -20.9500   55.4160    6.1720 N.3   381  ASP381     -0.1239
    143  CA       -21.2710   56.5160    5.2520 C.3   381  ASP381      0.1674
    144  C        -22.7070   57.0240    5.4740 C.2   381  ASP381      0.2266
    145  O        -22.9880   58.2040    5.3150 O.2   381  ASP381     -0.2867
    146  CB       -21.0870   56.0610    3.7860 C.3   381  ASP381      0.1410
    147  CG       -19.6850   55.5850    3.4230 C.2   381  ASP381      0.3668
    148  OD1      -18.6930   56.2050    3.9040 O.co2 381  ASP381     -0.2456
    149  OD2      -19.5710   54.6660    2.5840 O.co2 381  ASP381     -0.2456
    150  N        -23.2000   60.9690    6.6280 N.3   385  GLN385     -0.1245
    151  CA       -23.4220   61.8380    5.4730 C.3   385  GLN385      0.1566
    152  C        -24.1670   63.1340    5.8320 C.2   385  GLN385      0.2260
    153  O        -23.8520   64.1650    5.2350 O.2   385  GLN385     -0.2867
    154  CB       -24.1540   61.1350    4.3420 C.3   385  GLN385      0.0367
    155  CG       -24.1170   61.9890    3.0900 C.3   385  GLN385      0.0905
    156  CD       -24.2710   61.2420    1.8230 C.2   385  GLN385      0.2608
    157  OE1      -23.8450   60.0930    1.6990 O.2   385  GLN385     -0.2717
    158  NE2      -24.7480   61.9470    0.8150 N.am  385  GLN385     -0.0878
    159  N        -21.4040   65.4460    6.7810 N.3   388  TRP388     -0.1227
    160  CA       -20.6000   65.8470    5.6170 C.3   388  TRP388      0.1737
    161  C        -21.3800   66.8260    4.7690 C.2   388  TRP388      0.2595
    162  O        -20.7930   67.7880    4.2780 O.2   388  TRP388     -0.2718
    163  CB       -20.1480   64.6460    4.7810 C.3   388  TRP388      0.0564
    164  CG       -19.4230   63.5870    5.5670 C.ar  388  TRP388      0.0003
    165  CD1      -18.5900   63.7780    6.6300 C.ar  388  TRP388      0.0946
    166  CD2      -19.4220   62.1790    5.3070 C.ar  388  TRP388      0.0152
    167  NE1      -18.0780   62.5790    7.0550 N.ar  388  TRP388     -0.2442
    168  CE2      -18.5810   61.5750    6.2700 C.ar  388  TRP388      0.0810
    169  CE3      -20.0870   61.3580    4.3810 C.ar  388  TRP388      0.0012
    170  CZ2      -18.3860   60.1880    6.3330 C.ar  388  TRP388      0.0191
    171  CZ3      -19.8960   59.9840    4.4510 C.ar  388  TRP388      0.0001
    172  CH2      -19.0460   59.4160    5.4120 C.ar  388  TRP388      0.0015
    173  N        -22.7160   66.6330    4.6790 N.am  389  GLU389     -0.1979
    174  CA       -23.6180   67.5210    3.9610 C.3   389  GLU389      0.1602
    175  C        -23.6860   68.9030    4.6280 C.2   389  GLU389      0.2287
    176  O        -23.5220   69.9050    3.9160 O.2   389  GLU389     -0.2864
    177  CB       -25.0300   66.9250    3.8490 C.3   389  GLU389      0.0415
    178  CG       -25.1940   65.9380    2.7030 C.3   389  GLU389      0.1163
    179  CD       -26.5620   65.2980    2.5400 C.2   389  GLU389      0.3649
    180  OE1      -26.8550   64.8150    1.4230 O.co2 389  GLU389     -0.2457
    181  OE2      -27.3450   65.2850    3.5180 O.co2 389  GLU389     -0.2457
    182  N        -20.6390   70.8390    4.2540 N.3   392  PHE392     -0.1241
    183  CA       -20.5210   71.2980    2.8730 C.3   392  PHE392      0.1605
    184  C        -21.3410   72.5360    2.6640 C.2   392  PHE392      0.2264
    185  O        -20.8750   73.4490    1.9890 O.2   392  PHE392     -0.2867
    186  CB       -20.9560   70.2220    1.8780 C.3   392  PHE392      0.0534
    187  CG       -21.0130   70.6850    0.4370 C.ar  392  PHE392     -0.0203
    188  CD1      -22.2210   71.0590   -0.1430 C.ar  392  PHE392     -0.0042
    189  CD2      -19.8560   70.7450   -0.3400 C.ar  392  PHE392     -0.0042
    190  CE1      -22.2730   71.4520   -1.4810 C.ar  392  PHE392     -0.0003
    191  CE2      -19.9090   71.1610   -1.6680 C.ar  392  PHE392     -0.0003
    192  CZ       -21.1160   71.5140   -2.2260 C.ar  392  PHE392     -0.0000
    193  N        -16.0190   62.4760    3.8540 N.3   409  PRO409     -0.2116
    194  CA       -15.9430   61.0060    3.8720 C.3   409  PRO409      0.1372
    195  C        -14.4880   60.5060    4.0450 C.2   409  PRO409      0.2244
    196  O        -13.5310   61.1810    3.6420 O.2   409  PRO409     -0.2868
    197  CB       -16.5190   60.6010    2.5040 C.3   409  PRO409      0.0268
    198  CG       -17.2700   61.7620    2.0560 C.3   409  PRO409      0.0207
    199  CD       -16.5150   62.9400    2.5490 C.3   409  PRO409      0.0892
    200  N        -13.4580   54.1070    2.2210 N.3   414  GLU414     -0.1245
    201  CA       -13.8400   53.8640    0.8270 C.3   414  GLU414      0.1567
    202  C        -12.8910   52.8220    0.1950 C.2   414  GLU414      0.2260
    203  O        -13.3610   51.9420   -0.5330 O.2   414  GLU414     -0.2867
    204  CB       -13.8790   55.1580   -0.0150 C.3   414  GLU414      0.0388
    205  CG       -15.1970   55.9210    0.0630 C.3   414  GLU414      0.1160
    206  CD       -15.5640   56.7560   -1.1580 C.2   414  GLU414      0.3649
    207  OE1      -15.8950   57.9490   -0.9760 O.co2 414  GLU414     -0.2457
    208  OE2      -15.5390   56.2210   -2.2930 O.co2 414  GLU414     -0.2457
    209  N        -13.6970   49.3950    1.7460 N.3   417  ASN417     -0.1240
    210  CA       -14.9180   48.8730    1.1240 C.3   417  ASN417      0.1653
    211  C        -14.5970   48.2540   -0.2300 C.2   417  ASN417      0.2266
    212  O        -14.9610   47.1020   -0.4720 O.2   417  ASN417     -0.2867
    213  CB       -15.9760   49.9750    0.9640 C.3   417  ASN417      0.1155
    214  CG       -17.4030   49.5050    0.6990 C.2   417  ASN417      0.2627
    215  OD1      -18.3640   50.1620    1.1060 O.2   417  ASN417     -0.2716
    216  ND2      -17.5990   48.3900    0.0050 N.am  417  ASN417     -0.0877
@<TRIPOS>BOND
     1    57    58    2
     2    57    56    1
     3    55    56    1
     4    63    64    1
     5    56    59    1
     6    66    65    2
     7    65    64    1
     8    72    71    1
     9    72    73    1
    10    64    67    1
    11    86    85    2
    12    16    15    2
    13    59    60    1
    14    85    84    1
    15    78    77    2
    16    60    61    1
    17    89    90    1
    18    73    75   am
    19    73    74    2
    20    15    14    1
    21    75    76    1
    22    67    68    1
    23    77    76    1
    24    13    14    1
    25    68    70    1
    26    68    69    1
    27    90    91    1
    28    90    93    1
    29    76    79    1
    30    21    22    1
    31    84    83    1
    32    84    87    1
    33    14    17    1
    34    92    91    2
    35    61    62    1
    36     1     2    1
    37    87    88    1
    38    93    94    1
    39    96    94   ar
    40    96    98   ar
    41    19    17    1
    42   109   107   ar
    43   109   110   ar
    44    17    18    1
    45    79    80    1
    46    22    25    1
    47    22    23    1
    48    18    20    1
    49   107   105   ar
    50    94    95   ar
    51    98    99   ar
    52   111   110    1
    53     2     5    1
    54     2     3    1
    55    25    26    1
    56   110   108   ar
    57    23    24    2
    58    23    29   am
    59     4     3    2
    60    80    81   ar
    61    80    82   ar
    62     5     6    1
    63    35    29    1
    64    35    34    1
    65    29    30    1
    66    34    33    1
    67   105   104    1
    68   105   106   ar
    69    47    46    2
    70    95    97   ar
    71    99    97   ar
    72   118   119    1
    73   118   117    1
    74   104   101    1
    75    30    33    1
    76    30    31    1
    77   119   120    1
    78   108   106   ar
    79    26    28   am
    80    26    27    2
    81     6     7   ar
    82     6     8   ar
    83    46    45    1
    84   116   117    1
    85   116   113    1
    86     7     9   ar
    87   100   101    1
    88   101   102    1
    89   112   113    1
    90   112   102   am
    91    48    45    1
    92    48    49    1
    93    31    32    2
    94    31    36   am
    95     8    10   ar
    96    45    44    1
    97   113   114    1
    98   102   103    2
    99    44    38   am
   100     9    11   ar
   101   208   206   ar
   102   192   191   ar
   103   192   190   ar
   104    36    37    1
   105    51    49   ar
   106    51    53   ar
   107    49    50   ar
   108   191   189   ar
   109   190   188   ar
   110    10    11   ar
   111   114   115    2
   112    11    12    1
   113   206   207   ar
   114   206   205    1
   115    38    37    1
   116    38    39    2
   117    37    40    1
   118    53    54   ar
   119    50    52   ar
   120    42    41    1
   121   203   202    2
   122   140   141   ar
   123   140   138   ar
   124   212   211    2
   125   189   187   ar
   126   141   139   ar
   127   126   127    1
   128   126   125    1
   129   211   210    1
   130    40    41    1
   131   127   128    1
   132   188   187   ar
   133   204   205    1
   134   204   201    1
   135   216   214   am
   136   202   201    1
   137   130   129    1
   138    54    52   ar
   139    41    43    1
   140   187   186    1
   141   121   122    1
   142   138   137   ar
   143   122   125    1
   144   122   123    1
   145   214   213    1
   146   214   215    2
   147   158   156   am
   148   201   200    1
   149   213   210    1
   150   139   137   ar
   151   128   129    2
   152   210   209    1
   153   129   131    1
   154   180   179   ar
   155   137   136    1
   156   157   156    2
   157   156   155    1
   158   123   124    2
   159   186   183    1
   160   185   184    2
   161   198   197    1
   162   198   199    1
   163   197   194    1
   164   179   178    1
   165   179   181   ar
   166   199   193    1
   167   149   147   ar
   168   184   183    1
   169   178   177    1
   170   183   182    1
   171   136   133    1
   172   155   154    1
   173   147   146    1
   174   147   148   ar
   175   196   195    2
   176   133   132    1
   177   133   134    1
   178   146   143    1
   179   177   174    1
   180   193   194    1
   181   194   195    1
   182   176   175    2
   183   174   175    1
   184   174   173    1
   185   162   161    2
   186   154   151    1
   187   169   171   ar
   188   169   166   ar
   189   171   172   ar
   190   173   161   am
   191   161   160    1
   192   135   134    2
   193   163   164    1
   194   163   160    1
   195   153   152    2
   196   143   144    1
   197   143   142    1
   198   166   164   ar
   199   166   168   ar
   200   145   144    2
   201   172   170   ar
   202   151   152    1
   203   151   150    1
   204   164   165   ar
   205   160   159    1
   206   168   170   ar
   207   168   167   ar
   208   165   167   ar
