@<TRIPOS>MOLECULE
tmp/4qipA00.pdb
 94 91 0 0 0
SMALL
GASTEIGER

@<TRIPOS>ATOM
      1  N         19.6550   10.1480   12.5250 N.3    34  ALA34      -0.1245
      2  CA        18.6720   10.5680   13.5090 C.3    34  ALA34       0.1562
      3  C         19.0240   10.0470   14.9050 C.2    34  ALA34       0.2260
      4  O         18.2470    9.3020   15.4990 O.2    34  ALA34      -0.2867
      5  CB        17.2800   10.1050   13.0940 C.3    34  ALA34       0.0290
      6  N         19.0390   11.3490   17.7710 N.3    36  GLN36      -0.1231
      7  CA        18.1400   11.7710   18.8400 C.3    36  GLN36       0.1698
      8  C         16.7590   11.1410   18.6970 C.2    36  GLN36       0.2592
      9  O         15.8730   11.3870   19.5160 O.2    36  GLN36      -0.2718
     10  CB        18.0400   13.2950   18.9050 C.3    36  GLN36       0.0381
     11  CG        19.2810   13.9580   19.4880 C.3    36  GLN36       0.0905
     12  CD        20.3900   14.1360   18.4650 C.2    36  GLN36       0.2608
     13  OE1       20.1360   14.4940   17.3090 O.2    36  GLN36      -0.2717
     14  NE2       21.6270   13.8880   18.8830 N.am   36  GLN36      -0.0878
     15  N         16.5950   10.3240   17.6590 N.am   37  ALA37      -0.1980
     16  CA        15.4040    9.4890   17.4890 C.3    37  ALA37       0.1597
     17  C         15.7110    8.0230   17.8420 C.2    37  ALA37       0.2287
     18  O         14.9150    7.3470   18.4950 O.2    37  ALA37      -0.2864
     19  CB        14.8800    9.5990   16.0640 C.3    37  ALA37       0.0319
     20  N         16.3430    3.4390   22.2220 N.3    58  PHE58      -0.1241
     21  CA        15.9590    4.8390   22.0660 C.3    58  PHE58       0.1605
     22  C         16.8040    5.7200   22.9870 C.2    58  PHE58       0.2264
     23  O         17.3680    5.2220   23.9640 O.2    58  PHE58      -0.2867
     24  CB        14.4570    5.0160   22.3280 C.3    58  PHE58       0.0534
     25  CG        13.5940    4.1290   21.4780 C.ar   58  PHE58      -0.0203
     26  CD1       13.4170    4.4040   20.1230 C.ar   58  PHE58      -0.0042
     27  CD2       12.9790    3.0080   22.0210 C.ar   58  PHE58      -0.0042
     28  CE1       12.6350    3.5760   19.3260 C.ar   58  PHE58      -0.0003
     29  CE2       12.1920    2.1760   21.2320 C.ar   58  PHE58      -0.0003
     30  CZ        12.0220    2.4610   19.8830 C.ar   58  PHE58      -0.0000
     31  N         13.2690    8.9780   26.4460 N.3    62  PHE62      -0.1228
     32  CA        12.1850    8.4910   25.6010 C.3    62  PHE62       0.1721
     33  C         11.2100    7.6010   26.3760 C.2    62  PHE62       0.2437
     34  O         11.6040    6.9570   27.3430 O.2    62  PHE62      -0.2733
     35  CB        12.7460    7.7730   24.3690 C.3    62  PHE62       0.0547
     36  CG        12.8830    8.6700   23.1750 C.ar   62  PHE62      -0.0202
     37  CD1       13.5760    9.8760   23.2720 C.ar   62  PHE62      -0.0042
     38  CD2       12.3120    8.3240   21.9590 C.ar   62  PHE62      -0.0042
     39  CE1       13.6990   10.7150   22.1730 C.ar   62  PHE62      -0.0003
     40  CE2       12.4310    9.1590   20.8590 C.ar   62  PHE62      -0.0003
     41  CZ        13.1250   10.3550   20.9680 C.ar   62  PHE62      -0.0000
     42  N          9.9320    7.5650   25.9450 N.am   63  PRO63      -0.2718
     43  CA         8.8910    6.8020   26.6440 C.3    63  PRO63       0.1535
     44  C          9.2340    5.3240   26.8060 C.2    63  PRO63       0.2598
     45  O          8.8100    4.7060   27.7760 O.2    63  PRO63      -0.2715
     46  CB         7.6650    6.9630   25.7340 C.3    63  PRO63       0.0310
     47  CG         7.9170    8.2180   24.9780 C.3    63  PRO63       0.0237
     48  CD         9.3980    8.2330   24.7460 C.3    63  PRO63       0.0939
     49  N          9.9870    4.7770   25.8530 N.am   64  PHE64      -0.1974
     50  CA        10.4090    3.3790   25.8810 C.3    64  PHE64       0.1639
     51  C         11.9320    3.2840   25.8520 C.2    64  PHE64       0.2290
     52  O         12.6060    4.1160   25.2440 O.2    64  PHE64      -0.2864
     53  CB         9.8400    2.6130   24.6820 C.3    64  PHE64       0.0560
     54  CG         8.3380    2.6160   24.6020 C.ar   64  PHE64      -0.0200
     55  CD1        7.5630    2.4220   25.7380 C.ar   64  PHE64      -0.0042
     56  CD2        7.7010    2.7850   23.3780 C.ar   64  PHE64      -0.0042
     57  CE1        6.1800    2.4180   25.6600 C.ar   64  PHE64      -0.0003
     58  CE2        6.3150    2.7790   23.2950 C.ar   64  PHE64      -0.0003
     59  CZ         5.5550    2.5980   24.4390 C.ar   64  PHE64      -0.0000
     60  N          2.1280    8.7590   18.0250 N.3   135  ALA135     -0.1231
     61  CA         3.5350    8.8610   18.4120 C.3   135  ALA135      0.1694
     62  C          4.4150    8.0350   17.4750 C.2   135  ALA135      0.2592
     63  O          5.4550    8.5060   17.0140 O.2   135  ALA135     -0.2718
     64  CB         3.7340    8.4240   19.8550 C.3   135  ALA135      0.0304
     65  N          3.9760    6.8090   17.1970 N.am  136  SER136     -0.1952
     66  CA         4.6880    5.9170   16.2890 C.3   136  SER136      0.1924
     67  C          4.7730    6.4950   14.8730 C.2   136  SER136      0.2314
     68  O          5.7930    6.3430   14.1960 O.2   136  SER136     -0.2863
     69  CB         4.0270    4.5390   16.2660 C.3   136  SER136      0.2116
     70  OG         2.7560    4.5840   15.6440 O.3   136  SER136     -0.2180
     71  N          4.7740    9.7060   14.1620 N.3   138  GLU138     -0.1231
     72  CA         5.7370   10.8000   14.2850 C.3   138  GLU138      0.1699
     73  C          7.1740   10.2890   14.2070 C.2   138  GLU138      0.2592
     74  O          8.0180   10.9020   13.5660 O.2   138  GLU138     -0.2718
     75  CB         5.5270   11.5680   15.5900 C.3   138  GLU138      0.0402
     76  CG         4.2700   12.4300   15.6130 C.3   138  GLU138      0.1161
     77  CD         4.0600   13.1380   16.9400 C.2   138  GLU138      0.3649
     78  OE1        4.5510   12.6390   17.9770 O.co2 138  GLU138     -0.2457
     79  OE2        3.3980   14.1990   16.9470 O.co2 138  GLU138     -0.2457
     80  N          7.4380    9.1680   14.8720 N.am  139  MET139     -0.1979
     81  CA         8.7550    8.5390   14.8370 C.3   139  MET139      0.1605
     82  C          9.1270    8.1480   13.4120 C.2   139  MET139      0.2287
     83  O         10.2140    8.4800   12.9340 O.2   139  MET139     -0.2864
     84  CB         8.7950    7.3280   15.7770 C.3   139  MET139      0.0413
     85  CG        10.0090    6.4210   15.6290 C.3   139  MET139      0.0598
     86  SD        11.5890    7.2860   15.7570 S.3   139  MET139     -0.1393
     87  CE        11.5670    7.7720   17.4760 C.3   139  MET139      0.0692
     88  N          9.8210   11.2100   11.2940 N.3   142  THR142     -0.1218
     89  CA        11.1290   11.7850   11.6470 C.3   142  THR142      0.1862
     90  C         12.2680   10.9910   11.0110 C.2   142  THR142      0.2287
     91  O         13.2240   11.5720   10.4880 O.2   142  THR142     -0.2866
     92  CB        11.3190   11.8360   13.1720 C.3   142  THR142      0.1770
     93  OG1       10.3090   12.6690   13.7380 O.3   142  THR142     -0.2211
     94  CG2       12.7090   12.3780   13.5540 C.3   142  THR142      0.0375
@<TRIPOS>BOND
     1    91    90    2
     2    90    89    1
     3    88    89    1
     4    89    92    1
     5     1     2    1
     6    83    82    2
     7     5     2    1
     8    92    94    1
     9    92    93    1
    10    82    81    1
    11     2     3    1
    12    74    73    2
    13    71    72    1
    14    68    67    2
    15    73    72    1
    16    73    80   am
    17    72    75    1
    18    81    80    1
    19    81    84    1
    20    67    66    1
    21     3     4    2
    22    75    76    1
    23    76    77    1
    24    85    86    1
    25    85    84    1
    26    70    69    1
    27    86    87    1
    28    19    16    1
    29    69    66    1
    30    66    65    1
    31    77    79   ar
    32    77    78   ar
    33    63    62    2
    34    65    62   am
    35    13    12    2
    36    62    61    1
    37    16    15    1
    38    16    17    1
    39    15     8   am
    40     6     7    1
    41    17    18    2
    42    60    61    1
    43    61    64    1
    44    12    14   am
    45    12    11    1
    46     8     7    1
    47     8     9    2
    48     7    10    1
    49    10    11    1
    50    28    30   ar
    51    28    26   ar
    52    30    29   ar
    53    26    25   ar
    54    40    41   ar
    55    40    38   ar
    56    41    39   ar
    57    29    27   ar
    58    25    27   ar
    59    25    24    1
    60    38    36   ar
    61    21    20    1
    62    21    24    1
    63    21    22    1
    64    39    37   ar
    65    22    23    2
    66    36    37   ar
    67    36    35    1
    68    58    56   ar
    69    58    59   ar
    70    56    54   ar
    71    35    32    1
    72    59    57   ar
    73    54    53    1
    74    54    55   ar
    75    53    50    1
    76    48    47    1
    77    48    42    1
    78    47    46    1
    79    52    51    2
    80    32    33    1
    81    32    31    1
    82    57    55   ar
    83    46    43    1
    84    51    50    1
    85    49    50    1
    86    49    44   am
    87    42    33   am
    88    42    43    1
    89    33    34    2
    90    43    44    1
    91    44    45    2
