@<TRIPOS>MOLECULE
tmp/4qipA01.pdb
 189 177 0 0 0
SMALL
GASTEIGER

@<TRIPOS>ATOM
      1  N         -1.8350    4.4700    7.0190 N.3     7  THR7       -0.1203
      2  CA        -1.5340    5.8230    6.5640 C.3     7  THR7        0.1994
      3  C         -0.6440    5.7890    5.3250 C.2     7  THR7        0.2618
      4  O         -0.0680    4.7500    4.9760 O.2     7  THR7       -0.2717
      5  CB        -0.9020    6.6970    7.6780 C.3     7  THR7        0.1784
      6  OG1       -0.8680    8.0690    7.2580 O.3     7  THR7       -0.2211
      7  CG2        0.5110    6.2280    8.0270 C.3     7  THR7        0.0376
      8  N         -0.5570    6.9330    4.6600 N.am    8  GLU8       -0.1965
      9  CA         0.2910    7.0930    3.4910 C.3     8  GLU8        0.1733
     10  C          1.1140    8.3600    3.6090 C.2     8  GLU8        0.2617
     11  O          0.6710    9.3470    4.1980 O.2     8  GLU8       -0.2715
     12  CB        -0.5500    7.1760    2.2250 C.3     8  GLU8        0.0429
     13  CG        -0.8750    5.8370    1.6040 C.3     8  GLU8        0.1163
     14  CD        -1.4880    5.9870    0.2310 C.2     8  GLU8        0.3649
     15  OE1       -1.2960    7.0550   -0.3920 O.co2   8  GLU8       -0.2457
     16  OE2       -2.1660    5.0410   -0.2210 O.co2   8  GLU8       -0.2457
     17  N          2.3070    8.3270    3.0280 N.am    9  THR9       -0.1951
     18  CA         3.1710    9.5000    2.9860 C.3     9  THR9        0.1897
     19  C          4.0100    9.4860    1.7080 C.2     9  THR9        0.2313
     20  O          4.2230    8.4320    1.0950 O.2     9  THR9       -0.2863
     21  CB         4.0690    9.5970    4.2460 C.3     9  THR9        0.1794
     22  OG1        4.4890   10.9520    4.4400 O.3     9  THR9       -0.2208
     23  CG2        5.2920    8.6930    4.1310 C.3     9  THR9        0.0378
     24  N         16.3910    3.4360    3.3180 N.3    22  PHE22      -0.1227
     25  CA        15.4740    3.6210    4.4420 C.3    22  PHE22       0.1736
     26  C         15.0340    2.2910    5.0560 C.2    22  PHE22       0.2595
     27  O         14.9710    2.1550    6.2840 O.2    22  PHE22      -0.2718
     28  CB        14.2540    4.4360    3.9950 C.3    22  PHE22       0.0547
     29  CG        13.2930    4.7550    5.1060 C.ar   22  PHE22      -0.0202
     30  CD1       13.7190    5.4350    6.2380 C.ar   22  PHE22      -0.0042
     31  CD2       11.9620    4.3780    5.0180 C.ar   22  PHE22      -0.0042
     32  CE1       12.8380    5.7330    7.2610 C.ar   22  PHE22      -0.0003
     33  CE2       11.0720    4.6770    6.0370 C.ar   22  PHE22      -0.0003
     34  CZ        11.5140    5.3520    7.1620 C.ar   22  PHE22      -0.0000
     35  N         14.7590    1.3080    4.2020 N.am   23  ILE23      -0.1980
     36  CA        14.2830    0.0030    4.6670 C.3    23  ILE23       0.1595
     37  C         15.4050   -1.0020    4.9230 C.2    23  ILE23       0.2287
     38  O         15.4930   -1.5790    6.0100 O.2    23  ILE23      -0.2864
     39  CB        13.2740   -0.6180    3.6780 C.3    23  ILE23       0.0276
     40  CG1       12.0080    0.2440    3.5730 C.3    23  ILE23       0.0022
     41  CG2       12.9430   -2.0400    4.0850 C.3    23  ILE23       0.0022
     42  CD1       11.2760    0.4630    4.8820 C.3    23  ILE23       0.0001
     43  N         18.4340    0.5320    7.3900 N.3    26  GLY26      -0.1210
     44  CA        18.0220    1.2810    8.5700 C.3    26  GLY26       0.1956
     45  C         18.9400    1.0200    9.7560 C.2    26  GLY26       0.2611
     46  O         19.0880    1.8770   10.6330 O.2    26  GLY26      -0.2717
     47  N         19.5570   -0.1640    9.7710 N.am   27  ASP27      -0.1973
     48  CA        20.5180   -0.5630   10.8040 C.3    27  ASP27       0.1709
     49  C         21.6580    0.4370   10.9270 C.2    27  ASP27       0.2293
     50  O         22.0920    0.7720   12.0280 O.2    27  ASP27      -0.2864
     51  CB        21.1140   -1.9360   10.4800 C.3    27  ASP27       0.1436
     52  CG        20.1080   -3.0590   10.6040 C.2    27  ASP27       0.3671
     53  OD1       18.9720   -2.8010   11.0530 O.co2  27  ASP27      -0.2456
     54  OD2       20.4590   -4.2090   10.2530 O.co2  27  ASP27      -0.2456
     55  N         19.7480    4.9390   10.6440 N.3    30  PHE30      -0.1241
     56  CA        18.9500    5.5270   11.7300 C.3    30  PHE30       0.1605
     57  C         19.7980    6.0900   12.8790 C.2    30  PHE30       0.2264
     58  O         19.5770    7.2310   13.3020 O.2    30  PHE30      -0.2867
     59  CB        17.9050    4.5330   12.2660 C.3    30  PHE30       0.0534
     60  CG        16.8360    4.1650   11.2670 C.ar   30  PHE30      -0.0203
     61  CD1       16.5200    5.0140   10.2150 C.ar   30  PHE30      -0.0042
     62  CD2       16.1350    2.9650   11.3880 C.ar   30  PHE30      -0.0042
     63  CE1       15.5360    4.6800    9.2980 C.ar   30  PHE30      -0.0003
     64  CE2       15.1490    2.6250   10.4750 C.ar   30  PHE30      -0.0003
     65  CZ        14.8460    3.4840    9.4320 C.ar   30  PHE30      -0.0000
     66  N         16.2370   -7.7540   15.6510 N.3    54  LYS54      -0.1245
     67  CA        17.0120   -6.5430   15.9040 C.3    54  LYS54       0.1561
     68  C         16.5020   -5.8530   17.1620 C.2    54  LYS54       0.2260
     69  O         15.3090   -5.8840   17.4480 O.2    54  LYS54      -0.2867
     70  CB        16.9280   -5.5810   14.7180 C.3    54  LYS54       0.0271
     71  CG        17.5030   -6.1310   13.4330 C.3    54  LYS54       0.0035
     72  CD        17.2940   -5.1630   12.2840 C.3    54  LYS54       0.0206
     73  CE        17.6630   -5.8090   10.9580 C.3    54  LYS54       0.1093
     74  NZ        17.5000   -4.8570    9.8290 N.3    54  LYS54      -0.1314
     75  N         16.2590   -2.2260   18.8630 N.3    56  ILE56      -0.1245
     76  CA        16.3540   -0.7890   18.6320 C.3    56  ILE56       0.1561
     77  C         16.2520   -0.0470   19.9560 C.2    56  ILE56       0.2260
     78  O         15.1880   -0.0370   20.5860 O.2    56  ILE56      -0.2867
     79  CB        15.2410   -0.2840   17.6810 C.3    56  ILE56       0.0252
     80  CG1       15.3310   -0.9640   16.3150 C.3    56  ILE56       0.0019
     81  CG2       15.3000    1.2230   17.5230 C.3    56  ILE56       0.0019
     82  CD1       14.4960   -2.2260   16.2060 C.3    56  ILE56       0.0001
     83  N         12.5320   -6.0170   17.1130 N.3    69  ASP69      -0.1239
     84  CA        11.7580   -6.2650   15.8990 C.3    69  ASP69       0.1674
     85  C         12.2000   -7.5590   15.2400 C.2    69  ASP69       0.2266
     86  O         13.3770   -7.9320   15.2970 O.2    69  ASP69      -0.2867
     87  CB        11.9070   -5.1140   14.8990 C.3    69  ASP69       0.1410
     88  CG        11.2500   -3.8320   15.3750 C.2    69  ASP69       0.3668
     89  OD1       10.4550   -3.8800   16.3400 O.co2  69  ASP69      -0.2456
     90  OD2       11.5340   -2.7750   14.7800 O.co2  69  ASP69      -0.2456
     91  N         12.0740   -9.4170   11.5050 N.3    71  VAL71      -0.1245
     92  CA        11.8180   -9.3050   10.0760 C.3    71  VAL71       0.1561
     93  C         10.8880  -10.4330    9.6570 C.2    71  VAL71       0.2260
     94  O         11.1890  -11.6100    9.8720 O.2    71  VAL71      -0.2867
     95  CB        13.1210   -9.3620    9.2640 C.3    71  VAL71       0.0252
     96  CG1       12.8260   -9.3550    7.7680 C.3    71  VAL71       0.0019
     97  CG2       14.0280   -8.2010    9.6470 C.3    71  VAL71       0.0019
     98  N          8.1030   -4.5600    2.7470 N.3    81  TYR81      -0.1241
     99  CA         8.8520   -4.9340    3.9360 C.3    81  TYR81       0.1605
    100  C          7.9300   -5.1340    5.1260 C.2    81  TYR81       0.2264
    101  O          7.2720   -4.1990    5.5870 O.2    81  TYR81      -0.2867
    102  CB         9.9050   -3.8780    4.2600 C.3    81  TYR81       0.0534
    103  CG        10.7970   -4.2270    5.4370 C.ar   81  TYR81      -0.0201
    104  CD1       11.8280   -5.1540    5.3000 C.ar   81  TYR81      -0.0009
    105  CD2       10.6200   -3.6160    6.6750 C.ar   81  TYR81      -0.0009
    106  CE1       12.6530   -5.4690    6.3650 C.ar   81  TYR81       0.0417
    107  CE2       11.4390   -3.9270    7.7520 C.ar   81  TYR81       0.0417
    108  CZ        12.4510   -4.8540    7.5850 C.ar   81  TYR81       0.1957
    109  OH        13.2770   -5.1660    8.6320 O.3    81  TYR81      -0.2866
    110  N          7.5820   -6.4320    9.0890 N.3    83  TYR83      -0.1241
    111  CA         8.3180   -6.6550   10.3260 C.3    83  TYR83       0.1605
    112  C          7.3620   -6.5430   11.5060 C.2    83  TYR83       0.2264
    113  O          6.3160   -5.9080   11.4040 O.2    83  TYR83      -0.2867
    114  CB         9.4820   -5.6570   10.4650 C.3    83  TYR83       0.0534
    115  CG         9.0470   -4.2390   10.7590 C.ar   83  TYR83      -0.0201
    116  CD1        8.6520   -3.3840    9.7310 C.ar   83  TYR83      -0.0009
    117  CD2        9.0140   -3.7600   12.0640 C.ar   83  TYR83      -0.0009
    118  CE1        8.2430   -2.0930    9.9910 C.ar   83  TYR83       0.0417
    119  CE2        8.6070   -2.4670   12.3350 C.ar   83  TYR83       0.0417
    120  CZ         8.2220   -1.6410   11.2980 C.ar   83  TYR83       0.1957
    121  OH         7.8050   -0.3630   11.5700 O.3    83  TYR83      -0.2866
    122  N          5.0570   -2.5080    5.1410 N.3   102  ILE102     -0.1245
    123  CA         5.4390   -1.3150    4.3820 C.3   102  ILE102      0.1561
    124  C          5.5290   -1.6200    2.8850 C.2   102  ILE102      0.2260
    125  O          6.0790   -2.6470    2.4900 O.2   102  ILE102     -0.2867
    126  CB         6.7930   -0.7400    4.8690 C.3   102  ILE102      0.0252
    127  CG1        6.7680   -0.4950    6.3800 C.3   102  ILE102      0.0019
    128  CG2        7.1400    0.5470    4.1330 C.3   102  ILE102      0.0019
    129  CD1        8.0600    0.0630    6.9500 C.3   102  ILE102      0.0001
    130  N          4.8660    5.9830    0.2620 N.3   114  LEU114     -0.1245
    131  CA         4.9210    4.9260    1.2640 C.3   114  LEU114      0.1561
    132  C          3.5340    4.6000    1.7850 C.2   114  LEU114      0.2260
    133  O          2.7680    5.4960    2.1450 O.2   114  LEU114     -0.2867
    134  CB         5.8290    5.3160    2.4260 C.3   114  LEU114      0.0270
    135  CG         7.3360    5.2620    2.1920 C.3   114  LEU114      0.0019
    136  CD1        7.8410    6.6330    1.7710 C.3   114  LEU114      0.0001
    137  CD2        8.0440    4.7800    3.4550 C.3   114  LEU114      0.0001
    138  N          1.9360    2.2950    4.7810 N.3   116  ILE116     -0.1245
    139  CA         2.2340    1.5050    5.9700 C.3   116  ILE116      0.1561
    140  C          0.9490    1.0300    6.6570 C.2   116  ILE116      0.2260
    141  O          0.0180    1.8070    6.8640 O.2   116  ILE116     -0.2867
    142  CB         3.1550    2.2700    6.9560 C.3   116  ILE116      0.0252
    143  CG1        3.2720    1.5490    8.3030 C.3   116  ILE116      0.0019
    144  CG2        2.6590    3.6840    7.1880 C.3   116  ILE116      0.0019
    145  CD1        3.9710    0.2060    8.2520 C.3   116  ILE116      0.0001
    146  N          3.9760    6.8090   17.1970 N.3   136  SER136     -0.1202
    147  CA         4.6880    5.9170   16.2890 C.3   136  SER136      0.2020
    148  C          4.7730    6.4950   14.8730 C.2   136  SER136      0.2618
    149  O          5.7930    6.3430   14.1960 O.2   136  SER136     -0.2717
    150  CB         4.0270    4.5390   16.2660 C.3   136  SER136      0.2103
    151  OG         2.7560    4.5840   15.6440 O.3   136  SER136     -0.2182
    152  N          3.7030    7.1560   14.4350 N.am  137  LYS137     -0.1979
    153  CA         3.6830    7.7990   13.1200 C.3   137  LYS137      0.1596
    154  C          4.6950    8.9460   13.0700 C.2   137  LYS137      0.2287
    155  O          5.3870    9.1330   12.0610 O.2   137  LYS137     -0.2864
    156  CB         2.2750    8.3060   12.7840 C.3   137  LYS137      0.0298
    157  CG         2.1970    9.1430   11.5180 C.3   137  LYS137      0.0038
    158  CD         0.7660    9.5510   11.2020 C.3   137  LYS137      0.0206
    159  CE         0.7190   10.4730    9.9940 C.3   137  LYS137      0.1093
    160  NZ        -0.6780   10.8380    9.6240 N.3   137  LYS137     -0.1314
    161  N          8.2200    7.4490   12.7380 N.3   140  GLY140     -0.1210
    162  CA         8.4430    7.0100   11.3690 C.3   140  GLY140      0.1956
    163  C          8.7010    8.1760   10.4330 C.2   140  GLY140      0.2611
    164  O          9.6020    8.1220    9.5960 O.2   140  GLY140     -0.2717
    165  N          7.9100    9.2340   10.5980 N.am  141  GLU141     -0.1979
    166  CA         8.0450   10.4530    9.8100 C.3   141  GLU141      0.1602
    167  C          9.4010   11.1190   10.0330 C.2   141  GLU141      0.2287
    168  O         10.0510   11.5360    9.0760 O.2   141  GLU141     -0.2864
    169  CB         6.9170   11.4310   10.1450 C.3   141  GLU141      0.0415
    170  CG         6.8460   12.6480    9.2330 C.3   141  GLU141      0.1163
    171  CD         6.4700   12.3020    7.7990 C.2   141  GLU141      0.3649
    172  OE1        5.9830   11.1800    7.5480 O.co2 141  GLU141     -0.2457
    173  OE2        6.6620   13.1650    6.9160 O.co2 141  GLU141     -0.2457
    174  N         12.1510    9.6650   11.0450 N.3   143  LEU143     -0.1231
    175  CA        13.1380    8.7830   10.4210 C.3   143  LEU143      0.1693
    176  C         13.1850    8.9630    8.9080 C.2   143  LEU143      0.2591
    177  O         14.2660    9.0490    8.3250 O.2   143  LEU143     -0.2718
    178  CB        12.8470    7.3210   10.7640 C.3   143  LEU143      0.0284
    179  CG        12.9600    6.9570   12.2490 C.3   143  LEU143      0.0019
    180  CD1       12.8200    5.4540   12.4400 C.3   143  LEU143      0.0001
    181  CD2       14.2730    7.4670   12.8310 C.3   143  LEU143      0.0001
    182  N         12.0120    9.0140    8.2780 N.am  144  LEU144     -0.1980
    183  CA        11.9310    9.1900    6.8310 C.3   144  LEU144      0.1596
    184  C         12.5940   10.4850    6.3600 C.2   144  LEU144      0.2287
    185  O         13.4230   10.4690    5.4460 O.2   144  LEU144     -0.2864
    186  CB        10.4760    9.1410    6.3600 C.3   144  LEU144      0.0297
    187  CG        10.2460    9.3730    4.8610 C.3   144  LEU144      0.0022
    188  CD1       10.8890    8.2730    4.0240 C.3   144  LEU144      0.0001
    189  CD2        8.7570    9.4800    4.5740 C.3   144  LEU144      0.0001
@<TRIPOS>BOND
     1    15    14   ar
     2    16    14   ar
     3    14    13    1
     4   130   131    1
     5    20    19    2
     6   131   132    1
     7   131   134    1
     8    13    12    1
     9    19    18    1
    10   136   135    1
    11   132   133    2
    12   135   134    1
    13   135   137    1
    14    12     9    1
    15   125   124    2
    16    98    99    1
    17   124   123    1
    18    18    17    1
    19    18    21    1
    20    17    10   am
    21    24    25    1
    22     9    10    1
    23     9     8    1
    24    40    39    1
    25    40    42    1
    26    10    11    2
    27    39    41    1
    28    39    36    1
    29    99   102    1
    30    99   100    1
    31    28    25    1
    32    28    29    1
    33   188   187    1
    34    23    21    1
    35   128   126    1
    36    35    36    1
    37    35    26   am
    38    21    22    1
    39   102   103    1
    40   123   126    1
    41   123   122    1
    42    25    26    1
    43   189   187    1
    44     8     3   am
    45    36    37    1
    46   138   139    1
    47   187   186    1
    48   126   127    1
    49    37    38    2
    50     4     3    2
    51    31    29   ar
    52    31    33   ar
    53    26    27    2
    54    29    30   ar
    55   100   101    2
    56   104   103   ar
    57   104   106   ar
    58     3     2    1
    59   103   105   ar
    60   185   184    2
    61   139   140    1
    62   139   142    1
    63    33    34   ar
    64    30    32   ar
    65   186   183    1
    66   184   183    1
    67   106   108   ar
    68   127   129    1
    69     2     1    1
    70     2     5    1
    71   140   141    2
    72   105   107   ar
    73   183   182    1
    74   173   171   ar
    75   142   144    1
    76   142   143    1
    77    34    32   ar
    78     6     5    1
    79    43    44    1
    80   172   171   ar
    81   108   107   ar
    82   108   109    1
    83     5     7    1
    84    96    95    1
    85   171   170    1
    86   145   143    1
    87   182   176   am
    88   177   176    2
    89    44    45    1
    90   176   175    1
    91   168   167    2
    92   110   111    1
    93   170   169    1
    94    95    97    1
    95    95    92    1
    96    63    65   ar
    97    63    61   ar
    98    65    64   ar
    99   164   163    2
   100   160   159    1
   101    93    94    2
   102    93    92    1
   103   116   118   ar
   104   116   115   ar
   105    45    47   am
   106    45    46    2
   107    47    48    1
   108   166   167    1
   109   166   169    1
   110   166   165    1
   111    74    73    1
   112   118   120   ar
   113   159   158    1
   114    92    91    1
   115    61    60   ar
   116    54    52   ar
   117   111   114    1
   118   111   112    1
   119   175   178    1
   120   175   174    1
   121   163   165   am
   122   163   162    1
   123   114   115    1
   124    64    62   ar
   125    51    52    1
   126    51    48    1
   127    52    53   ar
   128    55    56    1
   129   115   117   ar
   130   178   179    1
   131    48    49    1
   132    49    50    2
   133    73    72    1
   134   158   157    1
   135    60    62   ar
   136    60    59    1
   137   120   121    1
   138   120   119   ar
   139   162   161    1
   140   113   112    2
   141   157   156    1
   142    56    59    1
   143    56    57    1
   144   155   154    2
   145   117   119   ar
   146   179   180    1
   147   179   181    1
   148    72    71    1
   149   156   153    1
   150    57    58    2
   151   154   153    1
   152   153   152    1
   153    71    70    1
   154   149   148    2
   155   152   148   am
   156    70    67    1
   157    90    88   ar
   158   148   147    1
   159    87    88    1
   160    87    84    1
   161    85    86    2
   162    85    84    1
   163    88    89   ar
   164   151   150    1
   165    66    67    1
   166    84    83    1
   167    67    68    1
   168    82    80    1
   169   150   147    1
   170   147   146    1
   171    80    79    1
   172    68    69    2
   173    81    79    1
   174    79    76    1
   175    76    75    1
   176    76    77    1
   177    77    78    2
