@<TRIPOS>MOLECULE
tmp/4qirA00.pdb
 182 170 0 0 0
SMALL
GASTEIGER

@<TRIPOS>ATOM
      1  N         20.8140   41.7090   10.5750 N.3   111  GLN111     -0.1245
      2  CA        19.8440   42.1610   11.5680 C.3   111  GLN111      0.1566
      3  C         20.5430   43.1910   12.4210 C.2   111  GLN111      0.2260
      4  O         21.5370   42.8830   13.1050 O.2   111  GLN111     -0.2867
      5  CB        19.3050   41.0090   12.4250 C.3   111  GLN111      0.0367
      6  CG        18.4040   41.5110   13.5880 C.3   111  GLN111      0.0905
      7  CD        17.2000   42.3600   13.1080 C.2   111  GLN111      0.2608
      8  OE1       16.6650   42.1580   12.0080 O.2   111  GLN111     -0.2717
      9  NE2       16.7890   43.3080   13.9210 N.am  111  GLN111     -0.0878
     10  N         18.7220   45.8820   14.3810 N.3   113  GLU113     -0.1245
     11  CA        18.0670   46.4270   15.5600 C.3   113  GLU113      0.1567
     12  C         18.2320   45.4930   16.7350 C.2   113  GLU113      0.2260
     13  O         17.9100   44.3070   16.6100 O.2   113  GLU113     -0.2867
     14  CB        16.5760   46.6980   15.3240 C.3   113  GLU113      0.0388
     15  CG        15.9430   47.4030   16.5050 C.3   113  GLU113      0.1160
     16  CD        14.4340   47.5040   16.4450 C.2   113  GLU113      0.3649
     17  OE1       13.8200   47.0880   15.4250 O.co2 113  GLU113     -0.2457
     18  OE2       13.8470   48.0150   17.4270 O.co2 113  GLU113     -0.2457
     19  N         16.3610   35.5800   14.7720 N.3   247  ASN247     -0.1240
     20  CA        16.0690   35.6070   16.2100 C.3   247  ASN247      0.1653
     21  C         14.6380   36.0160   16.5480 C.2   247  ASN247      0.2266
     22  O         14.0830   35.5490   17.5160 O.2   247  ASN247     -0.2867
     23  CB        17.0280   36.5610   16.9360 C.3   247  ASN247      0.1155
     24  CG        18.4220   36.0360   16.9810 C.2   247  ASN247      0.2627
     25  OD1       18.6410   34.8350   16.9700 O.2   247  ASN247     -0.2716
     26  ND2       19.3940   36.9380   17.0440 N.am  247  ASN247     -0.0877
     27  N         10.7110   37.9390   14.8120 N.3   248  GLY248     -0.1210
     28  CA         9.6400   37.6840   13.8680 C.3   248  GLY248      0.1956
     29  C          9.8650   38.3530   12.5260 C.2   248  GLY248      0.2611
     30  O          9.6970   37.7200   11.4730 O.2   248  GLY248     -0.2717
     31  N         10.1960   39.6630   12.5380 N.am  249  ALA249     -0.1979
     32  CA        10.4240   40.4120   11.3160 C.3   249  ALA249      0.1597
     33  C         11.0480   41.7530   11.6810 C.2   249  ALA249      0.2287
     34  O         11.1960   42.0720   12.8520 O.2   249  ALA249     -0.2864
     35  CB         9.1230   40.6060   10.5160 C.3   249  ALA249      0.0319
     36  N         11.6050   45.9190   10.1760 N.3   250  GLU250     -0.1245
     37  CA        11.0690   46.9650    9.3160 C.3   250  GLU250      0.1567
     38  C         12.0660   47.8290    8.5220 C.2   250  GLU250      0.2260
     39  O         11.7460   48.9780    8.2100 O.2   250  GLU250     -0.2867
     40  CB        10.2260   47.9010   10.1980 C.3   250  GLU250      0.0388
     41  CG        11.0550   48.7350   11.2160 C.3   250  GLU250      0.1160
     42  CD        11.0790   48.2030   12.6170 C.2   250  GLU250      0.3649
     43  OE1       10.9380   46.9680   12.8200 O.co2 250  GLU250     -0.2457
     44  OE2       11.2110   49.0650   13.5170 O.co2 250  GLU250     -0.2457
     45  N          6.5280   34.1920    9.3380 N.3   261  PHE261     -0.1241
     46  CA         5.5740   35.2990    9.1740 C.3   261  PHE261      0.1605
     47  C          5.4940   35.7970    7.7390 C.2   261  PHE261      0.2264
     48  O          4.9960   36.8860    7.4610 O.2   261  PHE261     -0.2867
     49  CB         5.9310   36.4220   10.1270 C.3   261  PHE261      0.0534
     50  CG         5.7500   36.0320   11.5520 C.ar  261  PHE261     -0.0203
     51  CD1        4.4980   35.6780   12.0170 C.ar  261  PHE261     -0.0042
     52  CD2        6.8240   35.9280   12.4000 C.ar  261  PHE261     -0.0042
     53  CE1        4.3120   35.2780   13.3060 C.ar  261  PHE261     -0.0003
     54  CE2        6.6500   35.5160   13.7140 C.ar  261  PHE261     -0.0003
     55  CZ         5.3850   35.1950   14.1680 C.ar  261  PHE261     -0.0000
     56  N         -0.9470   39.9590   10.1990 N.3   279  SER279     -0.1202
     57  CA        -0.5940   40.8690   11.2930 C.3   279  SER279      0.2020
     58  C          0.8390   41.4080   11.1670 C.2   279  SER279      0.2618
     59  O          1.0940   42.5870   11.3020 O.2   279  SER279     -0.2717
     60  CB        -0.7150   40.1620   12.6610 C.3   279  SER279      0.2103
     61  OG        -2.0470   39.7810   12.9480 O.3   279  SER279     -0.2182
     62  N          1.7870   40.5280   10.9080 N.am  280  VAL280     -0.1979
     63  CA         3.1910   40.9350   10.9360 C.3   280  VAL280      0.1595
     64  C          3.6160   41.6480    9.6390 C.2   280  VAL280      0.2287
     65  O          4.3850   42.5980    9.6900 O.2   280  VAL280     -0.2864
     66  CB         4.0800   39.7290   11.2220 C.3   280  VAL280      0.0276
     67  CG1        5.5490   40.0940   11.0670 C.3   280  VAL280      0.0022
     68  CG2        3.7750   39.1530   12.6580 C.3   280  VAL280      0.0022
     69  N          2.2720   45.0260   10.3800 N.3   283  HIS283     -0.1226
     70  CA         3.1540   45.6200   11.3870 C.3   283  HIS283      0.1752
     71  C          4.4020   46.2300   10.7860 C.2   283  HIS283      0.2595
     72  O          4.6550   47.4190   10.9970 O.2   283  HIS283     -0.2718
     73  CB         3.5500   44.5760   12.4340 C.3   283  HIS283      0.0759
     74  CG         4.3080   45.1240   13.6110 C.ar  283  HIS283      0.0818
     75  ND1        3.6870   45.4940   14.7870 N.ar  283  HIS283     -0.2268
     76  CD2        5.6410   45.2980   13.8270 C.ar  283  HIS283      0.1154
     77  CE1        4.5910   45.8910   15.6600 C.ar  283  HIS283      0.1986
     78  NE2        5.7930   45.7580   15.1180 N.ar  283  HIS283     -0.2212
     79  N          5.1630   45.4550   10.0110 N.am  284  GLU284     -0.1979
     80  CA         6.4250   45.9670    9.4850 C.3   284  GLU284      0.1602
     81  C          6.1630   47.0990    8.4970 C.2   284  GLU284      0.2287
     82  O          6.9150   48.0820    8.4730 O.2   284  GLU284     -0.2864
     83  CB         7.2570   44.8750    8.8020 C.3   284  GLU284      0.0415
     84  CG         7.5560   43.6290    9.6480 C.3   284  GLU284      0.1163
     85  CD         7.9550   43.9270   11.0910 C.2   284  GLU284      0.3649
     86  OE1        8.7550   44.8660   11.3450 O.co2 284  GLU284     -0.2457
     87  OE2        7.4520   43.2000   11.9600 O.co2 284  GLU284     -0.2457
     88  N          5.3440   50.3990   10.3570 N.3   287  HIS287     -0.1241
     89  CA         6.5420   51.0220   10.9050 C.3   287  HIS287      0.1621
     90  C          7.1120   52.0640    9.9570 C.2   287  HIS287      0.2264
     91  O          7.9380   52.8780   10.3780 O.2   287  HIS287     -0.2867
     92  CB         7.6500   49.9940   11.2210 C.3   287  HIS287      0.0745
     93  CG         7.6210   49.4190   12.6040 C.ar  287  HIS287      0.0817
     94  ND1        7.4840   50.1920   13.7380 N.ar  287  HIS287     -0.2268
     95  CD2        7.7970   48.1470   13.0430 C.ar  287  HIS287      0.1154
     96  CE1        7.5420   49.4240   14.8070 C.ar  287  HIS287      0.1986
     97  NE2        7.7300   48.1710   14.4160 N.ar  287  HIS287     -0.2212
     98  N          6.8340   50.7000   19.0360 N.3   306  GLU306     -0.1245
     99  CA         6.2820   49.3440   19.0880 C.3   306  GLU306      0.1567
    100  C          4.8740   49.2820   19.6600 C.2   306  GLU306      0.2260
    101  O          4.0220   48.6050   19.1020 O.2   306  GLU306     -0.2867
    102  CB         7.2260   48.3940   19.8480 C.3   306  GLU306      0.0388
    103  CG         8.5710   48.1500   19.1720 C.3   306  GLU306      0.1160
    104  CD         8.4410   47.6190   17.7320 C.2   306  GLU306      0.3649
    105  OE1        7.3570   47.1560   17.3270 O.co2 306  GLU306     -0.2457
    106  OE2        9.4120   47.6990   16.9970 O.co2 306  GLU306     -0.2457
    107  N          2.0780   48.1060   17.1170 N.3   310  VAL310     -0.1245
    108  CA         1.2200   46.9850   17.5010 C.3   310  VAL310      0.1561
    109  C         -0.2690   47.4070   17.5140 C.2   310  VAL310      0.2260
    110  O         -1.1410   46.6630   17.0120 O.2   310  VAL310     -0.2867
    111  CB         1.6130   46.4160   18.8820 C.3   310  VAL310      0.0252
    112  CG1        0.5460   45.4220   19.3760 C.3   310  VAL310      0.0019
    113  CG2        2.9530   45.7340   18.7990 C.3   310  VAL310      0.0019
    114  N         -1.2840   47.3630   13.9620 N.3   313  ASP313     -0.1239
    115  CA        -1.4810   46.0720   13.3110 C.3   313  ASP313      0.1674
    116  C         -2.7520   45.4270   13.8670 C.2   313  ASP313      0.2266
    117  O         -3.4620   44.7650   13.1330 O.2   313  ASP313     -0.2867
    118  CB        -0.2150   45.1630   13.3760 C.3   313  ASP313      0.1410
    119  CG        -0.0130   44.4240   14.6870 C.2   313  ASP313      0.3668
    120  OD1       -0.9120   43.6760   15.1270 O.co2 313  ASP313     -0.2456
    121  OD2        1.1130   44.5140   15.2310 O.co2 313  ASP313     -0.2456
    122  N         18.4320   44.1740   24.2820 N.3   358  ASN358     -0.1240
    123  CA        17.7080   43.0660   23.6860 C.3   358  ASN358      0.1653
    124  C         16.7670   42.3990   24.6650 C.2   358  ASN358      0.2266
    125  O         15.8370   41.7140   24.2260 O.2   358  ASN358     -0.2867
    126  CB        18.6770   42.0660   23.0760 C.3   358  ASN358      0.1155
    127  CG        19.0300   42.4670   21.6640 C.2   358  ASN358      0.2627
    128  OD1       20.1640   42.7510   21.3650 O.2   358  ASN358     -0.2716
    129  ND2       18.0210   42.5850   20.8220 N.am  358  ASN358     -0.0877
    130  N         12.6270   43.8630   24.4570 N.3   361  TYR361     -0.1241
    131  CA        11.6360   43.6390   23.4010 C.3   361  TYR361      0.1605
    132  C         10.5560   42.7490   24.0070 C.2   361  TYR361      0.2264
    133  O         10.4450   41.5780   23.6710 O.2   361  TYR361     -0.2867
    134  CB        12.2810   43.0380   22.1330 C.3   361  TYR361      0.0534
    135  CG        13.0590   44.1290   21.4340 C.ar  361  TYR361     -0.0201
    136  CD1       14.2880   44.5720   21.9390 C.ar  361  TYR361     -0.0009
    137  CD2       12.5570   44.7560   20.3070 C.ar  361  TYR361     -0.0009
    138  CE1       14.9580   45.6200   21.3640 C.ar  361  TYR361      0.0417
    139  CE2       13.2400   45.8200   19.7170 C.ar  361  TYR361      0.0417
    140  CZ        14.4380   46.2260   20.2340 C.ar  361  TYR361      0.1957
    141  OH        15.0970   47.2990   19.6480 O.3   361  TYR361     -0.2866
    142  N          5.4720   45.9960   24.1250 N.3   365  TYR365     -0.1227
    143  CA         4.6950   45.7750   22.9080 C.3   365  TYR365      0.1736
    144  C          3.2110   45.7750   23.1960 C.2   365  TYR365      0.2595
    145  O          2.4910   46.6550   22.7580 O.2   365  TYR365     -0.2718
    146  CB         5.0780   44.4510   22.2410 C.3   365  TYR365      0.0548
    147  CG         6.2630   44.5620   21.3480 C.ar  365  TYR365     -0.0200
    148  CD1        7.5300   44.7530   21.8620 C.ar  365  TYR365     -0.0009
    149  CD2        6.1240   44.4400   19.9710 C.ar  365  TYR365     -0.0009
    150  CE1        8.6330   44.8440   21.0360 C.ar  365  TYR365      0.0417
    151  CE2        7.2070   44.5290   19.1560 C.ar  365  TYR365      0.0417
    152  CZ         8.4470   44.7340   19.6660 C.ar  365  TYR365      0.1957
    153  OH         9.5310   44.8040   18.8380 O.3   365  TYR365     -0.2866
    154  N          2.7530   44.7620   23.9240 N.am  366  GLU366     -0.1979
    155  CA         1.3200   44.5590   24.1090 C.3   366  GLU366      0.1602
    156  C          0.7080   45.5120   25.1460 C.2   366  GLU366      0.2287
    157  O         -0.3580   46.0940   24.9050 O.2   366  GLU366     -0.2864
    158  CB         1.0430   43.1140   24.4880 C.3   366  GLU366      0.0415
    159  CG         1.7790   42.0990   23.5940 C.3   366  GLU366      0.1163
    160  CD         1.4180   42.2490   22.1460 C.2   366  GLU366      0.3649
    161  OE1        0.2760   42.6870   21.8860 O.co2 366  GLU366     -0.2457
    162  OE2        2.2640   41.9390   21.2700 O.co2 366  GLU366     -0.2457
    163  N         20.5700   35.9080   22.8990 N.3   797  GLN797     -0.1245
    164  CA        19.1610   36.3640   22.8470 C.3   797  GLN797      0.1566
    165  C         18.1980   35.2220   23.0250 C.2   797  GLN797      0.2260
    166  O         17.1900   35.3590   23.7100 O.2   797  GLN797     -0.2867
    167  CB        18.8620   37.0600   21.5200 C.3   797  GLN797      0.0367
    168  CG        19.4060   38.4340   21.4320 C.3   797  GLN797      0.0905
    169  CD        19.1050   39.0800   20.1030 C.2   797  GLN797      0.2608
    170  OE1       19.9890   39.6330   19.4810 O.2   797  GLN797     -0.2717
    171  NE2       17.8600   38.9950   19.6610 N.am  797  GLN797     -0.0878
    172  N         15.7820   34.7230   26.5130 N.3   801  ARG801     -0.1245
    173  CA        14.3430   34.4430   26.4570 C.3   801  ARG801      0.1563
    174  C         14.0490   33.1310   27.1860 C.2   801  ARG801      0.2260
    175  O         13.1220   33.0290   27.9810 O.2   801  ARG801     -0.2867
    176  CB        13.8560   34.3880   25.0110 C.3   801  ARG801      0.0307
    177  CG        13.7380   35.7690   24.3750 C.3   801  ARG801      0.0489
    178  CD        12.8000   36.7270   25.1890 C.3   801  ARG801      0.2205
    179  NE        12.6900   38.0830   24.6320 N.pl3 801  ARG801     -0.0865
    180  CZ        13.4830   39.1080   24.9550 C.cat 801  ARG801      0.5346
    181  NH1       14.4790   38.9650   25.8230 N.pl3 801  ARG801      0.1354
    182  NH2       13.2820   40.2940   24.3860 N.pl3 801  ARG801      0.1354
@<TRIPOS>BOND
     1    48    47    2
     2    47    46    1
     3    39    38    2
     4    82    81    2
     5    81    80    1
     6    38    37    1
     7    83    80    1
     8    83    84    1
     9    46    45    1
    10    46    49    1
    11    37    36    1
    12    37    40    1
    13    80    79    1
    14    64    65    2
    15    64    63    1
    16    84    85    1
    17    90    91    2
    18    90    89    1
    19    79    71   am
    20    49    50    1
    21    40    41    1
    22    56    57    1
    23    88    89    1
    24    69    70    1
    25    35    32    1
    26     1     2    1
    27    71    72    2
    28    71    70    1
    29    89    92    1
    30    62    63    1
    31    62    58   am
    32    63    66    1
    33    67    66    1
    34    85    86   ar
    35    85    87   ar
    36    58    57    1
    37    58    59    2
    38    41    42    1
    39    92    93    1
    40    66    68    1
    41    57    60    1
    42    32    33    1
    43    32    31    1
    44    70    73    1
    45    30    29    2
    46    50    51   ar
    47    50    52   ar
    48     2     3    1
    49     2     5    1
    50    33    34    2
    51     8     7    2
    52    51    53   ar
    53    52    54   ar
    54     3     4    2
    55     5     6    1
    56    73    74    1
    57    29    31   am
    58    29    28    1
    59    93    95   ar
    60    93    94   ar
    61    42    43   ar
    62    42    44   ar
    63    60    61    1
    64    95    97   ar
    65     7     6    1
    66     7     9   am
    67   117   116    2
    68    53    55   ar
    69   115   118    1
    70   115   116    1
    71   115   114    1
    72   118   119    1
    73    74    76   ar
    74    74    75   ar
    75    54    55   ar
    76    94    96   ar
    77    76    78   ar
    78    28    27    1
    79    10    11    1
    80    97    96   ar
    81   119   120   ar
    82   119   121   ar
    83    19    20    1
    84    75    77   ar
    85    78    77   ar
    86    14    11    1
    87    14    15    1
    88    17    16   ar
    89    11    12    1
    90    20    21    1
    91    20    23    1
    92    16    15    1
    93    16    18   ar
    94    21    22    2
    95    13    12    2
    96    23    24    1
    97    25    24    2
    98    24    26   am
    99   106   104   ar
   100   110   109    2
   101   107   108    1
   102   105   104   ar
   103   108   109    1
   104   108   111    1
   105   104   103    1
   106   113   111    1
   107   153   152    1
   108   111   112    1
   109    98    99    1
   110    99   100    1
   111    99   102    1
   112   101   100    2
   113   151   152   ar
   114   151   149   ar
   115   103   102    1
   116   170   169    2
   117   141   140    1
   118   171   169   am
   119   152   150   ar
   120   139   140   ar
   121   139   137   ar
   122   149   147   ar
   123   169   168    1
   124   140   138   ar
   125   137   135   ar
   126   129   127   am
   127   150   148   ar
   128   162   160   ar
   129   147   148   ar
   130   147   146    1
   131   138   136   ar
   132   128   127    2
   133   168   167    1
   134   135   136   ar
   135   135   134    1
   136   167   164    1
   137   127   126    1
   138   161   160   ar
   139   134   131    1
   140   160   159    1
   141   146   143    1
   142   145   144    2
   143   164   163    1
   144   164   165    1
   145   143   144    1
   146   143   142    1
   147   165   166    2
   148   126   123    1
   149   144   154   am
   150   131   132    1
   151   131   130    1
   152   159   158    1
   153   133   132    2
   154   123   122    1
   155   123   124    1
   156   154   155    1
   157   155   158    1
   158   155   156    1
   159   125   124    2
   160   177   176    1
   161   177   178    1
   162   182   180    1
   163   179   180    2
   164   179   178    1
   165   157   156    2
   166   180   181    1
   167   176   173    1
   168   173   172    1
   169   173   174    1
   170   174   175    2
