@<TRIPOS>MOLECULE
tmp/4qiyA00.pdb
 206 201 0 0 0
SMALL
GASTEIGER

@<TRIPOS>ATOM
      1  N         -1.3410    1.3300   19.5080 N.3     2  TRP2       -0.1241
      2  CA        -1.8700    0.4130   18.5470 C.3     2  TRP2        0.1605
      3  C         -0.8100   -0.3890   17.8500 C.2     2  TRP2        0.2264
      4  O          0.3320    0.0060   17.6770 O.2     2  TRP2       -0.2867
      5  CB        -2.7890    1.1170   17.5280 C.3     2  TRP2        0.0550
      6  CG        -2.0750    1.9150   16.5070 C.ar    2  TRP2        0.0003
      7  CD1       -1.7630    3.2830   16.5510 C.ar    2  TRP2        0.0946
      8  CD2       -1.5670    1.4260   15.2130 C.ar    2  TRP2        0.0152
      9  NE1       -1.0570    3.6460   15.4160 N.ar    2  TRP2       -0.2442
     10  CE2       -0.9310    2.5750   14.5680 C.ar    2  TRP2        0.0810
     11  CE3       -1.5680    0.1740   14.5650 C.ar    2  TRP2        0.0012
     12  CZ2       -0.3500    2.4960   13.3330 C.ar    2  TRP2        0.0191
     13  CZ3       -0.9320    0.1290   13.2800 C.ar    2  TRP2        0.0001
     14  CH2       -0.4010    1.2610   12.6840 C.ar    2  TRP2        0.0015
     15  N         -0.5430   -4.7140   15.9770 N.3     4  TYR4       -0.1241
     16  CA        -1.1460   -5.8400   15.2560 C.3     4  TYR4        0.1605
     17  C         -1.3460   -7.0920   16.1280 C.2     4  TYR4        0.2264
     18  O         -1.9070   -8.1230   15.6660 O.2     4  TYR4       -0.2867
     19  CB        -0.2990   -6.1970   14.0200 C.3     4  TYR4        0.0534
     20  CG        -0.4200   -5.1150   12.9560 C.ar    4  TYR4       -0.0201
     21  CD1       -1.5680   -5.1140   12.1030 C.ar    4  TYR4       -0.0009
     22  CD2        0.5500   -4.1000   12.7590 C.ar    4  TYR4       -0.0009
     23  CE1       -1.7320   -4.1160   11.1020 C.ar    4  TYR4        0.0417
     24  CE2        0.3730   -3.1190   11.7540 C.ar    4  TYR4        0.0417
     25  CZ        -0.7780   -3.1710   10.9600 C.ar    4  TYR4        0.1957
     26  OH        -0.8820   -2.1940    9.9760 O.3     4  TYR4       -0.2866
     27  N          9.1150    1.8840   10.9880 N.3    59  ASN59      -0.1240
     28  CA         8.2900    2.6960   11.9320 C.3    59  ASN59       0.1653
     29  C          7.6470    1.8630   13.0270 C.2    59  ASN59       0.2266
     30  O          6.8050    2.3460   13.8470 O.2    59  ASN59      -0.2867
     31  CB         7.2900    3.5380   11.1140 C.3    59  ASN59       0.1155
     32  CG         6.4410    2.6500   10.2170 C.2    59  ASN59       0.2627
     33  OD1        5.9270    1.6630   10.7100 O.2    59  ASN59      -0.2716
     34  ND2        6.4260    2.9060    8.8990 N.am   59  ASN59      -0.0877
     35  N          5.6350   -0.5050   12.5890 N.3    61  HIS61      -0.1226
     36  CA         4.4090   -1.1550   11.9760 C.3    61  HIS61       0.1752
     37  C          4.7570   -1.8280   10.6680 C.2    61  HIS61       0.2595
     38  O          4.3580   -2.9810   10.4260 O.2    61  HIS61      -0.2718
     39  CB         3.2260   -0.1810   11.7860 C.3    61  HIS61       0.0759
     40  CG         2.9090    0.5710   13.0740 C.ar   61  HIS61       0.0818
     41  ND1        2.3810   -0.0480   14.1740 N.ar   61  HIS61      -0.2268
     42  CD2        3.0470    1.8810   13.3890 C.ar   61  HIS61       0.1154
     43  CE1        2.1960    0.8440   15.1490 C.ar   61  HIS61       0.1986
     44  NE2        2.6200    2.0260   14.6880 N.ar   61  HIS61      -0.2212
     45  N          5.5130   -1.1360    9.8250 N.am   62  ALA62      -0.1980
     46  CA         5.9890   -1.6030    8.5150 C.3    62  ALA62       0.1597
     47  C          7.2920   -0.8460    8.2890 C.2    62  ALA62       0.2287
     48  O          7.8480   -0.2200    9.2050 O.2    62  ALA62      -0.2864
     49  CB         4.8970   -1.3580    7.4310 C.3    62  ALA62       0.0319
     50  N          8.6790    2.1310    5.5760 N.3    64  ASN64      -0.1240
     51  CA         8.3320    3.1030    4.5390 C.3    64  ASN64       0.1653
     52  C          9.5350    3.4810    3.6920 C.2    64  ASN64       0.2266
     53  O         10.6270    3.6520    4.1740 O.2    64  ASN64      -0.2867
     54  CB         7.7510    4.4420    5.0820 C.3    64  ASN64       0.1155
     55  CG         6.6170    4.2250    5.9930 C.2    64  ASN64       0.2627
     56  OD1        6.4300    4.9430    6.9940 O.2    64  ASN64      -0.2716
     57  ND2        5.8310    3.1830    5.6710 N.am   64  ASN64      -0.0877
     58  N          4.0870   10.1060   -2.4020 N.3    88  ILE88      -0.1231
     59  CA         4.8370   10.4760   -1.1810 C.3    88  ILE88       0.1692
     60  C          5.5770    9.3140   -0.5420 C.2    88  ILE88       0.2591
     61  O          6.7250    9.4590   -0.0830 O.2    88  ILE88      -0.2718
     62  CB         3.9740   11.2170   -0.1510 C.3    88  ILE88       0.0266
     63  CG1        4.7120   11.5070    1.1580 C.3    88  ILE88       0.0019
     64  CG2        2.6770   10.4170    0.1690 C.3    88  ILE88       0.0020
     65  CD1        4.0230   12.5270    2.0300 C.3    88  ILE88       0.0001
     66  N          4.9910    8.0800   -0.5580 N.am   89  GLN89      -0.1979
     67  CA         5.7620    6.9670    0.0760 C.3    89  GLN89       0.1601
     68  C          5.1340    5.6750   -0.4450 C.2    89  GLN89       0.2287
     69  O          4.0310    5.6800   -0.9910 O.2    89  GLN89      -0.2864
     70  CB         5.6890    7.0000    1.6100 C.3    89  GLN89       0.0394
     71  CG         4.2980    6.9390    2.2320 C.3    89  GLN89       0.0908
     72  CD         4.1000    5.6450    2.9700 C.2    89  GLN89       0.2608
     73  OE1        3.9270    4.5850    2.3460 O.2    89  GLN89      -0.2717
     74  NE2        4.2050    5.6720    4.2500 N.am   89  GLN89      -0.0878
     75  N          4.8840    1.3810    1.0990 N.3    91  HIS91      -0.1241
     76  CA         5.1340    0.4170    2.1660 C.3    91  HIS91       0.1621
     77  C          4.4090   -0.8630    1.7280 C.2    91  HIS91       0.2264
     78  O          3.6980   -0.8980    0.7460 O.2    91  HIS91      -0.2867
     79  CB         4.6120    0.9160    3.5370 C.3    91  HIS91       0.0745
     80  CG         3.1320    1.1780    3.4640 C.ar   91  HIS91       0.0817
     81  ND1        2.5830    2.3890    3.0350 N.ar   91  HIS91      -0.2268
     82  CD2        2.0770    0.3420    3.7030 C.ar   91  HIS91       0.1154
     83  CE1        1.2460    2.2480    3.0140 C.ar   91  HIS91       0.1986
     84  NE2        0.9380    1.0220    3.4320 N.ar   91  HIS91      -0.2212
     85  N          2.4440   -4.6660    3.3800 N.3    93  HIS93      -0.1241
     86  CA         1.8640   -5.4510    4.4470 C.3    93  HIS93       0.1621
     87  C          2.1550   -6.9050    4.0610 C.2    93  HIS93       0.2264
     88  O          2.0960   -7.2530    2.8820 O.2    93  HIS93      -0.2867
     89  CB         0.3620   -5.2420    4.5720 C.3    93  HIS93       0.0745
     90  CG        -0.0170   -3.8260    4.7460 C.ar   93  HIS93       0.0817
     91  ND1       -0.2740   -3.2650    5.9780 N.ar   93  HIS93      -0.2268
     92  CD2       -0.1010   -2.8160    3.8350 C.ar   93  HIS93       0.1154
     93  CE1       -0.5970   -1.9520    5.8150 C.ar   93  HIS93       0.1986
     94  NE2       -0.4870   -1.6520    4.5080 N.ar   93  HIS93      -0.2212
     95  N          1.5570   -0.8390   -1.1620 N.3   116  HIS116     -0.1241
     96  CA         0.7280    0.3900   -1.2110 C.3   116  HIS116      0.1621
     97  C          1.5900    1.5720   -1.5750 C.2   116  HIS116      0.2264
     98  O          2.5520    1.9070   -0.8270 O.2   116  HIS116     -0.2867
     99  CB         0.1130    0.6180    0.1860 C.3   116  HIS116      0.0745
    100  CG        -0.9780   -0.3760    0.4310 C.ar  116  HIS116      0.0817
    101  ND1       -1.4640   -0.6310    1.6890 N.ar  116  HIS116     -0.2268
    102  CD2       -1.6890   -1.1940   -0.4030 C.ar  116  HIS116      0.1154
    103  CE1       -2.4090   -1.5680    1.6670 C.ar  116  HIS116      0.1986
    104  NE2       -2.5670   -1.9200    0.3780 N.ar  116  HIS116     -0.2212
    105  N          1.3310    5.3840   -1.9420 N.3   118  VAL118     -0.1245
    106  CA         0.4400    6.4310   -1.3370 C.3   118  VAL118      0.1561
    107  C          0.7020    7.7850   -2.0390 C.2   118  VAL118      0.2260
    108  O          1.8380    8.2290   -2.1400 O.2   118  VAL118     -0.2867
    109  CB         0.7350    6.5810    0.1860 C.3   118  VAL118      0.0252
    110  CG1       -0.2260    7.6440    0.7720 C.3   118  VAL118      0.0019
    111  CG2        0.6280    5.2200    0.9240 C.3   118  VAL118      0.0019
    112  N          0.3870   16.6010    2.1040 N.3   127  PHE127     -0.1227
    113  CA        -0.2770   15.3950    2.5130 C.3   127  PHE127      0.1736
    114  C         -1.0430   15.5470    3.8440 C.2   127  PHE127      0.2596
    115  O         -2.0850   14.9330    4.0100 O.2   127  PHE127     -0.2718
    116  CB         0.6540   14.1860    2.5770 C.3   127  PHE127      0.0547
    117  CG         1.5590   14.1420    3.7480 C.ar  127  PHE127     -0.0202
    118  CD1        2.8550   14.6800    3.6770 C.ar  127  PHE127     -0.0042
    119  CD2        1.1370   13.5610    4.9450 C.ar  127  PHE127     -0.0042
    120  CE1        3.7150   14.6090    4.7890 C.ar  127  PHE127     -0.0003
    121  CE2        2.0010   13.4640    6.0600 C.ar  127  PHE127     -0.0003
    122  CZ         3.2880   14.0230    5.9740 C.ar  127  PHE127     -0.0000
    123  N         -0.5690   16.3990    4.8050 N.am  128  GLY128     -0.1957
    124  CA        -1.2670   16.5250    6.1180 C.3   128  GLY128      0.1869
    125  C         -2.6500   17.1490    5.9460 C.2   128  GLY128      0.2309
    126  O         -3.6080   16.8210    6.6300 O.2   128  GLY128     -0.2863
    127  N         -5.1210   14.4230    3.9530 N.3   131  VAL131     -0.1245
    128  CA        -5.7840   13.3350    4.6970 C.3   131  VAL131      0.1561
    129  C         -7.0230   13.7480    5.4140 C.2   131  VAL131      0.2260
    130  O         -7.7810   12.8950    5.8180 O.2   131  VAL131     -0.2867
    131  CB        -4.9190   12.5960    5.7460 C.3   131  VAL131      0.0252
    132  CG1       -3.7200   11.9770    5.0960 C.3   131  VAL131      0.0019
    133  CG2       -4.4660   13.4790    6.8830 C.3   131  VAL131      0.0019
    134  N         -6.4180   11.3140   -0.8070 N.3   137  LEU137     -0.1245
    135  CA        -5.3770   10.3300   -1.1610 C.3   137  LEU137      0.1561
    136  C         -5.8600    9.4060   -2.2570 C.2   137  LEU137      0.2260
    137  O         -7.0160    9.1180   -2.3590 O.2   137  LEU137     -0.2867
    138  CB        -5.0150    9.4800    0.0550 C.3   137  LEU137      0.0270
    139  CG        -4.3770   10.1900    1.2620 C.3   137  LEU137      0.0019
    140  CD1       -3.8620    9.1300    2.2330 C.3   137  LEU137      0.0001
    141  CD2       -3.2570   11.1700    1.0340 C.3   137  LEU137      0.0001
    142  N         -4.4240    5.5680   -3.1790 N.3   139  VAL139     -0.1245
    143  CA        -3.4510    4.5150   -2.8540 C.3   139  VAL139      0.1561
    144  C         -3.5840    3.4420   -3.9620 C.2   139  VAL139      0.2260
    145  O         -4.6680    2.9120   -4.2060 O.2   139  VAL139     -0.2867
    146  CB        -3.6260    3.9360   -1.4330 C.3   139  VAL139      0.0252
    147  CG1       -2.4800    2.9160   -1.1530 C.3   139  VAL139      0.0019
    148  CG2       -3.5100    5.0630   -0.4040 C.3   139  VAL139      0.0019
    149  N         -7.5780    4.8860    5.0930 N.3   194  LEU194     -0.1231
    150  CA        -6.3120    4.3280    5.5570 C.3   194  LEU194      0.1693
    151  C         -6.6120    3.0000    6.1910 C.2   194  LEU194      0.2593
    152  O         -7.6620    2.8470    6.9270 O.2   194  LEU194     -0.2718
    153  CB        -5.6440    5.2540    6.5720 C.3   194  LEU194      0.0284
    154  CG        -5.3460    6.6720    6.1120 C.3   194  LEU194      0.0019
    155  CD1       -4.7490    7.4950    7.2830 C.3   194  LEU194      0.0001
    156  CD2       -4.4110    6.7080    4.9200 C.3   194  LEU194      0.0001
    157  N         -5.7140    2.0250    6.0980 N.am  195  THR195     -0.1939
    158  CA        -5.8960    0.7430    6.7590 C.3   195  THR195      0.2028
    159  C         -5.1740    0.6860    8.1020 C.2   195  THR195      0.2643
    160  O         -5.2610   -0.3830    8.7290 O.2   195  THR195     -0.2714
    161  CB        -5.4580   -0.3940    5.8340 C.3   195  THR195      0.1808
    162  OG1       -4.0180   -0.3360    5.7890 O.3   195  THR195     -0.2208
    163  CG2       -6.1140   -0.3840    4.5040 C.3   195  THR195      0.0379
    164  N         -4.4690    1.7590    8.5080 N.am  196  THR196     -0.1937
    165  CA        -3.9000    1.8610    9.8260 C.3   196  THR196      0.2013
    166  C         -4.5140    3.0780   10.5270 C.2   196  THR196      0.2484
    167  O         -4.8870    4.0270    9.8720 O.2   196  THR196     -0.2729
    168  CB        -2.3760    2.0770    9.7360 C.3   196  THR196      0.1807
    169  OG1       -2.1240    3.1610    8.7800 O.3   196  THR196     -0.2208
    170  CG2       -1.6690    0.8410    9.1780 C.3   196  THR196      0.0379
    171  N         -4.5680    3.0410   11.8960 N.am  197  PRO197     -0.2715
    172  CA        -4.8450    4.2950   12.6290 C.3   197  PRO197      0.1521
    173  C         -4.0510    5.4560   12.0090 C.2   197  PRO197      0.2440
    174  O         -2.8400    5.3260   11.7230 O.2   197  PRO197     -0.2731
    175  CB        -4.3630    3.9130   13.9950 C.3   197  PRO197      0.0310
    176  CG        -4.6950    2.4270   14.1240 C.3   197  PRO197      0.0237
    177  CD        -4.2430    1.9050   12.8180 C.3   197  PRO197      0.0939
    178  N         -4.6870    6.6280   11.7960 N.am  198  PRO198     -0.2727
    179  CA        -6.0300    7.0170   12.2840 C.3   198  PRO198      0.1402
    180  C         -7.2560    6.6500   11.4140 C.2   198  PRO198      0.2269
    181  O         -8.3830    7.0200   11.7220 O.2   198  PRO198     -0.2865
    182  CB        -5.9020    8.5110   12.4020 C.3   198  PRO198      0.0296
    183  CG        -4.9900    8.8830   11.2330 C.3   198  PRO198      0.0237
    184  CD        -3.9290    7.7710   11.2570 C.3   198  PRO198      0.0939
    185  N         -8.4070    7.2960    8.5610 N.3   200  LEU200     -0.1245
    186  CA        -9.1890    8.3780    7.9800 C.3   200  LEU200      0.1561
    187  C         -9.8370    7.9500    6.6630 C.2   200  LEU200      0.2260
    188  O         -9.1860    7.2230    5.8510 O.2   200  LEU200     -0.2867
    189  CB        -8.2620    9.5970    7.7700 C.3   200  LEU200      0.0270
    190  CG        -7.7460   10.1800    9.1390 C.3   200  LEU200      0.0019
    191  CD1       -6.6090   11.1320    8.7940 C.3   200  LEU200      0.0001
    192  CD2       -8.8880   10.8510    9.9860 C.3   200  LEU200      0.0001
    193  N         -9.1720    4.0580   -3.4590 N.3   205  TRP205     -0.1241
    194  CA        -8.3520    2.8570   -3.6400 C.3   205  TRP205      0.1605
    195  C         -8.3350    2.4400   -5.0720 C.2   205  TRP205      0.2264
    196  O         -9.4090    2.3920   -5.7230 O.2   205  TRP205     -0.2867
    197  CB        -8.8560    1.7040   -2.7710 C.3   205  TRP205      0.0550
    198  CG        -8.3750    1.8050   -1.3930 C.ar  205  TRP205      0.0003
    199  CD1       -8.9750    2.3860   -0.2850 C.ar  205  TRP205      0.0946
    200  CD2       -7.0700    1.4000   -0.9720 C.ar  205  TRP205      0.0152
    201  NE1       -8.1310    2.3750    0.7720 N.ar  205  TRP205     -0.2442
    202  CE2       -6.9450    1.7770    0.4420 C.ar  205  TRP205      0.0810
    203  CE3       -6.0010    0.7730   -1.5970 C.ar  205  TRP205      0.0012
    204  CZ2       -5.7820    1.5370    1.1490 C.ar  205  TRP205      0.0191
    205  CZ3       -4.8740    0.5190   -0.9010 C.ar  205  TRP205      0.0001
    206  CH2       -4.7640    0.8520    0.4620 C.ar  205  TRP205      0.0015
@<TRIPOS>BOND
     1   196   195    2
     2   195   194    1
     3   145   144    2
     4   144   143    1
     5   194   193    1
     6   194   197    1
     7   142   143    1
     8   143   146    1
     9   197   198    1
    10    58    59    1
    11   137   136    2
    12   136   135    1
    13   108   107    2
    14   107   106    1
    15   105   106    1
    16   203   200   ar
    17   203   205   ar
    18    97    96    1
    19    97    98    2
    20   146   147    1
    21   146   148    1
    22   198   200   ar
    23   198   199   ar
    24   106   109    1
    25    96    95    1
    26    96    99    1
    27    59    60    1
    28    59    62    1
    29   135   134    1
    30   135   138    1
    31    69    68    2
    32   200   202   ar
    33   205   206   ar
    34    66    60   am
    35    66    67    1
    36    60    61    2
    37    68    67    1
    38   102   104   ar
    39   102   100   ar
    40   199   201   ar
    41    62    64    1
    42    62    63    1
    43   138   139    1
    44    67    70    1
    45    99   100    1
    46   109   110    1
    47   109   111    1
    48   104   103   ar
    49   100   101   ar
    50   202   201   ar
    51   202   204   ar
    52   206   204   ar
    53    78    77    2
    54   141   139    1
    55    75    76    1
    56    63    65    1
    57   139   140    1
    58    70    71    1
    59   103   101   ar
    60    77    76    1
    61   112   113    1
    62    76    79    1
    63    71    72    1
    64    73    72    2
    65   113   116    1
    66   113   114    1
    67   116   117    1
    68    88    87    2
    69    72    74   am
    70    83    81   ar
    71    83    84   ar
    72    81    80   ar
    73    85    86    1
    74    84    82   ar
    75    80    79    1
    76    80    82   ar
    77   118   117   ar
    78   118   120   ar
    79    52    53    2
    80    52    51    1
    81   117   119   ar
    82    92    94   ar
    83    92    90   ar
    84   114   115    2
    85   114   123   am
    86   127   128    1
    87    87    86    1
    88    86    89    1
    89   163   161    1
    90    94    93   ar
    91    51    54    1
    92    51    50    1
    93    89    90    1
    94   128   129    1
    95   128   131    1
    96    90    91   ar
    97   120   122   ar
    98   123   124    1
    99   156   154    1
   100   119   121   ar
   101    54    55    1
   102   149   150    1
   103   132   131    1
   104   129   130    2
   105   150   151    1
   106   150   153    1
   107    57    55   am
   108   131   133    1
   109   162   161    1
   110    93    91   ar
   111   161   158    1
   112   188   187    2
   113   125   124    1
   114   125   126    2
   115   122   121   ar
   116    55    56    2
   117   157   151   am
   118   157   158    1
   119   154   153    1
   120   154   155    1
   121   151   152    2
   122   187   186    1
   123   158   159    1
   124    49    46    1
   125   189   186    1
   126   189   190    1
   127   186   185    1
   128   159   164   am
   129   159   160    2
   130    47    46    1
   131    47    48    2
   132   164   165    1
   133    46    45    1
   134   169   168    1
   135   191   190    1
   136    34    32   am
   137   190   192    1
   138   170   168    1
   139   168   165    1
   140    45    37   am
   141   165   166    1
   142   167   166    2
   143    26    25    1
   144    32    33    2
   145    32    31    1
   146    38    37    2
   147   166   171   am
   148    37    36    1
   149    25    23   ar
   150    25    24   ar
   151    27    28    1
   152    23    21   ar
   153    31    28    1
   154   183   184    1
   155   183   182    1
   156   184   178    1
   157   180   181    2
   158   180   179    1
   159   174   173    2
   160    24    22   ar
   161    39    36    1
   162    39    40    1
   163   178   173   am
   164   178   179    1
   165   171   172    1
   166   171   177    1
   167    28    29    1
   168    36    35    1
   169   173   172    1
   170    21    20   ar
   171   179   182    1
   172   172   175    1
   173    14    13   ar
   174    14    12   ar
   175    22    20   ar
   176   177   176    1
   177    20    19    1
   178    29    30    2
   179    40    42   ar
   180    40    41   ar
   181    13    11   ar
   182    12    10   ar
   183    42    44   ar
   184   175   176    1
   185    19    16    1
   186    41    43   ar
   187    11     8   ar
   188    10     8   ar
   189    10     9   ar
   190    44    43   ar
   191     8     6   ar
   192    16    15    1
   193    16    17    1
   194     9     7   ar
   195    18    17    2
   196     6     7   ar
   197     6     5    1
   198     5     2    1
   199     4     3    2
   200     3     2    1
   201     2     1    1
