@<TRIPOS>MOLECULE
tmp/4qizA00.pdb
 219 215 0 0 0
SMALL
GASTEIGER

@<TRIPOS>ATOM
      1  N         13.9980  -27.7350  -21.7440 N.3     2  TRP2       -0.1241
      2  CA        14.3150  -28.3680  -20.4620 C.3     2  TRP2        0.1605
      3  C         13.2090  -29.3290  -20.0610 C.2     2  TRP2        0.2264
      4  O         12.0290  -29.2160  -20.4320 O.2     2  TRP2       -0.2867
      5  CB        14.5940  -27.2500  -19.4210 C.3     2  TRP2        0.0550
      6  CG        13.3330  -26.5330  -18.9630 C.ar    2  TRP2        0.0003
      7  CD1       12.7760  -25.3440  -19.4530 C.ar    2  TRP2        0.0946
      8  CD2       12.4280  -26.9520  -17.8710 C.ar    2  TRP2        0.0152
      9  NE1       11.6300  -25.0030  -18.7890 N.ar    2  TRP2       -0.2442
     10  CE2       11.3720  -25.9480  -17.8210 C.ar    2  TRP2        0.0810
     11  CE3       12.4190  -28.0340  -16.9600 C.ar    2  TRP2        0.0012
     12  CZ2       10.3240  -26.0450  -16.9090 C.ar    2  TRP2        0.0191
     13  CZ3       11.3650  -28.0800  -16.0430 C.ar    2  TRP2        0.0001
     14  CH2       10.3370  -27.1210  -16.0550 C.ar    2  TRP2        0.0015
     15  N         12.7370  -33.2660  -17.4590 N.3     4  TYR4       -0.1241
     16  CA        13.2140  -34.1570  -16.4310 C.3     4  TYR4        0.1605
     17  C         13.7380  -35.4990  -16.9910 C.2     4  TYR4        0.2264
     18  O         13.9000  -36.4370  -16.2460 O.2     4  TYR4       -0.2867
     19  CB        12.0300  -34.4630  -15.4910 C.3     4  TYR4        0.0534
     20  CG        11.5430  -33.1720  -14.7220 C.ar    4  TYR4       -0.0201
     21  CD1       12.2320  -32.8160  -13.5530 C.ar    4  TYR4       -0.0009
     22  CD2       10.4810  -32.4150  -15.1880 C.ar    4  TYR4       -0.0009
     23  CE1       11.8370  -31.6540  -12.8240 C.ar    4  TYR4        0.0417
     24  CE2       10.0310  -31.2880  -14.4930 C.ar    4  TYR4        0.0417
     25  CZ        10.7600  -30.9550  -13.3670 C.ar    4  TYR4        0.1957
     26  OH        10.3340  -29.8240  -12.6930 O.3     4  TYR4       -0.2866
     27  N          1.3240  -28.1640  -18.5710 N.3    59  SER59      -0.1217
     28  CA         2.4580  -27.3100  -19.0590 C.3    59  SER59       0.1889
     29  C          3.5220  -28.1200  -19.7720 C.2    59  SER59       0.2288
     30  O          4.4570  -27.5340  -20.3020 O.2    59  SER59      -0.2866
     31  CB         3.0770  -26.5780  -17.8340 C.3    59  SER59       0.2089
     32  OG         3.7900  -27.5020  -16.9620 O.3    59  SER59      -0.2183
     33  N          5.2700  -29.9590  -17.8280 N.3    61  HIS61      -0.1226
     34  CA         6.1330  -30.1100  -16.6550 C.3    61  HIS61       0.1752
     35  C          5.4320  -30.4800  -15.3700 C.2    61  HIS61       0.2596
     36  O          6.0610  -30.9540  -14.4110 O.2    61  HIS61      -0.2718
     37  CB         6.9060  -28.7970  -16.4010 C.3    61  HIS61       0.0759
     38  CG         7.6110  -28.2780  -17.6470 C.ar   61  HIS61       0.0818
     39  ND1        8.6450  -28.9370  -18.2680 N.ar   61  HIS61      -0.2268
     40  CD2        7.3670  -27.1240  -18.3820 C.ar   61  HIS61       0.1154
     41  CE1        9.0170  -28.1980  -19.3540 C.ar   61  HIS61       0.1986
     42  NE2        8.2470  -27.1050  -19.4020 N.ar   61  HIS61      -0.2212
     43  N          4.1640  -30.1990  -15.3620 N.am   62  SER62      -0.1952
     44  CA         3.1710  -30.5460  -14.2840 C.3    62  SER62       0.1924
     45  C          1.8020  -30.2320  -14.8640 C.2    62  SER62       0.2314
     46  O          1.6750  -29.8430  -16.0230 O.2    62  SER62      -0.2863
     47  CB         3.4710  -29.6820  -13.0190 C.3    62  SER62       0.2116
     48  OG         2.6340  -30.2340  -11.9790 O.3    62  SER62      -0.2180
     49  N         -1.1180  -27.2240  -14.0910 N.3    64  ASN64      -0.1240
     50  CA        -1.2220  -25.9320  -13.4180 C.3    64  ASN64       0.1653
     51  C         -2.6870  -25.6540  -13.2980 C.2    64  ASN64       0.2266
     52  O         -3.4440  -25.6940  -14.2970 O.2    64  ASN64      -0.2867
     53  CB        -0.5930  -24.8340  -14.3190 C.3    64  ASN64       0.1155
     54  CG         0.9360  -24.7550  -14.2280 C.2    64  ASN64       0.2627
     55  OD1        1.5920  -24.4360  -15.2370 O.2    64  ASN64      -0.2716
     56  ND2        1.5110  -25.0120  -13.0620 N.am   64  ASN64      -0.0877
     57  N         -4.6900  -22.3410  -12.7060 N.3    66  ASP66      -0.1239
     58  CA        -4.4530  -20.8520  -12.6680 C.3    66  ASP66       0.1674
     59  C         -5.6980  -20.1490  -12.0470 C.2    66  ASP66       0.2266
     60  O         -6.8000  -20.6140  -12.1950 O.2    66  ASP66      -0.2867
     61  CB        -4.2050  -20.2970  -14.0820 C.3    66  ASP66       0.1410
     62  CG        -2.9050  -20.7670  -14.6820 C.2    66  ASP66       0.3668
     63  OD1       -1.9450  -21.0790  -13.9940 O.co2  66  ASP66      -0.2456
     64  OD2       -2.8640  -20.8190  -15.9150 O.co2  66  ASP66      -0.2456
     65  N         -1.6430  -17.1640   -7.3600 N.3    88  ARG88      -0.1231
     66  CA        -1.5400  -17.2490   -8.8500 C.3    88  ARG88       0.1694
     67  C         -1.8170  -18.5930   -9.4650 C.2    88  ARG88       0.2591
     68  O         -2.6360  -18.7290  -10.3890 O.2    88  ARG88      -0.2718
     69  CB        -0.1380  -16.8260   -9.1620 C.3    88  ARG88       0.0321
     70  CG         0.3290  -16.9220  -10.6470 C.3    88  ARG88       0.0489
     71  CD        -0.5390  -16.1630  -11.5950 C.3    88  ARG88       0.2205
     72  NE         0.2250  -15.9640  -12.8530 N.pl3  88  ARG88      -0.0865
     73  CZ        -0.0260  -14.9820  -13.7340 C.cat  88  ARG88       0.5346
     74  NH1       -1.0140  -14.1100  -13.5250 N.pl3  88  ARG88       0.1354
     75  NH2        0.7630  -14.8690  -14.8480 N.pl3  88  ARG88       0.1354
     76  N         -1.2610  -19.6220   -8.8310 N.am   89  GLN89      -0.1979
     77  CA        -1.4860  -20.9630   -9.3890 C.3    89  GLN89       0.1601
     78  C         -1.0710  -22.0400   -8.3690 C.2    89  GLN89       0.2287
     79  O         -0.3350  -21.7730   -7.4120 O.2    89  GLN89      -0.2864
     80  CB        -0.6710  -21.1560  -10.6760 C.3    89  GLN89       0.0394
     81  CG         0.8060  -21.0170  -10.5440 C.3    89  GLN89       0.0908
     82  CD         1.4650  -22.4180  -10.6600 C.2    89  GLN89       0.2608
     83  OE1        1.6350  -23.0900   -9.6650 O.2    89  GLN89      -0.2717
     84  NE2        1.9660  -22.7700  -11.8280 N.am   89  GLN89      -0.0878
     85  N          0.3880  -26.3070   -8.5080 N.3    91  HIS91      -0.1241
     86  CA         0.8360  -27.4210   -9.3530 C.3    91  HIS91       0.1621
     87  C          1.4220  -28.5140   -8.4000 C.2    91  HIS91       0.2264
     88  O          1.4330  -28.3240   -7.1760 O.2    91  HIS91      -0.2867
     89  CB         1.8680  -26.9740  -10.4120 C.3    91  HIS91       0.0745
     90  CG         3.1410  -26.4280   -9.7480 C.ar   91  HIS91       0.0817
     91  ND1        3.2670  -25.1380   -9.3920 N.ar   91  HIS91      -0.2268
     92  CD2        4.2910  -27.0800   -9.2730 C.ar   91  HIS91       0.1154
     93  CE1        4.4710  -24.9460   -8.7900 C.ar   91  HIS91       0.1986
     94  NE2        5.0820  -26.1330   -8.7000 N.ar   91  HIS91      -0.2212
     95  N          4.4060  -31.9130   -7.6940 N.3    93  HIS93      -0.1241
     96  CA         5.5900  -32.6970   -8.1510 C.3    93  HIS93       0.1621
     97  C          5.4730  -34.1030   -7.5680 C.2    93  HIS93       0.2264
     98  O          4.9330  -34.3290   -6.4420 O.2    93  HIS93      -0.2867
     99  CB         6.8610  -32.0780   -7.5700 C.3    93  HIS93       0.0745
    100  CG         7.0490  -30.6320   -8.0050 C.ar   93  HIS93       0.0817
    101  ND1        7.7870  -30.2810   -9.1410 N.ar   93  HIS93      -0.2268
    102  CD2        6.5790  -29.4620   -7.4600 C.ar   93  HIS93       0.1154
    103  CE1        7.7750  -28.9120   -9.2510 C.ar   93  HIS93       0.1986
    104  NE2        7.0600  -28.4300   -8.2380 N.ar   93  HIS93      -0.2212
    105  N          2.5230  -27.4000   -4.6400 N.3   116  HIS116     -0.1241
    106  CA         2.9930  -26.0080   -4.4190 C.3   116  HIS116      0.1621
    107  C          1.9590  -24.9880   -4.8270 C.2   116  HIS116      0.2264
    108  O          1.2580  -25.1110   -5.8370 O.2   116  HIS116     -0.2867
    109  CB         4.2240  -25.7910   -5.3440 C.3   116  HIS116      0.0745
    110  CG         5.4080  -26.5070   -4.8540 C.ar  116  HIS116      0.0817
    111  ND1        6.4400  -26.7840   -5.7080 N.ar  116  HIS116     -0.2268
    112  CD2        5.7690  -26.9820   -3.6280 C.ar  116  HIS116      0.1154
    113  CE1        7.4040  -27.4440   -5.0760 C.ar  116  HIS116      0.1986
    114  NE2        6.9970  -27.5870   -3.7710 N.ar  116  HIS116     -0.2212
    115  N          1.5040  -21.0590   -5.4470 N.3   118  VAL118     -0.1245
    116  CA         2.4090  -19.9790   -5.7870 C.3   118  VAL118      0.1561
    117  C          1.6190  -18.6190   -5.6660 C.2   118  VAL118      0.2260
    118  O          0.5630  -18.4950   -6.1960 O.2   118  VAL118     -0.2867
    119  CB         2.9050  -20.1680   -7.2430 C.3   118  VAL118      0.0252
    120  CG1        3.8440  -19.0070   -7.6360 C.3   118  VAL118      0.0019
    121  CG2        3.6000  -21.5700   -7.4010 C.3   118  VAL118      0.0019
    122  N          2.5940  -10.8020  -11.5370 N.3   128  PHE128     -0.1227
    123  CA         3.4750  -11.9130  -11.1480 C.3   128  PHE128      0.1736
    124  C          4.8340  -11.9140  -11.9010 C.2   128  PHE128      0.2595
    125  O          5.8600  -12.3010  -11.3070 O.2   128  PHE128     -0.2718
    126  CB         2.7020  -13.1540  -11.5930 C.3   128  PHE128      0.0547
    127  CG         3.4400  -14.4300  -11.4340 C.ar  128  PHE128     -0.0202
    128  CD1        3.6800  -14.9820  -10.1500 C.ar  128  PHE128     -0.0042
    129  CD2        3.7920  -15.1720  -12.5630 C.ar  128  PHE128     -0.0042
    130  CE1        4.2930  -16.2410   -9.9950 C.ar  128  PHE128     -0.0003
    131  CE2        4.4660  -16.4290  -12.3560 C.ar  128  PHE128     -0.0003
    132  CZ         4.7150  -16.9510  -11.0470 C.ar  128  PHE128     -0.0000
    133  N          4.8640  -11.4740  -13.1540 N.am  129  VAL129     -0.1980
    134  CA         6.1090  -11.5490  -13.9080 C.3   129  VAL129      0.1595
    135  C          7.0890  -10.6250  -13.3160 C.2   129  VAL129      0.2287
    136  O          8.2560  -10.9870  -13.1980 O.2   129  VAL129     -0.2864
    137  CB         5.9310  -11.2260  -15.3950 C.3   129  VAL129      0.0276
    138  CG1        7.3260  -11.1940  -16.1240 C.3   129  VAL129      0.0022
    139  CG2        4.9910  -12.2670  -15.9770 C.3   129  VAL129      0.0022
    140  N          8.3220  -12.0410   -9.9020 N.3   132  ALA132     -0.1231
    141  CA         9.2390  -13.1940  -10.0070 C.3   132  ALA132      0.1694
    142  C         10.6970  -12.8420  -10.1090 C.2   132  ALA132      0.2592
    143  O         11.5150  -13.7300   -9.9030 O.2   132  ALA132     -0.2718
    144  CB         8.7680  -14.0840  -11.2010 C.3   132  ALA132      0.0304
    145  N         11.0450  -11.5520  -10.3760 N.am  133  HIS133     -0.1976
    146  CA        12.4360  -11.0990  -10.4690 C.3   133  HIS133      0.1656
    147  C         12.8980  -10.3090   -9.3270 C.2   133  HIS133      0.2291
    148  O         13.9190   -9.6750   -9.3880 O.2   133  HIS133     -0.2864
    149  CB        12.6580  -10.2860  -11.8010 C.3   133  HIS133      0.0771
    150  CG        12.3970  -11.0900  -13.0360 C.ar  133  HIS133      0.0820
    151  ND1       13.3990  -11.7510  -13.6920 N.ar  133  HIS133     -0.2267
    152  CD2       11.2050  -11.4420  -13.6950 C.ar  133  HIS133      0.1154
    153  CE1       12.8720  -12.4130  -14.7280 C.ar  133  HIS133      0.1986
    154  NE2       11.5460  -12.2590  -14.7370 N.ar  133  HIS133     -0.2212
    155  N          5.8530  -19.3180   -1.8860 N.3   140  VAL140     -0.1245
    156  CA         5.2650  -20.6230   -2.2870 C.3   140  VAL140      0.1561
    157  C          5.0360  -21.4780   -1.0310 C.2   140  VAL140      0.2260
    158  O          5.9830  -21.6140   -0.2000 O.2   140  VAL140     -0.2867
    159  CB         6.2300  -21.3900   -3.2510 C.3   140  VAL140      0.0252
    160  CG1        5.4470  -22.6550   -3.6920 C.3   140  VAL140      0.0019
    161  CG2        6.4920  -20.5140   -4.5100 C.3   140  VAL140      0.0019
    162  N         12.5480  -20.5120   -7.4990 N.3   195  LEU195     -0.1231
    163  CA        11.7380  -21.4340   -8.3000 C.3   195  LEU195      0.1693
    164  C         12.5600  -22.7500   -8.4140 C.2   195  LEU195      0.2593
    165  O         13.7920  -22.7710   -8.5830 O.2   195  LEU195     -0.2718
    166  CB        11.5200  -20.8430   -9.7560 C.3   195  LEU195      0.0284
    167  CG        10.7760  -19.5140   -9.7840 C.3   195  LEU195      0.0019
    168  CD1       10.6070  -19.2390  -11.2790 C.3   195  LEU195      0.0001
    169  CD2        9.4020  -19.5690   -9.1800 C.3   195  LEU195      0.0001
    170  N         11.7970  -23.8590   -8.4680 N.am  196  THR196     -0.1939
    171  CA        12.4880  -25.1370   -8.6250 C.3   196  THR196      0.2028
    172  C         12.4920  -25.5780  -10.0830 C.2   196  THR196      0.2642
    173  O         12.8790  -26.7330  -10.3930 O.2   196  THR196     -0.2714
    174  CB        11.8260  -26.2860   -7.7640 C.3   196  THR196      0.1808
    175  OG1       10.5250  -26.6370   -8.2470 O.3   196  THR196     -0.2208
    176  CG2       11.7230  -25.8900   -6.2430 C.3   196  THR196      0.0379
    177  N         12.0020  -24.7650  -10.9970 N.am  197  VAL197     -0.1963
    178  CA        12.0140  -25.0200  -12.4440 C.3   197  VAL197      0.1712
    179  C         12.7170  -23.8610  -13.1030 C.2   197  VAL197      0.2458
    180  O         12.7100  -22.7260  -12.5410 O.2   197  VAL197     -0.2730
    181  CB        10.5850  -25.1780  -13.0230 C.3   197  VAL197      0.0289
    182  CG1        9.9770  -26.4770  -12.4450 C.3   197  VAL197      0.0023
    183  CG2        9.5710  -23.9360  -12.8030 C.3   197  VAL197      0.0023
    184  N         13.3280  -24.0490  -14.2600 N.am  198  PRO198     -0.2716
    185  CA        13.7640  -22.9220  -15.0420 C.3   198  PRO198      0.1521
    186  C         12.6270  -21.9000  -15.2000 C.2   198  PRO198      0.2440
    187  O         11.4850  -22.2410  -15.4640 O.2   198  PRO198     -0.2731
    188  CB        14.1040  -23.6240  -16.4170 C.3   198  PRO198      0.0310
    189  CG        14.6530  -24.9400  -15.9660 C.3   198  PRO198      0.0237
    190  CD        13.6310  -25.3290  -14.9250 C.3   198  PRO198      0.0939
    191  N         12.9280  -20.5900  -15.0170 N.am  199  PRO199     -0.2727
    192  CA        14.2220  -19.9560  -14.9500 C.3   199  PRO199      0.1402
    193  C         14.9330  -19.8700  -13.6050 C.2   199  PRO199      0.2269
    194  O         15.9720  -19.2270  -13.4890 O.2   199  PRO199     -0.2865
    195  CB        13.8960  -18.5200  -15.4990 C.3   199  PRO199      0.0296
    196  CG        12.5640  -18.2620  -14.9550 C.3   199  PRO199      0.0237
    197  CD        11.8320  -19.5910  -15.1560 C.3   199  PRO199      0.0939
    198  N         14.5630  -18.5590  -10.7600 N.3   201  LEU201     -0.1245
    199  CA        14.7630  -17.2210  -10.1520 C.3   201  LEU201      0.1561
    200  C         14.7580  -17.2640   -8.6350 C.2   201  LEU201      0.2260
    201  O         13.9220  -17.9570   -8.0210 O.2   201  LEU201     -0.2867
    202  CB        13.6740  -16.2890  -10.6180 C.3   201  LEU201      0.0270
    203  CG        13.6420  -16.0130  -12.1840 C.3   201  LEU201      0.0019
    204  CD1       12.3860  -15.3450  -12.6950 C.3   201  LEU201      0.0001
    205  CD2       14.9060  -15.2530  -12.6290 C.3   201  LEU201      0.0001
    206  N          9.9760  -19.5370    0.7200 N.3   206  TRP206     -0.1241
    207  CA         9.3480  -20.8390    0.8670 C.3   206  TRP206      0.1605
    208  C          8.7170  -20.9820    2.2320 C.2   206  TRP206      0.2264
    209  O          9.3630  -20.6700    3.2520 O.2   206  TRP206     -0.2867
    210  CB        10.4560  -21.9130    0.6870 C.3   206  TRP206      0.0550
    211  CG        10.6400  -22.1910   -0.7860 C.ar  206  TRP206      0.0003
    212  CD1       11.6250  -21.6860   -1.6520 C.ar  206  TRP206      0.0946
    213  CD2        9.7520  -22.9980   -1.5960 C.ar  206  TRP206      0.0152
    214  NE1       11.3990  -22.1220   -2.9490 N.ar  206  TRP206     -0.2442
    215  CE2       10.2800  -22.9370   -2.9730 C.ar  206  TRP206      0.0810
    216  CE3        8.6670  -23.8250   -1.3200 C.ar  206  TRP206      0.0012
    217  CZ2        9.6100  -23.6090   -4.0290 C.ar  206  TRP206      0.0191
    218  CZ3        8.0220  -24.4620   -2.4040 C.ar  206  TRP206      0.0001
    219  CH2        8.5130  -24.3360   -3.7430 C.ar  206  TRP206      0.0015
@<TRIPOS>BOND
     1     1     2    1
     2     2     3    1
     3     2     5    1
     4     4     3    2
     5    30    29    2
     6    29    28    1
     7     7     6   ar
     8     7     9   ar
     9     5     6    1
    10    42    41   ar
    11    42    40   ar
    12    41    39   ar
    13    28    27    1
    14    28    31    1
    15     6     8   ar
    16     9    10   ar
    17    40    38   ar
    18    39    38   ar
    19     8    10   ar
    20     8    11   ar
    21    31    32    1
    22    33    34    1
    23    10    12   ar
    24    38    37    1
    25    15    16    1
    26    17    16    1
    27    17    18    2
    28    11    13   ar
    29    12    14   ar
    30    34    37    1
    31    34    35    1
    32    16    19    1
    33   188   189    1
    34   188   185    1
    35   138   137    1
    36    14    13   ar
    37    46    45    2
    38   139   137    1
    39   189   190    1
    40    64    62   ar
    41   195   196    1
    42   195   192    1
    43    19    20    1
    44   187   186    2
    45   137   134    1
    46    35    43   am
    47    35    36    2
    48    43    44    1
    49    55    54    2
    50   186   185    1
    51   186   191   am
    52    22    20   ar
    53    22    24   ar
    54   197   191    1
    55   197   196    1
    56   185   184    1
    57   191   192    1
    58   192   193    1
    59   190   184    1
    60    45    44    1
    61    75    73    1
    62   154   153   ar
    63   154   152   ar
    64   153   151   ar
    65    20    21   ar
    66    62    61    1
    67    62    63   ar
    68    24    25   ar
    69    53    54    1
    70    53    50    1
    71    52    51    2
    72    44    47    1
    73   184   179   am
    74    54    56   am
    75    49    50    1
    76    61    58    1
    77   134   135    1
    78   134   133    1
    79    73    74    1
    80    73    72    2
    81   152   150   ar
    82   151   150   ar
    83   193   194    2
    84    21    23   ar
    85    50    51    1
    86    25    23   ar
    87    25    26    1
    88   135   136    2
    89   133   124   am
    90   179   180    2
    91   179   178    1
    92   150   149    1
    93   181   183    1
    94   181   182    1
    95   181   178    1
    96    47    48    1
    97    72    71    1
    98    57    58    1
    99   204   203    1
   100    58    59    1
   101   205   203    1
   102   129   131   ar
   103   129   127   ar
   104   178   177    1
   105   131   132   ar
   106    60    59    2
   107   203   202    1
   108   124   125    2
   109   124   123    1
   110    84    82   am
   111   149   146    1
   112    71    70    1
   113   126   127    1
   114   126   123    1
   115   122   123    1
   116   127   128   ar
   117   168   167    1
   118   144   141    1
   119   132   130   ar
   120   177   172   am
   121   198   199    1
   122    80    81    1
   123    80    77    1
   124    82    81    1
   125    82    83    2
   126    70    69    1
   127   202   199    1
   128   146   145    1
   129   146   147    1
   130    89    90    1
   131    89    86    1
   132   173   172    2
   133    68    67    2
   134   145   142   am
   135   199   200    1
   136   128   130   ar
   137   142   141    1
   138   142   143    2
   139   172   171    1
   140   141   140    1
   141   167   166    1
   142   167   169    1
   143   166   163    1
   144    90    91   ar
   145    90    92   ar
   146    67    66    1
   147    67    76   am
   148    91    93   ar
   149    77    76    1
   150    77    78    1
   151   148   147    2
   152    86    85    1
   153    86    87    1
   154    92    94   ar
   155   103   101   ar
   156   103   104   ar
   157    69    66    1
   158   101   100   ar
   159    66    65    1
   160    93    94   ar
   161   200   201    2
   162   171   170    1
   163   171   174    1
   164   165   164    2
   165   170   164   am
   166   164   163    1
   167    87    88    2
   168    78    79    2
   169   163   162    1
   170   175   174    1
   171   104   102   ar
   172    96    95    1
   173    96    99    1
   174    96    97    1
   175   100    99    1
   176   100   102   ar
   177   174   176    1
   178   120   119    1
   179    97    98    2
   180   121   119    1
   181   119   116    1
   182   118   117    2
   183   108   107    2
   184   116   117    1
   185   116   115    1
   186   111   113   ar
   187   111   110   ar
   188   109   110    1
   189   109   106    1
   190   113   114   ar
   191   110   112   ar
   192   107   106    1
   193   105   106    1
   194   161   159    1
   195   217   219   ar
   196   217   215   ar
   197   114   112   ar
   198   219   218   ar
   199   160   159    1
   200   159   156    1
   201   215   214   ar
   202   215   213   ar
   203   214   212   ar
   204   218   216   ar
   205   156   155    1
   206   156   157    1
   207   212   211   ar
   208   213   216   ar
   209   213   211   ar
   210   157   158    2
   211   211   210    1
   212   210   207    1
   213   206   207    1
   214   207   208    1
   215   208   209    2
