@<TRIPOS>MOLECULE
tmp/4qj0B00.pdb
 202 196 0 0 0
SMALL
GASTEIGER

@<TRIPOS>ATOM
      1  N          0.2390   15.5990   -1.0330 N.3     2  TRP2       -0.1241
      2  CA         0.8820   14.4320   -0.4540 C.3     2  TRP2        0.1605
      3  C          0.5550   13.2380   -1.3300 C.2     2  TRP2        0.2264
      4  O         -0.4970   13.2120   -2.0220 O.2     2  TRP2       -0.2867
      5  CB         0.4420   14.2460    1.0060 C.3     2  TRP2        0.0550
      6  CG        -1.0450   13.9250    1.2290 C.ar    2  TRP2        0.0003
      7  CD1       -2.0730   14.7800    1.5950 C.ar    2  TRP2        0.0946
      8  CD2       -1.6640   12.5960    1.2440 C.ar    2  TRP2        0.0152
      9  NE1       -3.2740   14.1170    1.7080 N.ar    2  TRP2       -0.2442
     10  CE2       -3.0740   12.7910    1.5280 C.ar    2  TRP2        0.0810
     11  CE3       -1.1690   11.2850    1.0390 C.ar    2  TRP2        0.0012
     12  CZ2       -3.9450   11.7320    1.6300 C.ar    2  TRP2        0.0191
     13  CZ3       -2.0780   10.1980    1.1070 C.ar    2  TRP2        0.0001
     14  CH2       -3.4460   10.4380    1.3950 C.ar    2  TRP2        0.0015
     15  N          1.8930    8.6650   -1.9110 N.3     4  TYR4       -0.1241
     16  CA         2.5480    7.5300   -1.3430 C.3     4  TYR4        0.1605
     17  C          3.8600    7.1840   -1.9670 C.2     4  TYR4        0.2264
     18  O          4.4630    6.1170   -1.6480 O.2     4  TYR4       -0.2867
     19  CB         1.6240    6.2890   -1.4780 C.3     4  TYR4        0.0534
     20  CG         0.3590    6.3400   -0.6330 C.ar    4  TYR4       -0.0201
     21  CD1        0.3840    5.8360    0.7110 C.ar    4  TYR4       -0.0009
     22  CD2       -0.8440    6.8430   -1.1250 C.ar    4  TYR4       -0.0009
     23  CE1       -0.8110    5.8300    1.4970 C.ar    4  TYR4        0.0417
     24  CE2       -1.9910    6.8470   -0.3670 C.ar    4  TYR4        0.0417
     25  CZ        -1.9600    6.3800    0.9970 C.ar    4  TYR4        0.1957
     26  OH        -3.1380    6.4210    1.6330 O.3     4  TYR4       -0.2866
     27  N        -10.8780   10.4800   -5.1260 N.3    62  ASN62      -0.1240
     28  CA       -10.4740   11.6970   -4.5130 C.3    62  ASN62       0.1653
     29  C         -8.9720   12.0130   -4.7300 C.2    62  ASN62       0.2266
     30  O         -8.4490   12.9270   -4.1030 O.2    62  ASN62      -0.2867
     31  CB       -10.8310   11.7020   -3.0140 C.3    62  ASN62       0.1155
     32  CG       -10.1140   10.6710   -2.2320 C.2    62  ASN62       0.2627
     33  OD1       -9.1620    9.9780   -2.6890 O.2    62  ASN62      -0.2716
     34  ND2      -10.5560   10.5450   -0.9650 N.am   62  ASN62      -0.0877
     35  N         -6.5720   10.0860   -3.9030 N.3    64  HIS64      -0.1226
     36  CA        -5.7940    9.1470   -3.0140 C.3    64  HIS64       0.1752
     37  C         -6.3530    7.7350   -2.9030 C.2    64  HIS64       0.2596
     38  O         -5.5870    6.7490   -2.6590 O.2    64  HIS64      -0.2718
     39  CB        -5.6560    9.7810   -1.6210 C.3    64  HIS64       0.0759
     40  CG        -5.0780   11.1650   -1.6210 C.ar   64  HIS64       0.0818
     41  ND1       -3.7320   11.4100   -1.8470 N.ar   64  HIS64      -0.2268
     42  CD2       -5.6480   12.3790   -1.3670 C.ar   64  HIS64       0.1154
     43  CE1       -3.5360   12.7240   -1.7600 C.ar   64  HIS64       0.1986
     44  NE2       -4.7290   13.3010   -1.4850 N.ar   64  HIS64      -0.2212
     45  N         -7.7100    7.5900   -3.0570 N.am   65  SER65      -0.1952
     46  CA        -8.3790    6.2410   -2.9770 C.3    65  SER65       0.1924
     47  C         -9.6450    6.4190   -3.7940 C.2    65  SER65       0.2314
     48  O         -9.8910    7.4740   -4.3660 O.2    65  SER65      -0.2863
     49  CB        -8.7820    5.8750   -1.5000 C.3    65  SER65       0.2116
     50  OG        -9.2120    4.4670   -1.4220 O.3    65  SER65      -0.2180
     51  N        -13.6570    6.2560   -2.8550 N.3    67  LYS67      -0.1245
     52  CA       -14.5480    6.1770   -1.6300 C.3    67  LYS67       0.1561
     53  C        -15.9810    6.0240   -2.0980 C.2    67  LYS67       0.2260
     54  O        -16.3980    6.5730   -3.1170 O.2    67  LYS67      -0.2867
     55  CB       -14.3350    7.4070   -0.7140 C.3    67  LYS67       0.0271
     56  CG       -14.5390    8.7390   -1.3630 C.3    67  LYS67       0.0035
     57  CD       -14.5080    9.7980   -0.2440 C.3    67  LYS67       0.0206
     58  CE       -14.9260   11.1180   -0.8110 C.3    67  LYS67       0.1093
     59  NZ       -15.2060   12.1220    0.2650 N.3    67  LYS67      -0.1314
     60  N        -19.8460    7.0120    7.5240 N.3    86  THR86      -0.1203
     61  CA       -19.6790    8.1570    6.6030 C.3    86  THR86       0.1994
     62  C        -19.1650    7.7620    5.2310 C.2    86  THR86       0.2617
     63  O        -19.6740    8.2410    4.1750 O.2    86  THR86      -0.2717
     64  CB       -18.8660    9.2290    7.1930 C.3    86  THR86       0.1784
     65  OG1      -18.8570   10.3660    6.2550 O.3    86  THR86      -0.2211
     66  CG2      -17.4160    8.7940    7.5410 C.3    86  THR86       0.0376
     67  N        -18.1960    6.8210    5.1690 N.am   87  GLN87      -0.1979
     68  CA       -17.7030    6.3950    3.8720 C.3    87  GLN87       0.1601
     69  C        -16.9710    5.0590    4.0100 C.2    87  GLN87       0.2287
     70  O        -16.5820    4.7320    5.1350 O.2    87  GLN87      -0.2864
     71  CB       -16.7830    7.4550    3.2150 C.3    87  GLN87       0.0394
     72  CG       -15.6220    7.8770    4.1000 C.3    87  GLN87       0.0908
     73  CD       -14.3100    7.3740    3.5260 C.2    87  GLN87       0.2608
     74  OE1      -13.9300    6.2020    3.5720 O.2    87  GLN87      -0.2717
     75  NE2      -13.5310    8.2680    3.1950 N.am   87  GLN87      -0.0878
     76  N        -13.6120    2.8430    1.8560 N.3    89  HIS89      -0.1241
     77  CA       -12.6160    3.0360    0.7880 C.3    89  HIS89       0.1621
     78  C        -11.6480    1.9020    0.9310 C.2    89  HIS89       0.2264
     79  O        -11.7840    1.0910    1.8500 O.2    89  HIS89      -0.2867
     80  CB       -11.9260    4.4010    0.9510 C.3    89  HIS89       0.0745
     81  CG       -11.1780    4.5480    2.2540 C.ar   89  HIS89       0.0817
     82  ND1      -11.6820    5.2170    3.3060 N.ar   89  HIS89      -0.2268
     83  CD2       -9.9310    4.0710    2.6520 C.ar   89  HIS89       0.1154
     84  CE1      -10.8030    5.1780    4.3250 C.ar   89  HIS89       0.1986
     85  NE2       -9.7320    4.4760    3.9230 N.ar   89  HIS89      -0.2212
     86  N         -7.4110    0.2430    0.2220 N.3    91  HIS91      -0.1241
     87  CA        -5.9580    0.4350    0.0240 C.3    91  HIS91       0.1621
     88  C         -5.4110   -0.7960   -0.6070 C.2    91  HIS91       0.2264
     89  O         -5.8740   -1.8790   -0.3020 O.2    91  HIS91      -0.2867
     90  CB        -5.2890    0.5990    1.4180 C.3    91  HIS91       0.0745
     91  CG        -5.7760    1.7480    2.2090 C.ar   91  HIS91       0.0817
     92  ND1       -5.1820    3.0180    2.1410 N.ar   91  HIS91      -0.2268
     93  CD2       -6.8420    1.8430    3.0860 C.ar   91  HIS91       0.1154
     94  CE1       -5.8540    3.8610    2.9570 C.ar   91  HIS91       0.1986
     95  NE2       -6.8600    3.1610    3.5360 N.ar   91  HIS91      -0.2212
     96  N        -11.5870   -0.1830    4.4840 N.3   115  HIS115     -0.1241
     97  CA       -11.9400    0.6320    5.6860 C.3   115  HIS115      0.1621
     98  C        -13.3540    1.1590    5.5870 C.2   115  HIS115      0.2264
     99  O        -13.7190    1.7590    4.6250 O.2   115  HIS115     -0.2867
    100  CB       -10.9730    1.7840    5.7740 C.3   115  HIS115      0.0745
    101  CG        -9.5950    1.3240    6.1460 C.ar  115  HIS115      0.0817
    102  ND1       -8.4680    2.0330    5.9060 N.ar  115  HIS115     -0.2268
    103  CD2       -9.1940    0.1010    6.6630 C.ar  115  HIS115      0.1154
    104  CE1       -7.4040    1.3830    6.3640 C.ar  115  HIS115      0.1986
    105  NE2       -7.8240    0.1440    6.8010 N.ar  115  HIS115     -0.2212
    106  N        -15.4500    3.8310    7.5620 N.3   117  VAL117     -0.1245
    107  CA       -15.2370    4.9160    8.4960 C.3   117  VAL117      0.1561
    108  C        -16.5750    5.3690    9.0890 C.2   117  VAL117      0.2260
    109  O        -17.5250    5.5940    8.3580 O.2   117  VAL117     -0.2867
    110  CB       -14.5960    6.1220    7.7620 C.3   117  VAL117      0.0252
    111  CG1      -14.2470    7.2040    8.7500 C.3   117  VAL117      0.0019
    112  CG2      -13.3090    5.6630    6.9620 C.3   117  VAL117      0.0019
    113  N        -18.5190   13.7830   10.2830 N.3   127  ALA127     -0.1231
    114  CA       -17.1990   13.2090   10.4110 C.3   127  ALA127      0.1694
    115  C        -16.0570   14.2290   10.4420 C.2   127  ALA127      0.2592
    116  O        -15.1120   14.0630   11.2200 O.2   127  ALA127     -0.2718
    117  CB       -16.9700   12.2040    9.2920 C.3   127  ALA127      0.0304
    118  N        -16.1280   15.2680    9.6070 N.am  128  SER128     -0.1952
    119  CA       -15.0760   16.3000    9.6030 C.3   128  SER128      0.1924
    120  C        -14.8900   16.8370   11.0200 C.2   128  SER128      0.2314
    121  O        -13.7610   17.0440   11.4890 O.2   128  SER128     -0.2863
    122  CB       -15.4260   17.4460    8.6500 C.3   128  SER128      0.2116
    123  OG       -16.2590   17.0040    7.5950 O.3   128  SER128     -0.2180
    124  N        -13.4740   14.3480   13.6390 N.3   131  SER131     -0.1217
    125  CA       -12.1500   13.8110   13.2700 C.3   131  SER131      0.1889
    126  C        -10.9440   14.2960   14.0820 C.2   131  SER131      0.2288
    127  O         -9.8600   13.6280   14.0950 O.2   131  SER131     -0.2866
    128  CB       -11.9170   14.0200   11.7820 C.3   131  SER131      0.2089
    129  OG       -11.6900   15.3770   11.5200 O.3   131  SER131     -0.2183
    130  N        -13.7420    8.9270   15.9000 N.3   137  LEU137     -0.1245
    131  CA       -13.9100    8.0690   14.7290 C.3   137  LEU137      0.1561
    132  C        -13.7750    6.5740   15.1320 C.2   137  LEU137      0.2260
    133  O        -13.0110    6.2790   16.0840 O.2   137  LEU137     -0.2867
    134  CB       -12.8560    8.4230   13.6530 C.3   137  LEU137      0.0270
    135  CG       -12.8770    9.8730   13.1330 C.3   137  LEU137      0.0019
    136  CD1      -11.6550   10.0900   12.2480 C.3   137  LEU137      0.0001
    137  CD2      -14.1750   10.0690   12.3540 C.3   137  LEU137      0.0001
    138  N        -13.0810    3.0700   12.8740 N.3   139  VAL139     -0.1245
    139  CA       -12.9690    2.4870   11.5430 C.3   139  VAL139      0.1561
    140  C        -12.9560    0.9930   11.6250 C.2   139  VAL139      0.2260
    141  O        -12.2750    0.4380   12.5120 O.2   139  VAL139     -0.2867
    142  CB       -11.6710    3.0520   10.8440 C.3   139  VAL139      0.0252
    143  CG1      -11.5170    2.4280    9.4310 C.3   139  VAL139      0.0019
    144  CG2      -11.6820    4.5830   10.7160 C.3   139  VAL139      0.0019
    145  N         -5.8450    8.1590   11.9020 N.3   195  LEU195     -0.1231
    146  CA        -6.0550    8.1000   10.4190 C.3   195  LEU195      0.1693
    147  C         -4.7270    7.6370    9.8450 C.2   195  LEU195      0.2593
    148  O         -3.6340    8.0130   10.3100 O.2   195  LEU195     -0.2718
    149  CB        -6.3740    9.5270    9.8840 C.3   195  LEU195      0.0284
    150  CG        -7.6930   10.0700   10.3400 C.3   195  LEU195      0.0019
    151  CD1       -7.7380   11.4350    9.6080 C.3   195  LEU195      0.0001
    152  CD2       -8.9190    9.2710   10.0770 C.3   195  LEU195      0.0001
    153  N         -4.8050    6.7780    8.7940 N.am  196  THR196     -0.1939
    154  CA        -3.5520    6.3080    8.1400 C.3   196  THR196      0.2028
    155  C         -3.0900    7.2290    6.9970 C.2   196  THR196      0.2643
    156  O         -2.1130    6.9290    6.2720 O.2   196  THR196     -0.2714
    157  CB        -3.6720    4.8970    7.6060 C.3   196  THR196      0.1808
    158  OG1       -4.6420    4.9030    6.5430 O.3   196  THR196     -0.2208
    159  CG2       -4.1300    3.9150    8.7020 C.3   196  THR196      0.0379
    160  N         -3.7860    8.3740    6.8680 N.am  197  THR197     -0.1937
    161  CA        -3.5110    9.3520    5.7830 C.3   197  THR197      0.2013
    162  C         -3.4230   10.7200    6.5050 C.2   197  THR197      0.2484
    163  O         -4.0870   10.8830    7.5290 O.2   197  THR197     -0.2729
    164  CB        -4.6490    9.4140    4.7040 C.3   197  THR197      0.1807
    165  OG1       -5.8790    9.6980    5.3920 O.3   197  THR197     -0.2208
    166  CG2       -4.6980    8.1070    3.9580 C.3   197  THR197      0.0379
    167  N         -2.7050   11.6740    5.9180 N.am  198  PRO198     -0.2715
    168  CA        -2.7770   13.0640    6.4200 C.3   198  PRO198      0.1521
    169  C         -4.2470   13.4610    6.5600 C.2   198  PRO198      0.2440
    170  O         -5.0530   13.1250    5.6620 O.2   198  PRO198     -0.2731
    171  CB        -2.1200   13.8600    5.2960 C.3   198  PRO198      0.0310
    172  CG        -1.0580   12.9350    4.7670 C.3   198  PRO198      0.0237
    173  CD        -1.7860   11.5770    4.7570 C.3   198  PRO198      0.0939
    174  N         -4.5740   14.2100    7.6460 N.am  199  PRO199     -0.2727
    175  CA        -3.6820   14.7670    8.6570 C.3   199  PRO199      0.1402
    176  C         -3.2380   13.8440    9.7880 C.2   199  PRO199      0.2269
    177  O         -2.6590   14.2440   10.7960 O.2   199  PRO199     -0.2865
    178  CB        -4.4830   16.0060    9.2420 C.3   199  PRO199      0.0296
    179  CG        -5.7660   15.9480    8.5120 C.3   199  PRO199      0.0237
    180  CD        -5.9720   14.6100    7.8730 C.3   199  PRO199      0.0939
    181  N         -4.7710   12.2910   12.2600 N.3   201  ASN201     -0.1240
    182  CA        -5.3570   12.5910   13.5670 C.3   201  ASN201      0.1653
    183  C         -5.3510   11.3470   14.4270 C.2   201  ASN201      0.2266
    184  O         -5.8000   10.2950   13.9690 O.2   201  ASN201     -0.2867
    185  CB        -6.8090   13.0480   13.4210 C.3   201  ASN201      0.1155
    186  CG        -6.9690   14.2980   12.5220 C.2   201  ASN201      0.2627
    187  OD1       -6.0290   14.7700   11.9020 O.2   201  ASN201     -0.2716
    188  ND2       -8.1760   14.8300   12.4790 N.am  201  ASN201     -0.0877
    189  N         -9.8040    1.6740   16.2240 N.3   206  TRP206     -0.1241
    190  CA        -9.6910    0.6080   15.1800 C.3   206  TRP206      0.1605
    191  C        -10.3160   -0.7080   15.5800 C.2   206  TRP206      0.2264
    192  O        -10.0550   -1.1700   16.7060 O.2   206  TRP206     -0.2867
    193  CB        -8.2000    0.3670   14.8320 C.3   206  TRP206      0.0550
    194  CG        -7.7040    1.4590   13.9180 C.ar  206  TRP206      0.0003
    195  CD1       -7.0040    2.6110   14.2670 C.ar  206  TRP206      0.0946
    196  CD2       -7.9090    1.5620   12.4680 C.ar  206  TRP206      0.0152
    197  NE1       -6.7490    3.3810   13.1600 N.ar  206  TRP206     -0.2442
    198  CE2       -7.2660    2.8090   12.0510 C.ar  206  TRP206      0.0810
    199  CE3       -8.5260    0.7700   11.5120 C.ar  206  TRP206      0.0012
    200  CZ2       -7.2540    3.2200   10.7300 C.ar  206  TRP206      0.0191
    201  CZ3       -8.5070    1.1960   10.1830 C.ar  206  TRP206      0.0001
    202  CH2       -7.8860    2.3920    9.8040 C.ar  206  TRP206      0.0015
@<TRIPOS>BOND
     1    27    28    1
     2    29    28    1
     3    29    30    2
     4    28    31    1
     5    48    47    2
     6    35    36    1
     7    47    46    1
     8    54    53    2
     9    45    46    1
    10    45    37   am
    11    31    32    1
    12    36    37    1
    13    36    39    1
    14    46    49    1
    15    37    38    2
    16    51    52    1
    17    33    32    2
    18    32    34   am
    19    53    52    1
    20     4     3    2
    21    17    18    2
    22    17    16    1
    23    15    16    1
    24    41    43   ar
    25    41    40   ar
    26    43    44   ar
    27    52    55    1
    28    40    39    1
    29    40    42   ar
    30    49    50    1
    31    44    42   ar
    32    19    16    1
    33    19    20    1
    34    56    55    1
    35    56    57    1
    36     3     2    1
    37    22    20   ar
    38    22    24   ar
    39     1     2    1
    40    58    57    1
    41    58    59    1
    42    20    21   ar
    43    88    89    2
    44    88    87    1
    45     2     5    1
    46    24    25   ar
    47    87    86    1
    48    87    90    1
    49    21    23   ar
    50    77    78    1
    51    77    80    1
    52    77    76    1
    53    78    79    2
    54    80    81    1
    55    25    23   ar
    56    25    26    1
    57     5     6    1
    58    11    13   ar
    59    11     8   ar
    60    13    14   ar
    61     6     8   ar
    62     6     7   ar
    63     8    10   ar
    64    14    12   ar
    65    90    91    1
    66    10    12   ar
    67    10     9   ar
    68     7     9   ar
    69    92    91   ar
    70    92    94   ar
    71    91    93   ar
    72    81    83   ar
    73    81    82   ar
    74    83    85   ar
    75    94    95   ar
    76    93    95   ar
    77    75    73   am
    78    71    68    1
    79    71    72    1
    80    82    84   ar
    81    73    74    2
    82    73    72    1
    83    68    69    1
    84    68    67    1
    85    85    84   ar
    86   166   164    1
    87    69    70    2
    88    63    62    2
    89    96    97    1
    90    99    98    2
    91   164   165    1
    92   164   161    1
    93   173   172    1
    94   173   167    1
    95   172   171    1
    96    67    62   am
    97    62    61    1
    98   171   168    1
    99    98    97    1
   100   170   169    2
   101    97   100    1
   102   100   101    1
   103   161   162    1
   104   161   160    1
   105   102   101   ar
   106   102   104   ar
   107   167   168    1
   108   167   162   am
   109   101   103   ar
   110    65    64    1
   111   156   155    2
   112   104   105   ar
   113   168   169    1
   114   162   163    2
   115   158   157    1
   116   169   174   am
   117    61    64    1
   118    61    60    1
   119   103   105   ar
   120   160   155   am
   121   112   110    1
   122   155   154    1
   123    64    66    1
   124   106   107    1
   125   123   122    1
   126   157   154    1
   127   157   159    1
   128   174   180    1
   129   174   175    1
   130   110   107    1
   131   110   111    1
   132   180   179    1
   133   154   153    1
   134   109   108    2
   135   107   108    1
   136   179   178    1
   137   122   119    1
   138   175   178    1
   139   175   176    1
   140   153   147   am
   141   117   114    1
   142   143   142    1
   143   119   118    1
   144   119   120    1
   145   118   115   am
   146   151   150    1
   147   176   177    2
   148   202   201   ar
   149   202   200   ar
   150   147   148    2
   151   147   146    1
   152   149   150    1
   153   149   146    1
   154   152   150    1
   155   201   199   ar
   156   113   114    1
   157   114   115    1
   158   146   145    1
   159   115   116    2
   160   144   142    1
   161   200   198   ar
   162   142   139    1
   163   120   121    2
   164   199   196   ar
   165   129   128    1
   166   139   140    1
   167   139   138    1
   168   140   141    2
   169   128   125    1
   170   187   186    2
   171   198   196   ar
   172   198   197   ar
   173   136   135    1
   174   181   182    1
   175   137   135    1
   176   196   194   ar
   177   188   186   am
   178   186   185    1
   179   135   134    1
   180   197   195   ar
   181   125   124    1
   182   125   126    1
   183   185   182    1
   184   182   183    1
   185   134   131    1
   186   194   195   ar
   187   194   193    1
   188   184   183    2
   189   126   127    2
   190   131   132    1
   191   131   130    1
   192   193   190    1
   193   132   133    2
   194   190   191    1
   195   190   189    1
   196   191   192    2
