@<TRIPOS>MOLECULE
tmp/4qj1D01.pdb
 173 164 0 0 0
SMALL
GASTEIGER

@<TRIPOS>ATOM
      1  N         26.8610   27.6670    2.9680 N.3    50  SER50      -0.1202
      2  CA        26.2560   28.2650    4.1580 C.3    50  SER50       0.2020
      3  C         26.7490   29.6700    4.5180 C.2    50  SER50       0.2619
      4  O         27.9080   30.0090    4.2750 O.2    50  SER50      -0.2717
      5  CB        26.4990   27.3580    5.3540 C.3    50  SER50       0.2103
      6  OG        25.8330   26.1320    5.1700 O.3    50  SER50      -0.2182
      7  N         25.8720   30.4670    5.1310 N.am   51  ALA51      -0.1965
      8  CA        26.2340   31.7860    5.6400 C.3    51  ALA51       0.1728
      9  C         26.8510   31.6910    7.0390 C.2    51  ALA51       0.2616
     10  O         26.2320   32.0600    8.0310 O.2    51  ALA51      -0.2715
     11  CB        25.0190   32.7010    5.6580 C.3    51  ALA51       0.0334
     12  N         28.0830   31.1970    7.1040 N.am   52  MET52      -0.1977
     13  CA        28.7610   30.9520    8.3700 C.3    52  MET52       0.1605
     14  C         30.1860   31.4840    8.2830 C.2    52  MET52       0.2287
     15  O         30.8280   31.3570    7.2430 O.2    52  MET52      -0.2864
     16  CB        28.7620   29.4590    8.6710 C.3    52  MET52       0.0413
     17  CG        27.3720   28.9040    8.7990 C.3    52  MET52       0.0598
     18  SD        27.3300   27.1190    9.0070 S.3    52  MET52      -0.1393
     19  CE        27.8560   26.9650   10.7140 C.3    52  MET52       0.0692
     20  N         14.7040   30.3890    9.5990 N.3   151  ASN151     -0.1240
     21  CA        14.3500   29.0490    9.1520 C.3   151  ASN151      0.1653
     22  C         13.0210   28.5840    9.7240 C.2   151  ASN151      0.2266
     23  O         12.6200   28.9850   10.8240 O.2   151  ASN151     -0.2867
     24  CB        15.4100   27.9940    9.5170 C.3   151  ASN151      0.1155
     25  CG        16.6790   28.1380    8.7270 C.2   151  ASN151      0.2627
     26  OD1       16.7520   28.9870    7.8420 O.2   151  ASN151     -0.2716
     27  ND2       17.6040   27.1740    8.8890 N.am  151  ASN151     -0.0877
     28  N         13.6290   29.0310    3.5190 N.3   170  LYS170     -0.1245
     29  CA        14.6900   28.1360    3.9190 C.3   170  LYS170      0.1561
     30  C         14.2310   27.2660    5.0890 C.2   170  LYS170      0.2260
     31  O         13.7920   27.7560    6.1420 O.2   170  LYS170     -0.2867
     32  CB        15.9360   28.9000    4.3090 C.3   170  LYS170      0.0271
     33  CG        17.1410   28.0070    4.4440 C.3   170  LYS170      0.0035
     34  CD        18.2260   28.7480    5.1690 C.3   170  LYS170      0.0206
     35  CE        18.6920   29.9110    4.4450 C.3   170  LYS170      0.1093
     36  NZ        19.6310   30.4840    5.4040 N.3   170  LYS170     -0.1314
     37  N         14.8130   24.2800    7.9110 N.3   172  GLY172     -0.1225
     38  CA        15.6500   23.4640    8.7810 C.3   172  GLY172      0.1811
     39  C         15.8750   24.0050   10.1950 C.2   172  GLY172      0.2280
     40  O         16.5350   25.0420   10.3970 O.2   172  GLY172     -0.2866
     41  N         17.4100   22.5040   13.6910 N.3   174  GLY174     -0.1210
     42  CA        18.1580   21.4720   14.3850 C.3   174  GLY174      0.1940
     43  C         18.9340   20.4600   13.5660 C.2   174  GLY174      0.2454
     44  O         19.6710   19.6710   14.1220 O.2   174  GLY174     -0.2732
     45  N         18.7510   20.5140   12.1750 N.am  175  PRO175     -0.2717
     46  CA        19.4180   19.4170   11.4500 C.3   175  PRO175      0.1536
     47  C         20.9550   19.4650   11.3060 C.2   175  PRO175      0.2599
     48  O         21.5630   18.4270   11.1300 O.2   175  PRO175     -0.2715
     49  CB        18.6900   19.3670   10.1190 C.3   175  PRO175      0.0310
     50  CG        18.4120   20.7610    9.8180 C.3   175  PRO175      0.0237
     51  CD        18.0970   21.4190   11.1050 C.3   175  PRO175      0.0939
     52  N         21.5520   20.6450   11.3790 N.am  176  GLY176     -0.1941
     53  CA        22.9510   20.8390   11.0660 C.3   176  GLY176      0.2014
     54  C         23.9800   20.1620   11.9440 C.2   176  GLY176      0.2640
     55  O         23.7540   19.9270   13.1120 O.2   176  GLY176     -0.2714
     56  N         25.1180   19.8380   11.3470 N.am  177  SER177     -0.1935
     57  CA        26.1960   19.1250   12.0260 C.3   177  SER177      0.2055
     58  C         26.6180   19.7510   13.3620 C.2   177  SER177      0.2643
     59  O         26.8200   19.0490   14.3610 O.2   177  SER177     -0.2714
     60  CB        27.4000   19.0630   11.1050 C.3   177  SER177      0.2130
     61  OG        27.8500   20.3740   10.8360 O.3   177  SER177     -0.2179
     62  N         26.7670   21.0670   13.3650 N.am  178  ILE178     -0.1963
     63  CA        27.1680   21.8110   14.5590 C.3   178  ILE178      0.1727
     64  C         26.0150   22.3310   15.4370 C.2   178  ILE178      0.2616
     65  O         26.2420   23.1210   16.3710 O.2   178  ILE178     -0.2715
     66  CB        28.0590   22.9920   14.1410 C.3   178  ILE178      0.0290
     67  CG1       27.4490   23.6020   12.8770 C.3   178  ILE178      0.0022
     68  CG2       29.4960   22.5400   13.9050 C.3   178  ILE178      0.0023
     69  CD1       26.4220   24.6290   13.0960 C.3   178  ILE178      0.0001
     70  N         24.7940   21.8780   15.1400 N.am  179  CYS179     -0.1968
     71  CA        23.5970   22.3610   15.8230 C.3   179  CYS179      0.1712
     72  C         23.1780   21.5360   17.0330 C.2   179  CYS179      0.2296
     73  O         23.0680   20.3110   16.9520 O.2   179  CYS179     -0.2864
     74  CB        22.4230   22.4120   14.8530 C.3   179  CYS179      0.0983
     75  SG        20.8520   22.9580   15.6180 S.3   179  CYS179     -0.0798
     76  N         20.3090   22.7850   18.8620 N.3   181  THR181     -0.1218
     77  CA        18.9810   23.3420   19.1700 C.3   181  THR181      0.1862
     78  C         17.9740   22.3380   19.7260 C.2   181  THR181      0.2287
     79  O         17.2100   22.6560   20.6470 O.2   181  THR181     -0.2866
     80  CB        18.3360   23.9960   17.9290 C.3   181  THR181      0.1770
     81  OG1       19.1110   25.1370   17.5100 O.3   181  THR181     -0.2211
     82  CG2       16.9180   24.4260   18.2500 C.3   181  THR181      0.0375
     83  N         18.0600   23.2870    4.3200 N.3   212  ASP212     -0.1225
     84  CA        19.2090   23.8450    5.0500 C.3   212  ASP212      0.1805
     85  C         19.7250   22.9950    6.2180 C.2   212  ASP212      0.2598
     86  O         19.1550   23.0190    7.3090 O.2   212  ASP212     -0.2718
     87  CB        18.8550   25.2280    5.6060 C.3   212  ASP212      0.1424
     88  CG        20.0320   25.9010    6.2780 C.2   212  ASP212      0.3668
     89  OD1       21.1600   25.3610    6.1970 O.co2 212  ASP212     -0.2456
     90  OD2       19.8380   26.9490    6.9220 O.co2 212  ASP212     -0.2456
     91  N         20.8530   22.3190    6.0070 N.am  213  GLY213     -0.1942
     92  CA        21.4960   21.5730    7.0770 C.3   213  GLY213      0.2014
     93  C         21.1730   20.0970    7.0170 C.2   213  GLY213      0.2639
     94  O         20.1080   19.7050    6.5530 O.2   213  GLY213     -0.2714
     95  N         22.1040   19.2740    7.4790 N.am  214  GLY214     -0.1939
     96  CA        21.8650   17.8500    7.6220 C.3   214  GLY214      0.2014
     97  C         22.5250   17.0520    6.5210 C.2   214  GLY214      0.2638
     98  O         22.5990   15.8310    6.6130 O.2   214  GLY214     -0.2714
     99  N         22.9880   17.7270    5.4730 N.am  215  ILE215     -0.1977
    100  CA        23.6360   17.0460    4.3600 C.3   215  ILE215      0.1596
    101  C         24.9660   16.4300    4.7840 C.2   215  ILE215      0.2287
    102  O         25.9390   17.1370    5.0600 O.2   215  ILE215     -0.2864
    103  CB        23.8830   17.9870    3.1830 C.3   215  ILE215      0.0276
    104  CG1       22.5640   18.6130    2.7060 C.3   215  ILE215      0.0022
    105  CG2       24.5650   17.2420    2.0600 C.3   215  ILE215      0.0022
    106  CD1       21.5070   17.6160    2.2430 C.3   215  ILE215      0.0001
    107  N         21.3140   23.8480    1.1890 N.3   233  MET233     -0.1230
    108  CA        22.3850   24.6610    1.7370 C.3   233  MET233      0.1702
    109  C         23.3000   23.7580    2.5380 C.2   233  MET233      0.2592
    110  O         22.8370   22.9000    3.2830 O.2   233  MET233     -0.2718
    111  CB        21.8270   25.7940    2.5940 C.3   233  MET233      0.0401
    112  CG        22.8770   26.7130    3.2020 C.3   233  MET233      0.0596
    113  SD        22.1590   28.1300    4.0810 S.3   233  MET233     -0.1393
    114  CE        21.7700   29.2210    2.7210 C.3   233  MET233      0.0692
    115  N         24.6000   23.9630    2.3770 N.am  234  ILE234     -0.1966
    116  CA        25.6380   23.0720    2.9020 C.3   234  ILE234      0.1727
    117  C         26.7650   23.8120    3.6280 C.2   234  ILE234      0.2617
    118  O         27.3310   24.7900    3.1230 O.2   234  ILE234     -0.2715
    119  CB        26.2390   22.2220    1.7570 C.3   234  ILE234      0.0290
    120  CG1       25.2660   21.1130    1.3620 C.3   234  ILE234      0.0022
    121  CG2       27.6560   21.7270    2.0740 C.3   234  ILE234      0.0023
    122  CD1       25.7000   20.3550    0.1040 C.3   234  ILE234      0.0001
    123  N         27.0760   23.3350    4.8280 N.am  235  GLY235     -0.1940
    124  CA        28.1080   23.9330    5.6480 C.3   235  GLY235      0.2014
    125  C         29.3040   23.0210    5.8320 C.2   235  GLY235      0.2639
    126  O         30.3760   23.2430    5.2270 O.2   235  GLY235     -0.2714
    127  N         29.1170   21.9880    6.6540 N.am  236  SER236     -0.1949
    128  CA        30.2190   21.1370    7.0990 C.3   236  SER236      0.1924
    129  C         31.0470   20.5620    5.9500 C.2   236  SER236      0.2314
    130  O         32.2420   20.4000    6.0880 O.2   236  SER236     -0.2863
    131  CB        29.6880   19.9900    7.9730 C.3   236  SER236      0.2116
    132  OG        28.8520   19.1340    7.2190 O.3   236  SER236     -0.2180
    133  N         35.3130   24.6800   12.3880 N.3   259  TYR259     -0.1241
    134  CA        33.9470   24.8490   11.9230 C.3   259  TYR259      0.1605
    135  C         33.0120   24.9710   13.1260 C.2   259  TYR259      0.2264
    136  O         32.9240   24.0600   13.9420 O.2   259  TYR259     -0.2867
    137  CB        33.5540   23.6800   11.0000 C.3   259  TYR259      0.0534
    138  CG        32.1100   23.6890   10.5620 C.ar  259  TYR259     -0.0201
    139  CD1       31.6440   24.6900    9.7370 C.ar  259  TYR259     -0.0009
    140  CD2       31.2460   22.6530   10.8790 C.ar  259  TYR259     -0.0009
    141  CE1       30.3510   24.7210    9.2980 C.ar  259  TYR259      0.0417
    142  CE2       29.9170   22.6700   10.4350 C.ar  259  TYR259      0.0417
    143  CZ        29.4870   23.7230    9.6410 C.ar  259  TYR259      0.1957
    144  OH        28.2040   23.8220    9.1620 O.3   259  TYR259     -0.2866
    145  N         29.1360   26.7150   14.9120 N.3   261  GLY261     -0.1210
    146  CA        27.8210   27.2680   14.6550 C.3   261  GLY261      0.1956
    147  C         27.8660   28.7800   14.7650 C.2   261  GLY261      0.2612
    148  O         28.7920   29.3280   15.3640 O.2   261  GLY261     -0.2717
    149  N         26.8940   29.4720   14.1830 N.am  262  MET262     -0.1965
    150  CA        26.8660   30.9120   14.3480 C.3   262  MET262      0.1736
    151  C         26.2480   31.2270   15.7010 C.2   262  MET262      0.2617
    152  O         26.3640   32.3410   16.2070 O.2   262  MET262     -0.2715
    153  CB        26.1130   31.5700   13.1980 C.3   262  MET262      0.0427
    154  CG        26.8430   31.3890   11.8690 C.3   262  MET262      0.0599
    155  SD        28.4860   32.1660   11.8200 S.3   262  MET262     -0.1393
    156  CE        28.0070   33.8820   11.7550 C.3   262  MET262      0.0692
    157  N         25.6170   30.2160   16.2940 N.am  263  GLY263     -0.1955
    158  CA        25.0750   30.3160   17.6380 C.3   263  GLY263      0.1869
    159  C         26.0070   29.7160   18.6780 C.2   263  GLY263      0.2309
    160  O         25.5890   29.3920   19.7890 O.2   263  GLY263     -0.2863
    161  N         23.4660   27.4540   21.2640 N.3   276  GLU276     -0.1231
    162  CA        22.6990   26.4540   20.5150 C.3   276  GLU276      0.1699
    163  C         23.5210   25.8840   19.3670 C.2   276  GLU276      0.2592
    164  O         22.9860   25.2820   18.4310 O.2   276  GLU276     -0.2718
    165  CB        21.3780   27.0100   19.9690 C.3   276  GLU276      0.0402
    166  CG        20.3880   27.4350   21.0430 C.3   276  GLU276      0.1161
    167  CD        19.0000   27.7420   20.4950 C.2   276  GLU276      0.3649
    168  OE1       18.7860   27.6920   19.2580 O.co2 276  GLU276     -0.2457
    169  OE2       18.1120   28.0390   21.3160 O.co2 276  GLU276     -0.2457
    170  N         24.8280   26.0840   19.4470 N.am  277  GLY277     -0.1957
    171  CA        25.7710   25.4850   18.5250 C.3   277  GLY277      0.1869
    172  C         27.0490   25.1690   19.2800 C.2   277  GLY277      0.2309
    173  O         27.2060   25.5490   20.4440 O.2   277  GLY277     -0.2863
@<TRIPOS>BOND
     1   122   120    1
     2   107   108    1
     3   120   119    1
     4   108   109    1
     5   108   111    1
     6   119   121    1
     7   119   116    1
     8   105   103    1
     9   106   104    1
    10   115   109   am
    11   115   116    1
    12   109   110    2
    13   111   112    1
    14   104   103    1
    15   114   113    1
    16   116   117    1
    17     1     2    1
    18   118   117    2
    19   103   100    1
    20   112   113    1
    21    28    29    1
    22   117   123   am
    23    29    32    1
    24    29    30    1
    25     2     3    1
    26     2     5    1
    27     4     3    2
    28    32    33    1
    29    83    84    1
    30   100   101    1
    31   100    99    1
    32    33    34    1
    33    35    34    1
    34    35    36    1
    35     3     7   am
    36   101   102    2
    37   123   124    1
    38    84    87    1
    39    84    85    1
    40    30    31    2
    41     7     8    1
    42     6     5    1
    43   126   125    2
    44    99    97   am
    45    87    88    1
    46     8    11    1
    47     8     9    1
    48   124   125    1
    49   125   127   am
    50   129   130    2
    51   129   128    1
    52    91    85   am
    53    91    92    1
    54    89    88   ar
    55    85    86    2
    56    88    90   ar
    57    97    98    2
    58    97    96    1
    59    94    93    2
    60   127   128    1
    61    93    92    1
    62    93    95   am
    63     9    12   am
    64     9    10    2
    65   128   131    1
    66    12    13    1
    67   132   131    1
    68    15    14    2
    69    95    96    1
    70    26    25    2
    71    37    38    1
    72    14    13    1
    73    13    16    1
    74    16    17    1
    75    25    27   am
    76    25    24    1
    77    38    39    1
    78    17    18    1
    79    18    19    1
    80    21    24    1
    81    21    20    1
    82    21    22    1
    83   144   143    1
    84   141   143   ar
    85   141   139   ar
    86   143   142   ar
    87    22    23    2
    88   139   138   ar
    89    50    49    1
    90    50    51    1
    91    49    46    1
    92    39    40    2
    93   142   140   ar
    94   138   140   ar
    95   138   137    1
    96    61    60    1
    97   137   134    1
    98    53    52    1
    99    53    54    1
   100    51    45    1
   101    60    57    1
   102    48    47    2
   103    47    52   am
   104    47    46    1
   105    56    54   am
   106    56    57    1
   107    46    45    1
   108   156   155    1
   109   155   154    1
   110   154   153    1
   111   134   133    1
   112   134   135    1
   113    54    55    2
   114    57    58    1
   115    45    43   am
   116    67    69    1
   117    67    66    1
   118   135   136    2
   119   153   150    1
   120    58    62   am
   121    58    59    2
   122    62    63    1
   123    43    44    2
   124    43    42    1
   125    41    42    1
   126    68    66    1
   127    66    63    1
   128   149   150    1
   129   149   147   am
   130   150   151    1
   131    63    64    1
   132   146   147    1
   133   146   145    1
   134   147   148    2
   135    74    75    1
   136    74    71    1
   137    70    64   am
   138    70    71    1
   139    64    65    2
   140   151   152    2
   141   151   157   am
   142    71    72    1
   143   157   158    1
   144    73    72    2
   145    81    80    1
   146   158   159    1
   147    80    82    1
   148    80    77    1
   149   164   163    2
   150   171   172    1
   151   171   170    1
   152   159   160    2
   153    76    77    1
   154    77    78    1
   155   168   167   ar
   156   172   173    2
   157   163   170   am
   158   163   162    1
   159    78    79    2
   160   165   162    1
   161   165   166    1
   162   167   166    1
   163   167   169   ar
   164   162   161    1
