@<TRIPOS>MOLECULE
tmp/4qj1D02.pdb
 90 81 0 0 0
SMALL
GASTEIGER

@<TRIPOS>ATOM
      1  N         27.1010   37.2370    8.0460 N.3    75  LYS75      -0.1245
      2  CA        26.8610   38.5840    8.5410 C.3    75  LYS75       0.1561
      3  C         27.7130   38.9010    9.7610 C.2    75  LYS75       0.2260
      4  O         27.5170   39.9240   10.4160 O.2    75  LYS75      -0.2867
      5  CB        25.3870   38.7600    8.8810 C.3    75  LYS75       0.0271
      6  CG        24.8990   37.8890   10.0210 C.3    75  LYS75       0.0035
      7  CD        23.3900   37.9310   10.0510 C.3    75  LYS75       0.0206
      8  CE        22.7830   37.1220   11.1960 C.3    75  LYS75       0.1093
      9  NZ        22.9460   37.8060   12.4960 N.3    75  LYS75      -0.1314
     10  N         17.1160   33.7580   10.8770 N.3   124  SER124     -0.1202
     11  CA        16.7850   33.7070   12.2850 C.3   124  SER124      0.2020
     12  C         16.6910   32.2400   12.7230 C.2   124  SER124      0.2619
     13  O         16.3370   31.3640   11.9310 O.2   124  SER124     -0.2717
     14  CB        15.4710   34.4170   12.5610 C.3   124  SER124      0.2103
     15  OG        15.1340   34.3200   13.9310 O.3   124  SER124     -0.2182
     16  N         17.0050   31.9740   13.9820 N.am  125  ALA125     -0.1965
     17  CA        16.8190   30.6440   14.5190 C.3   125  ALA125      0.1728
     18  C         15.3240   30.2840   14.4850 C.2   125  ALA125      0.2616
     19  O         14.9590   29.1110   14.4420 O.2   125  ALA125     -0.2715
     20  CB        17.3750   30.5590   15.9340 C.3   125  ALA125      0.0334
     21  N         14.4610   31.3000   14.4840 N.am  126  HIS126     -0.1973
     22  CA        13.0340   31.0480   14.4110 C.3   126  HIS126      0.1656
     23  C         12.3870   31.9870   13.3830 C.2   126  HIS126      0.2291
     24  O         11.9030   33.0790   13.7280 O.2   126  HIS126     -0.2864
     25  CB        12.3810   31.2190   15.7860 C.3   126  HIS126      0.0771
     26  CG        10.9730   30.7120   15.8330 C.ar  126  HIS126      0.0820
     27  ND1       10.0820   31.0570   16.8320 N.ar  126  HIS126     -0.2267
     28  CD2       10.3140   29.8480   15.0200 C.ar  126  HIS126      0.1154
     29  CE1        8.9350   30.4320   16.6240 C.ar  126  HIS126      0.1986
     30  NE2        9.0490   29.6910   15.5320 N.ar  126  HIS126     -0.2212
     31  N          8.4710   34.3400   13.2140 N.3   129  SER129     -0.1217
     32  CA         8.2990   35.2390   14.3450 C.3   129  SER129      0.1889
     33  C          7.8790   36.6250   13.8930 C.2   129  SER129      0.2288
     34  O          8.0440   37.0050   12.7270 O.2   129  SER129     -0.2866
     35  CB         9.5760   35.3340   15.1930 C.3   129  SER129      0.2089
     36  OG        10.6240   35.9640   14.4780 O.3   129  SER129     -0.2183
     37  N         24.7940   21.8780   15.1400 N.3   179  CYS179     -0.1235
     38  CA        23.5970   22.3610   15.8230 C.3   179  CYS179      0.1677
     39  C         23.1780   21.5360   17.0330 C.2   179  CYS179      0.2270
     40  O         23.0680   20.3110   16.9520 O.2   179  CYS179     -0.2867
     41  CB        22.4230   22.4120   14.8530 C.3   179  CYS179      0.0956
     42  SG        20.8520   22.9580   15.6180 S.3   179  CYS179     -0.0801
     43  N         20.3090   22.7850   18.8620 N.3   181  THR181     -0.1218
     44  CA        18.9810   23.3420   19.1700 C.3   181  THR181      0.1862
     45  C         17.9740   22.3380   19.7260 C.2   181  THR181      0.2287
     46  O         17.2100   22.6560   20.6470 O.2   181  THR181     -0.2866
     47  CB        18.3360   23.9960   17.9290 C.3   181  THR181      0.1770
     48  OG1       19.1110   25.1370   17.5100 O.3   181  THR181     -0.2211
     49  CG2       16.9180   24.4260   18.2500 C.3   181  THR181      0.0375
     50  N         17.0320   23.2050   23.3520 N.3   185  ALA185     -0.1245
     51  CA        15.6490   23.6620   23.4330 C.3   185  ALA185      0.1562
     52  C         14.6430   22.5350   23.2250 C.2   185  ALA185      0.2260
     53  O         13.5060   22.6510   23.6610 O.2   185  ALA185     -0.2867
     54  CB        15.3980   24.7720   22.4460 C.3   185  ALA185      0.0290
     55  N         26.8940   29.4720   14.1830 N.3   262  MET262     -0.1230
     56  CA        26.8660   30.9120   14.3480 C.3   262  MET262      0.1702
     57  C         26.2480   31.2270   15.7010 C.2   262  MET262      0.2592
     58  O         26.3640   32.3410   16.2070 O.2   262  MET262     -0.2718
     59  CB        26.1130   31.5700   13.1980 C.3   262  MET262      0.0401
     60  CG        26.8430   31.3890   11.8690 C.3   262  MET262      0.0596
     61  SD        28.4860   32.1660   11.8200 S.3   262  MET262     -0.1393
     62  CE        28.0070   33.8820   11.7550 C.3   262  MET262      0.0692
     63  N         25.6170   30.2160   16.2940 N.am  263  GLY263     -0.1957
     64  CA        25.0750   30.3160   17.6380 C.3   263  GLY263      0.1869
     65  C         26.0070   29.7160   18.6780 C.2   263  GLY263      0.2309
     66  O         25.5890   29.3920   19.7890 O.2   263  GLY263     -0.2863
     67  N         29.3780   34.0920   18.7400 N.3   268  MET268     -0.1245
     68  CA        28.5390   35.1380   19.2940 C.3   268  MET268      0.1570
     69  C         29.3870   36.2390   19.9350 C.2   268  MET268      0.2261
     70  O         29.0250   37.4200   19.8940 O.2   268  MET268     -0.2867
     71  CB        27.5510   34.5420   20.2910 C.3   268  MET268      0.0387
     72  CG        26.5490   33.6030   19.6420 C.3   268  MET268      0.0595
     73  SD        25.3110   33.0170   20.8120 S.3   268  MET268     -0.1393
     74  CE        26.2890   31.8800   21.8070 C.3   268  MET268      0.0692
     75  N         23.5520   31.5870   26.2740 N.3   274  VAL274     -0.1245
     76  CA        23.2070   30.1530   26.1390 C.3   274  VAL274      0.1561
     77  C         23.3260   29.5190   24.7290 C.2   274  VAL274      0.2260
     78  O         22.4910   29.7340   23.8490 O.2   274  VAL274     -0.2867
     79  CB        21.7680   29.8920   26.6790 C.3   274  VAL274      0.0252
     80  CG1       20.7210   30.7540   25.9590 C.3   274  VAL274      0.0019
     81  CG2       21.4160   28.3970   26.5840 C.3   274  VAL274      0.0019
     82  N         23.4660   27.4540   21.2640 N.3   276  GLU276     -0.1245
     83  CA        22.6990   26.4540   20.5150 C.3   276  GLU276      0.1567
     84  C         23.5210   25.8840   19.3670 C.2   276  GLU276      0.2260
     85  O         22.9860   25.2820   18.4310 O.2   276  GLU276     -0.2867
     86  CB        21.3780   27.0100   19.9690 C.3   276  GLU276      0.0388
     87  CG        20.3880   27.4350   21.0430 C.3   276  GLU276      0.1160
     88  CD        19.0000   27.7420   20.4950 C.2   276  GLU276      0.3649
     89  OE1       18.7860   27.6920   19.2580 O.co2 276  GLU276     -0.2457
     90  OE2       18.1120   28.0390   21.3160 O.co2 276  GLU276     -0.2457
@<TRIPOS>BOND
     1     1     2    1
     2     2     5    1
     3     2     3    1
     4     5     6    1
     5     3     4    2
     6     6     7    1
     7     7     8    1
     8    10    11    1
     9     8     9    1
    10    62    61    1
    11    61    60    1
    12    60    59    1
    13    13    12    2
    14    11    14    1
    15    11    12    1
    16    14    15    1
    17    12    16   am
    18    34    33    2
    19    59    56    1
    20    31    32    1
    21    23    24    2
    22    23    22    1
    23    33    32    1
    24    16    17    1
    25    55    56    1
    26    32    35    1
    27    56    57    1
    28    22    21    1
    29    22    25    1
    30    19    18    2
    31    36    35    1
    32    21    18   am
    33    18    17    1
    34    17    20    1
    35    41    42    1
    36    41    38    1
    37    28    30   ar
    38    28    26   ar
    39    37    38    1
    40    30    29   ar
    41    57    58    2
    42    57    63   am
    43    25    26    1
    44    38    39    1
    45    26    27   ar
    46    63    64    1
    47    29    27   ar
    48    40    39    2
    49    48    47    1
    50    64    65    1
    51    47    49    1
    52    47    44    1
    53    85    84    2
    54    65    66    2
    55    67    68    1
    56    43    44    1
    57    44    45    1
    58    89    88   ar
    59    68    69    1
    60    68    71    1
    61    84    83    1
    62    72    71    1
    63    72    73    1
    64    45    46    2
    65    70    69    2
    66    86    83    1
    67    86    87    1
    68    88    87    1
    69    88    90   ar
    70    83    82    1
    71    73    74    1
    72    54    51    1
    73    52    51    1
    74    52    53    2
    75    50    51    1
    76    78    77    2
    77    77    76    1
    78    80    79    1
    79    76    75    1
    80    76    79    1
    81    81    79    1
