@<TRIPOS>MOLECULE
tmp/4qj4B00.pdb
 155 148 0 0 0
SMALL
GASTEIGER

@<TRIPOS>ATOM
      1  N         29.3810   27.9690   12.3650 N.3   317  HIS317     -0.1226
      2  CA        30.0260   29.2800   12.3680 C.3   317  HIS317      0.1752
      3  C         30.1990   29.7520   10.9290 C.2   317  HIS317      0.2596
      4  O         30.7020   29.0050   10.0890 O.2   317  HIS317     -0.2718
      5  CB        31.3930   29.2040   13.0550 C.3   317  HIS317      0.0759
      6  CG        32.2010   30.4610   12.9400 C.ar  317  HIS317      0.0818
      7  ND1       33.2900   30.5720   12.1010 N.ar  317  HIS317     -0.2268
      8  CD2       32.0760   31.6620   13.5530 C.ar  317  HIS317      0.1154
      9  CE1       33.8020   31.7860   12.2040 C.ar  317  HIS317      0.1986
     10  NE2       33.0840   32.4670   13.0790 N.ar  317  HIS317     -0.2212
     11  N         29.7950   30.9950   10.6610 N.am  318  ASN318     -0.1974
     12  CA        29.7920   31.5580    9.3070 C.3   318  ASN318      0.1688
     13  C         29.3420   30.5240    8.2860 C.2   318  ASN318      0.2292
     14  O         30.0890   30.1450    7.3790 O.2   318  ASN318     -0.2864
     15  CB        31.1650   32.1300    8.9450 C.3   318  ASN318      0.1181
     16  CG        31.4670   33.4220    9.6760 C.2   318  ASN318      0.2629
     17  OD1       30.9250   33.6850   10.7490 O.2   318  ASN318     -0.2716
     18  ND2       32.3360   34.2370    9.0960 N.am  318  ASN318     -0.0877
     19  N         37.8230   32.0100    4.4890 N.3   325  GLN325     -0.1245
     20  CA        37.2930   33.1620    5.2160 C.3   325  GLN325      0.1566
     21  C         37.5400   34.4480    4.4330 C.2   325  GLN325      0.2260
     22  O         36.6120   35.2160    4.1800 O.2   325  GLN325     -0.2867
     23  CB        37.9380   33.2640    6.6010 C.3   325  GLN325      0.0367
     24  CG        37.5910   32.1140    7.5390 C.3   325  GLN325      0.0905
     25  CD        36.1880   32.2140    8.1220 C.2   325  GLN325      0.2608
     26  OE1       35.7880   33.2610    8.6330 O.2   325  GLN325     -0.2717
     27  NE2       35.4390   31.1160    8.0620 N.am  325  GLN325     -0.0878
     28  N         24.7480   30.7160   11.5370 N.3   347  GLU347     -0.1245
     29  CA        25.1320   32.1150   11.6690 C.3   347  GLU347      0.1567
     30  C         24.8280   32.9000   10.3990 C.2   347  GLU347      0.2260
     31  O         24.9020   32.3580    9.2970 O.2   347  GLU347     -0.2867
     32  CB        26.6150   32.2280   12.0200 C.3   347  GLU347      0.0388
     33  CG        26.9980   33.5650   12.6390 C.3   347  GLU347      0.1160
     34  CD        28.4740   33.6670   12.9710 C.2   347  GLU347      0.3649
     35  OE1       29.1640   32.6260   12.9710 O.co2 347  GLU347     -0.2457
     36  OE2       28.9460   34.7910   13.2420 O.co2 347  GLU347     -0.2457
     37  N         25.9070   36.7460    8.9820 N.3   349  ASP349     -0.1239
     38  CA        26.5740   38.0500    9.0600 C.3   349  ASP349      0.1674
     39  C         25.8920   39.0430    8.1210 C.2   349  ASP349      0.2266
     40  O         26.3450   39.2560    6.9980 O.2   349  ASP349     -0.2867
     41  CB        28.0580   37.9250    8.6920 C.3   349  ASP349      0.1410
     42  CG        28.8410   37.0620    9.6650 C.2   349  ASP349      0.3668
     43  OD1       28.2620   36.1380   10.2730 O.co2 349  ASP349     -0.2456
     44  OD2       30.0550   37.3030    9.8110 O.co2 349  ASP349     -0.2456
     45  N         31.2770   38.0580    4.2850 N.3   364  HIS364     -0.1241
     46  CA        32.2940   38.1720    5.3310 C.3   364  HIS364      0.1621
     47  C         32.7560   39.6250    5.4720 C.2   364  HIS364      0.2264
     48  O         32.6280   40.4120    4.5340 O.2   364  HIS364     -0.2867
     49  CB        33.4700   37.2470    5.0050 C.3   364  HIS364      0.0745
     50  CG        34.3530   36.9420    6.1740 C.ar  364  HIS364      0.0817
     51  ND1       35.7230   36.8390    6.0630 N.ar  364  HIS364     -0.2268
     52  CD2       34.0640   36.7160    7.4770 C.ar  364  HIS364      0.1154
     53  CE1       36.2400   36.5620    7.2460 C.ar  364  HIS364      0.1986
     54  NE2       35.2540   36.4840    8.1210 N.ar  364  HIS364     -0.2212
     55  N         21.8810   32.5600   14.7490 N.3   396  SER396     -0.1202
     56  CA        22.9770   33.3690   15.2690 C.3   396  SER396      0.2020
     57  C         23.2740   34.5330   14.3320 C.2   396  SER396      0.2619
     58  O         24.0790   34.4160   13.4120 O.2   396  SER396     -0.2717
     59  CB        24.2310   32.5070   15.4670 C.3   396  SER396      0.2103
     60  OG        25.3470   33.3010   15.8330 O.3   396  SER396     -0.2182
     61  N         22.6200   35.6610   14.5720 N.am  397  PHE397     -0.1961
     62  CA        22.8670   36.8500   13.7690 C.3   397  PHE397      0.1771
     63  C         24.2120   37.4800   14.1030 C.2   397  PHE397      0.2619
     64  O         24.8160   37.1990   15.1390 O.2   397  PHE397     -0.2715
     65  CB        21.7510   37.8800   13.9580 C.3   397  PHE397      0.0574
     66  CG        20.5340   37.6050   13.1280 C.ar  397  PHE397     -0.0200
     67  CD1       19.5310   36.7700   13.5980 C.ar  397  PHE397     -0.0042
     68  CD2       20.3950   38.1740   11.8700 C.ar  397  PHE397     -0.0042
     69  CE1       18.4070   36.5120   12.8310 C.ar  397  PHE397     -0.0003
     70  CE2       19.2750   37.9200   11.0980 C.ar  397  PHE397     -0.0003
     71  CZ        18.2790   37.0870   11.5780 C.ar  397  PHE397     -0.0000
     72  N         24.6820   38.3090   13.1820 N.am  398  GLU398     -0.1977
     73  CA        25.7800   39.2300   13.4330 C.3   398  GLU398      0.1602
     74  C         25.4500   40.4840   12.6260 C.2   398  GLU398      0.2287
     75  O         26.0010   40.7270   11.5500 O.2   398  GLU398     -0.2864
     76  CB        27.1230   38.6170   13.0310 C.3   398  GLU398      0.0415
     77  CG        28.3290   39.4660   13.4080 C.3   398  GLU398      0.1163
     78  CD        29.5870   39.0760   12.6520 C.2   398  GLU398      0.3649
     79  OE1       29.7500   37.8780   12.3230 O.co2 398  GLU398     -0.2457
     80  OE2       30.4140   39.9740   12.3850 O.co2 398  GLU398     -0.2457
     81  N         25.0950   43.8920   10.9860 N.3   400  HIS400     -0.1241
     82  CA        25.7670   45.1410   10.6320 C.3   400  HIS400      0.1621
     83  C         24.8510   45.9570    9.7270 C.2   400  HIS400      0.2264
     84  O         25.2540   46.4180    8.6580 O.2   400  HIS400     -0.2867
     85  CB        27.1110   44.8770    9.9480 C.3   400  HIS400      0.0745
     86  CG        28.1220   44.2260   10.8360 C.ar  400  HIS400      0.0817
     87  ND1       28.6250   44.8390   11.9630 N.ar  400  HIS400     -0.2268
     88  CD2       28.7320   43.0200   10.7600 C.ar  400  HIS400      0.1154
     89  CE1       29.4950   44.0350   12.5470 C.ar  400  HIS400      0.1986
     90  NE2       29.5790   42.9250   11.8360 N.ar  400  HIS400     -0.2212
     91  N         18.9300   35.2690   17.6440 N.3   451  LYS451     -0.1245
     92  CA        19.8830   35.7260   18.6430 C.3   451  LYS451      0.1561
     93  C         20.5460   36.9900   18.1070 C.2   451  LYS451      0.2260
     94  O         21.4930   36.9240   17.3220 O.2   451  LYS451     -0.2867
     95  CB        20.9130   34.6350   18.9380 C.3   451  LYS451      0.0271
     96  CG        21.8900   34.9810   20.0530 C.3   451  LYS451      0.0035
     97  CD        23.2600   35.3770   19.5330 C.3   451  LYS451      0.0206
     98  CE        24.0640   34.1570   19.1120 C.3   451  LYS451      0.1093
     99  NZ        25.4430   34.5180   18.6780 N.3   451  LYS451     -0.1314
    100  N         21.5030   41.4250   18.9420 N.3   453  LYS453     -0.1245
    101  CA        21.8000   42.4270   19.9610 C.3   453  LYS453      0.1561
    102  C         20.6250   43.3790   20.1460 C.2   453  LYS453      0.2260
    103  O         19.8030   43.5340   19.2450 O.2   453  LYS453     -0.2867
    104  CB        23.0620   43.2050   19.5870 C.3   453  LYS453      0.0271
    105  CG        24.3050   42.3330   19.4940 C.3   453  LYS453      0.0035
    106  CD        25.5770   43.1620   19.4210 C.3   453  LYS453      0.0206
    107  CE        26.8110   42.2930   19.6040 C.3   453  LYS453      0.1093
    108  NZ        28.0520   43.1090   19.7160 N.3   453  LYS453     -0.1314
    109  N         22.0250   37.9910   23.6240 N.3   466  PRO466     -0.2116
    110  CA        23.4680   37.9870   23.8280 C.3   466  PRO466      0.1372
    111  C         23.8990   39.1800   24.6720 C.2   466  PRO466      0.2244
    112  O         23.3490   40.2700   24.5150 O.2   466  PRO466     -0.2868
    113  CB        24.0210   38.1010   22.4070 C.3   466  PRO466      0.0268
    114  CG        22.9700   38.8360   21.6490 C.3   466  PRO466      0.0207
    115  CD        21.6520   38.5300   22.3020 C.3   466  PRO466      0.0892
    116  N         28.6620   34.8450   23.7410 N.3   486  SER486     -0.1217
    117  CA        29.5240   34.1340   22.8040 C.3   486  SER486      0.1889
    118  C         30.9760   34.3320   23.2190 C.2   486  SER486      0.2288
    119  O         31.3070   35.3240   23.8620 O.2   486  SER486     -0.2866
    120  CB        29.3070   34.6370   21.3740 C.3   486  SER486      0.2089
    121  OG        28.0220   34.2810   20.8860 O.3   486  SER486     -0.2183
    122  N         27.9930   30.3650   23.6420 N.3   513  ARG513     -0.1245
    123  CA        28.3430   30.0580   22.2650 C.3   513  ARG513      0.1563
    124  C         29.8360   30.2540   22.0820 C.2   513  ARG513      0.2260
    125  O         30.4270   31.1510   22.6770 O.2   513  ARG513     -0.2867
    126  CB        27.5700   30.9400   21.2890 C.3   513  ARG513      0.0307
    127  CG        27.9520   30.7120   19.8350 C.3   513  ARG513      0.0489
    128  CD        26.8240   31.0830   18.8890 C.3   513  ARG513      0.2205
    129  NE        27.1870   30.8650   17.4890 N.pl3 513  ARG513     -0.0865
    130  CZ        27.9620   31.6730   16.7640 C.cat 513  ARG513      0.5346
    131  NH1       28.4860   32.7810   17.2890 N.pl3 513  ARG513      0.1354
    132  NH2       28.2190   31.3680   15.4960 N.pl3 513  ARG513      0.1354
    133  N         33.0450   30.1770   19.0570 N.3   515  TYR515     -0.1228
    134  CA        33.4150   30.1690   17.6480 C.3   515  TYR515      0.1721
    135  C         34.9320   30.1910   17.4900 C.2   515  TYR515      0.2437
    136  O         35.6430   30.4890   18.4470 O.2   515  TYR515     -0.2733
    137  CB        32.7620   31.3440   16.9130 C.3   515  TYR515      0.0547
    138  CG        33.0490   32.7050   17.4960 C.ar  515  TYR515     -0.0200
    139  CD1       32.2770   33.2150   18.5310 C.ar  515  TYR515     -0.0009
    140  CD2       34.0760   33.4960   16.9910 C.ar  515  TYR515     -0.0009
    141  CE1       32.5300   34.4690   19.0610 C.ar  515  TYR515      0.0417
    142  CE2       34.3370   34.7510   17.5120 C.ar  515  TYR515      0.0417
    143  CZ        33.5640   35.2310   18.5490 C.ar  515  TYR515      0.1957
    144  OH        33.8120   36.4760   19.0720 O.3   515  TYR515     -0.2866
    145  N         35.4350   29.8620   16.2850 N.am  516  PRO516     -0.2729
    146  CA        36.8820   29.7670   16.1010 C.3   516  PRO516      0.1401
    147  C         37.5420   31.1350   16.0330 C.2   516  PRO516      0.2269
    148  O         36.8930   32.1130   15.6640 O.2   516  PRO516     -0.2865
    149  CB        37.0290   29.0370   14.7510 C.3   516  PRO516      0.0296
    150  CG        35.6480   28.6530   14.3210 C.3   516  PRO516      0.0237
    151  CD        34.7190   29.5830   15.0310 C.3   516  PRO516      0.0939
    152  N         39.7370   34.2970   14.7660 N.3   518  GLY518     -0.1225
    153  CA        39.7800   34.9590   13.4600 C.3   518  GLY518      0.1811
    154  C         40.9900   34.6120   12.6090 C.2   518  GLY518      0.2280
    155  O         40.9530   34.7550   11.3890 O.2   518  GLY518     -0.2866
@<TRIPOS>BOND
     1    22    21    2
     2    45    46    1
     3    21    20    1
     4    19    20    1
     5    48    47    2
     6    49    46    1
     7    49    50    1
     8    20    23    1
     9    46    47    1
    10    51    50   ar
    11    51    53   ar
    12    50    52   ar
    13    23    24    1
    14    40    39    2
    15    53    54   ar
    16    14    13    2
    17    52    54   ar
    18    24    25    1
    19    27    25   am
    20    39    38    1
    21    25    26    2
    22    13    12    1
    23    84    83    2
    24    41    38    1
    25    41    42    1
    26    15    12    1
    27    15    16    1
    28    37    38    1
    29    18    16   am
    30    31    30    2
    31    12    11    1
    32    42    44   ar
    33    42    43   ar
    34    16    17    2
    35    83    82    1
    36    85    82    1
    37    85    86    1
    38     4     3    2
    39    30    29    1
    40    82    81    1
    41    11     3   am
    42    88    86   ar
    43    88    90   ar
    44    86    87   ar
    45     3     2    1
    46    70    71   ar
    47    70    68   ar
    48   155   154    2
    49    28    29    1
    50    75    74    2
    51    71    69   ar
    52    29    32    1
    53    90    89   ar
    54    68    66   ar
    55    87    89   ar
    56    32    33    1
    57     7     9   ar
    58     7     6   ar
    59     9    10   ar
    60    79    78   ar
    61     1     2    1
    62     2     5    1
    63    80    78   ar
    64   154   153    1
    65    74    73    1
    66    33    34    1
    67    78    77    1
    68    69    67   ar
    69     6     5    1
    70     6     8   ar
    71    34    35   ar
    72    34    36   ar
    73    76    77    1
    74    76    73    1
    75    10     8   ar
    76    66    67   ar
    77    66    65    1
    78    72    73    1
    79    72    63   am
    80    58    57    2
    81   153   152    1
    82    62    65    1
    83    62    63    1
    84    62    61    1
    85    63    64    2
    86   150   149    1
    87   150   151    1
    88    57    61   am
    89    57    56    1
    90    55    56    1
    91   149   146    1
    92   151   145    1
    93    56    59    1
    94    59    60    1
    95   132   130    1
    96   148   147    2
    97   147   146    1
    98   146   145    1
    99   145   135   am
   100   130   131    1
   101   130   129    2
   102   137   138    1
   103   137   134    1
   104   140   138   ar
   105   140   142   ar
   106    94    93    2
   107   129   128    1
   108   135   134    1
   109   135   136    2
   110   138   139   ar
   111   142   143   ar
   112    91    92    1
   113   134   133    1
   114    93    92    1
   115   139   141   ar
   116   143   141   ar
   117   143   144    1
   118    92    95    1
   119    99    98    1
   120   128   127    1
   121    95    96    1
   122   100   101    1
   123    98    97    1
   124   103   102    2
   125   106   105    1
   126   106   107    1
   127   105   104    1
   128    97    96    1
   129   104   101    1
   130   107   108    1
   131   127   126    1
   132   101   102    1
   133   121   120    1
   134   126   123    1
   135   120   117    1
   136   114   115    1
   137   114   113    1
   138   124   123    1
   139   124   125    2
   140   123   122    1
   141   115   109    1
   142   113   110    1
   143   117   118    1
   144   117   116    1
   145   118   119    2
   146   109   110    1
   147   110   111    1
   148   112   111    2
