@<TRIPOS>MOLECULE
tmp/4qjcA01.pdb
 145 140 0 0 0
SMALL
GASTEIGER

@<TRIPOS>ATOM
      1  N         -0.4030  -25.2100  -24.3170 N.3     7  ILE7       -0.1231
      2  CA        -0.8050  -24.2320  -23.3240 C.3     7  ILE7        0.1692
      3  C         -2.1160  -23.5690  -23.8680 C.2     7  ILE7        0.2592
      4  O         -2.1780  -23.2840  -25.0400 O.2     7  ILE7       -0.2718
      5  CB         0.3110  -23.2290  -22.9480 C.3     7  ILE7        0.0266
      6  CG1       -0.1620  -22.2950  -21.8190 C.3     7  ILE7        0.0019
      7  CG2        0.8830  -22.5190  -24.1930 C.3     7  ILE7        0.0020
      8  CD1        0.9610  -21.4640  -21.1570 C.3     7  ILE7        0.0001
      9  N         -3.1190  -23.4350  -23.0030 N.am    8  VAL8       -0.1966
     10  CA        -4.4070  -22.8830  -23.4550 C.3     8  VAL8        0.1727
     11  C         -5.0470  -22.1920  -22.2350 C.2     8  VAL8        0.2616
     12  O         -4.7380  -22.5240  -21.0790 O.2     8  VAL8       -0.2715
     13  CB        -5.2980  -24.0540  -23.9710 C.3     8  VAL8        0.0290
     14  CG1       -5.6970  -24.9800  -22.7910 C.3     8  VAL8        0.0023
     15  CG2       -6.4240  -23.4140  -24.7630 C.3     8  VAL8        0.0023
     16  N         -5.8960  -21.2330  -22.5230 N.am    9  ALA9       -0.1977
     17  CA        -6.8560  -20.7110  -21.4960 C.3     9  ALA9        0.1597
     18  C         -8.2490  -21.0590  -22.0470 C.2     9  ALA9        0.2287
     19  O         -8.4960  -20.8270  -23.2520 O.2     9  ALA9       -0.2864
     20  CB        -6.6610  -19.2200  -21.3820 C.3     9  ALA9        0.0319
     21  N        -11.8260  -14.9780  -33.8220 N.3    20  GLY20      -0.1210
     22  CA       -10.3810  -14.6980  -33.8790 C.3    20  GLY20       0.1956
     23  C         -9.9230  -13.7950  -32.7380 C.2    20  GLY20       0.2612
     24  O         -8.8570  -13.2210  -32.8340 O.2    20  GLY20      -0.2717
     25  N        -10.7210  -13.6850  -31.6710 N.am   21  ASP21      -0.1959
     26  CA       -10.3050  -13.0610  -30.4350 C.3    21  ASP21       0.1840
     27  C        -10.5750  -14.0300  -29.2940 C.2    21  ASP21       0.2621
     28  O        -11.0980  -15.1400  -29.5280 O.2    21  ASP21      -0.2715
     29  CB       -11.0980  -11.7930  -30.2200 C.3    21  ASP21       0.1450
     30  CG       -10.3000  -10.7030  -29.5950 C.2    21  ASP21       0.3671
     31  OD1       -9.4120  -10.9520  -28.7270 O.co2  21  ASP21      -0.2456
     32  OD2      -10.5930   -9.5630  -30.0150 O.co2  21  ASP21      -0.2456
     33  N        -10.1470  -13.6540  -28.0920 N.am   22  LEU22      -0.1977
     34  CA       -10.5270  -14.4390  -26.9030 C.3    22  LEU22       0.1596
     35  C        -12.0110  -14.1860  -26.5320 C.2    22  LEU22       0.2287
     36  O        -12.5720  -13.0880  -26.8030 O.2    22  LEU22      -0.2864
     37  CB        -9.5610  -14.1830  -25.7250 C.3    22  LEU22       0.0297
     38  CG        -8.0660  -14.5330  -26.0200 C.3    22  LEU22       0.0022
     39  CD1       -7.2670  -14.2170  -24.7880 C.3    22  LEU22       0.0001
     40  CD2       -7.8160  -15.9030  -26.6100 C.3    22  LEU22       0.0001
     41  N         -2.9660  -13.1050  -16.9840 N.3    30  GLU30      -0.1231
     42  CA        -3.0570  -14.3990  -17.6650 C.3    30  GLU30       0.1699
     43  C         -2.1680  -14.4210  -18.8900 C.2    30  GLU30       0.2592
     44  O         -1.4620  -15.3610  -19.1670 O.2    30  GLU30      -0.2718
     45  CB        -4.4960  -14.7220  -17.9390 C.3    30  GLU30       0.0402
     46  CG        -4.7700  -16.2340  -18.0540 C.3    30  GLU30       0.1161
     47  CD        -4.1950  -16.9340  -19.3060 C.2    30  GLU30       0.3649
     48  OE1       -3.7040  -18.0840  -19.1280 O.co2  30  GLU30      -0.2457
     49  OE2       -4.2500  -16.4480  -20.4680 O.co2  30  GLU30      -0.2457
     50  N         -2.1610  -13.3150  -19.6110 N.am   31  PHE31      -0.1976
     51  CA        -1.3430  -13.2350  -20.7620 C.3    31  PHE31       0.1639
     52  C          0.1530  -13.2210  -20.3280 C.2    31  PHE31       0.2290
     53  O          1.0280  -13.8120  -21.0040 O.2    31  PHE31      -0.2864
     54  CB        -1.6640  -11.9420  -21.5840 C.3    31  PHE31       0.0560
     55  CG        -0.9940  -11.9620  -22.8980 C.ar   31  PHE31      -0.0200
     56  CD1       -1.2200  -13.0530  -23.7720 C.ar   31  PHE31      -0.0042
     57  CD2       -0.0180  -10.9900  -23.2450 C.ar   31  PHE31      -0.0042
     58  CE1       -0.5320  -13.1520  -24.9950 C.ar   31  PHE31      -0.0003
     59  CE2        0.6570  -11.0940  -24.4740 C.ar   31  PHE31      -0.0003
     60  CZ         0.3820  -12.1730  -25.3560 C.ar   31  PHE31      -0.0000
     61  N          1.3480  -14.7110  -17.8330 N.3    33  TYR33      -0.1227
     62  CA         1.6860  -16.1210  -17.4810 C.3    33  TYR33       0.1736
     63  C          1.9970  -16.8920  -18.7890 C.2    33  TYR33       0.2595
     64  O          2.9860  -17.6400  -18.8650 O.2    33  TYR33      -0.2718
     65  CB         0.4900  -16.7220  -16.7990 C.3    33  TYR33       0.0548
     66  CG         0.5810  -18.2490  -16.6150 C.ar   33  TYR33      -0.0200
     67  CD1        1.3310  -18.7870  -15.5710 C.ar   33  TYR33      -0.0009
     68  CD2       -0.0980  -19.1030  -17.4440 C.ar   33  TYR33      -0.0009
     69  CE1        1.4150  -20.1730  -15.3970 C.ar   33  TYR33       0.0417
     70  CE2       -0.0330  -20.5070  -17.2400 C.ar   33  TYR33       0.0417
     71  CZ         0.7550  -20.9820  -16.2220 C.ar   33  TYR33       0.1957
     72  OH         0.8440  -22.3380  -15.9590 O.3    33  TYR33      -0.2866
     73  N          1.1430  -16.7200  -19.8040 N.am   34  PHE34      -0.1976
     74  CA         1.3460  -17.3610  -21.0820 C.3    34  PHE34       0.1639
     75  C          2.7470  -17.0120  -21.6570 C.2    34  PHE34       0.2290
     76  O          3.5110  -17.9110  -22.0940 O.2    34  PHE34      -0.2864
     77  CB         0.2690  -16.9250  -22.0930 C.3    34  PHE34       0.0560
     78  CG         0.6490  -17.2360  -23.5360 C.ar   34  PHE34      -0.0200
     79  CD1        0.5260  -18.5800  -24.0360 C.ar   34  PHE34      -0.0042
     80  CD2        1.1700  -16.2600  -24.4060 C.ar   34  PHE34      -0.0042
     81  CE1        0.8300  -18.9070  -25.3440 C.ar   34  PHE34      -0.0003
     82  CE2        1.5000  -16.6100  -25.7050 C.ar   34  PHE34      -0.0003
     83  CZ         1.3230  -17.8950  -26.2050 C.ar   34  PHE34      -0.0000
     84  N         -4.5000  -18.7580  -35.4110 N.3    56  THR56      -0.1218
     85  CA        -3.9180  -18.2490  -34.1410 C.3    56  THR56       0.1862
     86  C         -2.8320  -17.1800  -34.3480 C.2    56  THR56       0.2287
     87  O         -2.7990  -16.1640  -33.6330 O.2    56  THR56      -0.2866
     88  CB        -3.3550  -19.4620  -33.3520 C.3    56  THR56       0.1770
     89  OG1       -4.4480  -20.3650  -33.0340 O.3    56  THR56      -0.2211
     90  CG2       -2.6750  -19.0050  -32.0870 C.3    56  THR56       0.0375
     91  N         -4.3750  -13.9250  -35.0110 N.3    59  SER59      -0.1202
     92  CA        -5.1230  -13.4350  -33.8850 C.3    59  SER59       0.2020
     93  C         -4.2270  -12.6810  -32.8410 C.2    59  SER59       0.2619
     94  O         -4.7000  -11.9640  -31.9100 O.2    59  SER59      -0.2717
     95  CB        -5.8560  -14.6440  -33.2330 C.3    59  SER59       0.2103
     96  OG        -4.9400  -15.3530  -32.4200 O.3    59  SER59      -0.2182
     97  N         -2.9160  -12.7810  -33.0420 N.am   60  ILE60      -0.1966
     98  CA        -1.9610  -12.1100  -32.1240 C.3    60  ILE60       0.1712
     99  C         -1.7670  -10.7290  -32.7190 C.2    60  ILE60       0.2458
    100  O         -1.6800  -10.5910  -33.9230 O.2    60  ILE60      -0.2730
    101  CB        -0.5910  -12.8710  -32.1050 C.3    60  ILE60       0.0289
    102  CG1       -0.8120  -14.2240  -31.5020 C.3    60  ILE60       0.0022
    103  CG2        0.3430  -12.1010  -31.1490 C.3    60  ILE60       0.0023
    104  CD1        0.3550  -15.1920  -31.7500 C.3    60  ILE60       0.0001
    105  N         -1.8590   -9.6960  -31.8720 N.am   61  PRO61      -0.2727
    106  CA        -1.7630   -8.3670  -32.4490 C.3    61  PRO61       0.1402
    107  C         -0.3760   -8.2350  -33.0770 C.2    61  PRO61       0.2269
    108  O          0.6140   -8.7050  -32.4770 O.2    61  PRO61      -0.2865
    109  CB        -1.9470   -7.4410  -31.2400 C.3    61  PRO61       0.0296
    110  CG        -2.6820   -8.2530  -30.1920 C.3    61  PRO61       0.0237
    111  CD        -2.4000   -9.7110  -30.4990 C.3    61  PRO61       0.0939
    112  N          2.6250   -7.7420  -31.3220 N.3    64  ASN64      -0.1240
    113  CA         3.1600   -8.8000  -30.4460 C.3    64  ASN64       0.1653
    114  C          3.7410   -9.9690  -31.2310 C.2    64  ASN64       0.2266
    115  O          4.0900  -10.9660  -30.6240 O.2    64  ASN64      -0.2867
    116  CB         2.0800   -9.3200  -29.4740 C.3    64  ASN64       0.1155
    117  CG         1.5820   -8.2650  -28.4800 C.2    64  ASN64       0.2627
    118  OD1        2.2710   -7.9350  -27.5240 O.2    64  ASN64      -0.2716
    119  ND2        0.3480   -7.7740  -28.6800 N.am   64  ASN64      -0.0877
    120  N          0.3290  -23.7440  -29.1680 N.3   115  VAL115     -0.1245
    121  CA        -0.6190  -22.7380  -28.7060 C.3   115  VAL115      0.1561
    122  C         -1.8310  -22.6610  -29.6290 C.2   115  VAL115      0.2260
    123  O         -2.0660  -21.6430  -30.2810 O.2   115  VAL115     -0.2867
    124  CB         0.0370  -21.3470  -28.6070 C.3   115  VAL115      0.0252
    125  CG1        1.1890  -21.3740  -27.6140 C.3   115  VAL115      0.0019
    126  CG2        0.5140  -20.8880  -29.9760 C.3   115  VAL115      0.0019
    127  N         -4.1850  -28.5510  -31.2140 N.3   121  TYR121     -0.1241
    128  CA        -4.3840  -29.1790  -29.8510 C.3   121  TYR121      0.1605
    129  C         -4.8880  -30.6510  -29.9740 C.2   121  TYR121      0.2264
    130  O         -4.3410  -31.5650  -29.3140 O.2   121  TYR121     -0.2867
    131  CB        -5.3630  -28.3900  -29.0150 C.3   121  TYR121      0.0534
    132  CG        -4.9630  -27.0200  -28.5620 C.ar  121  TYR121     -0.0201
    133  CD1       -3.6940  -26.8230  -27.9630 C.ar  121  TYR121     -0.0009
    134  CD2       -5.8920  -25.9550  -28.6250 C.ar  121  TYR121     -0.0009
    135  CE1       -3.3510  -25.5840  -27.4250 C.ar  121  TYR121      0.0417
    136  CE2       -5.5520  -24.6790  -28.1550 C.ar  121  TYR121      0.0417
    137  CZ        -4.2840  -24.5320  -27.5520 C.ar  121  TYR121      0.1957
    138  OH        -3.9730  -23.2610  -27.0250 O.3   121  TYR121     -0.2866
    139  N         -5.3370  -22.9840  -18.3240 N.3   136  THR136     -0.1218
    140  CA        -5.9110  -21.9680  -17.3720 C.3   136  THR136      0.1862
    141  C         -7.4130  -22.1310  -17.4540 C.2   136  THR136      0.2287
    142  O         -7.9840  -22.0450  -18.5700 O.2   136  THR136     -0.2866
    143  CB        -5.5360  -20.5390  -17.7780 C.3   136  THR136      0.1770
    144  OG1       -4.1120  -20.4220  -17.8510 O.3   136  THR136     -0.2211
    145  CG2       -6.1840  -19.5300  -16.7990 C.3   136  THR136      0.0375
@<TRIPOS>BOND
     1    84    85    1
     2    91    92    1
     3    86    85    1
     4    86    87    2
     5    85    88    1
     6   100    99    2
     7    92    95    1
     8    92    93    1
     9    22    21    1
    10    22    23    1
    11    88    89    1
    12    88    90    1
    13    95    96    1
    14   107   108    2
    15   107   106    1
    16    97    93   am
    17    97    98    1
    18    93    94    2
    19    24    23    2
    20    23    25   am
    21    99    98    1
    22    99   105   am
    23   106   105    1
    24   106   109    1
    25    98   101    1
    26   101   102    1
    27   101   103    1
    28   105   111    1
    29   104   102    1
    30    25    26    1
    31   112   113    1
    32   109   110    1
    33   114   115    2
    34   114   113    1
    35   127   128    1
    36   111   110    1
    37   113   116    1
    38    26    29    1
    39    26    27    1
    40   123   122    2
    41    29    30    1
    42    32    30   ar
    43   126   124    1
    44   129   128    1
    45   129   130    2
    46   128   131    1
    47   122   121    1
    48    30    31   ar
    49    28    27    2
    50   116   117    1
    51    27    33   am
    52   120   121    1
    53   131   132    1
    54   121   124    1
    55   119   117   am
    56   134   132   ar
    57   134   136   ar
    58   124   125    1
    59   132   133   ar
    60   117   118    2
    61   136   137   ar
    62    33    34    1
    63   133   135   ar
    64   137   135   ar
    65   137   138    1
    66    34    35    1
    67    34    37    1
    68    36    35    2
    69    40    38    1
    70    83    82   ar
    71    83    81   ar
    72    38    37    1
    73    38    39    1
    74    82    80   ar
    75    60    58   ar
    76    60    59   ar
    77    81    79   ar
    78     4     3    2
    79    58    56   ar
    80    15    13    1
    81    59    57   ar
    82    80    78   ar
    83     1     2    1
    84     7     5    1
    85    79    78   ar
    86    13    10    1
    87    13    14    1
    88     3     2    1
    89     3     9   am
    90    56    55   ar
    91    78    77    1
    92    10     9    1
    93    10    11    1
    94     2     5    1
    95    19    18    2
    96    57    55   ar
    97     5     6    1
    98    55    54    1
    99    16    11   am
   100    16    17    1
   101    11    12    2
   102    76    75    2
   103    77    74    1
   104    18    17    1
   105     6     8    1
   106    75    74    1
   107    54    51    1
   108    17    20    1
   109    74    73    1
   110    53    52    2
   111    51    52    1
   112    51    50    1
   113    49    47   ar
   114    73    63   am
   115    50    43   am
   116    47    48   ar
   117    47    46    1
   118    44    43    2
   119    43    42    1
   120    64    63    2
   121    63    62    1
   122   142   141    2
   123   139   140    1
   124    46    45    1
   125    45    42    1
   126   144   143    1
   127    61    62    1
   128   143   140    1
   129   143   145    1
   130    42    41    1
   131    62    65    1
   132   141   140    1
   133    68    70   ar
   134    68    66   ar
   135    70    71   ar
   136    65    66    1
   137    66    67   ar
   138    71    72    1
   139    71    69   ar
   140    67    69   ar
