@<TRIPOS>MOLECULE
tmp/4qjgA00.pdb
 146 139 0 0 0
SMALL
GASTEIGER

@<TRIPOS>ATOM
      1  N        -31.2940   17.9150  -46.1910 N.3   143  GLY143     -0.1210
      2  CA       -32.1890   18.7190  -45.4360 C.3   143  GLY143      0.1956
      3  C        -31.8560   20.1740  -45.6310 C.2   143  GLY143      0.2612
      4  O        -31.2890   20.5540  -46.6330 O.2   143  GLY143     -0.2717
      5  N        -32.0850   20.9840  -44.6050 N.am  144  SER144     -0.1952
      6  CA       -31.8420   22.4450  -44.7070 C.3   144  SER144      0.1924
      7  C        -30.4030   22.8990  -45.0470 C.2   144  SER144      0.2314
      8  O        -30.1890   24.0930  -45.3290 O.2   144  SER144     -0.2863
      9  CB       -32.3520   23.1080  -43.4110 C.3   144  SER144      0.2116
     10  OG       -33.6970   22.6190  -43.0880 O.3   144  SER144     -0.2180
     11  N        -44.3800   22.6630  -44.2510 N.3   179  HIS179     -0.1241
     12  CA       -44.4180   23.1160  -42.8800 C.3   179  HIS179      0.1621
     13  C        -43.0650   23.5080  -42.3110 C.2   179  HIS179      0.2264
     14  O        -42.0340   22.9200  -42.6860 O.2   179  HIS179     -0.2867
     15  CB       -44.9940   22.0130  -41.9880 C.3   179  HIS179      0.0745
     16  CG       -44.1490   20.7830  -41.8880 C.ar  179  HIS179      0.0817
     17  ND1      -44.3310   19.6790  -42.6970 N.ar  179  HIS179     -0.2268
     18  CD2      -43.1440   20.4590  -41.0330 C.ar  179  HIS179      0.1154
     19  CE1      -43.4480   18.7450  -42.3740 C.ar  179  HIS179      0.1986
     20  NE2      -42.7230   19.1900  -41.3610 N.ar  179  HIS179     -0.2212
     21  N        -40.5530   23.6740  -39.0800 N.3   181  TYR181     -0.1241
     22  CA       -40.3480   22.7710  -37.9860 C.3   181  TYR181      0.1605
     23  C        -41.2500   23.2150  -36.8180 C.2   181  TYR181      0.2264
     24  O        -41.3590   24.4090  -36.5270 O.2   181  TYR181     -0.2867
     25  CB       -38.8980   22.8110  -37.5660 C.3   181  TYR181      0.0534
     26  CG       -38.5990   21.9810  -36.3410 C.ar  181  TYR181     -0.0201
     27  CD1      -38.7510   20.6020  -36.3540 C.ar  181  TYR181     -0.0009
     28  CD2      -38.1140   22.5710  -35.1880 C.ar  181  TYR181     -0.0009
     29  CE1      -38.4620   19.8330  -35.2210 C.ar  181  TYR181      0.0417
     30  CE2      -37.8060   21.8170  -34.0630 C.ar  181  TYR181      0.0417
     31  CZ       -37.9730   20.4440  -34.0880 C.ar  181  TYR181      0.1957
     32  OH       -37.6570   19.6940  -32.9710 O.3   181  TYR181     -0.2866
     33  N        -33.0770   31.1660  -39.3140 N.3   196  ARG196     -0.1231
     34  CA       -33.9880   30.3520  -38.4990 C.3   196  ARG196      0.1694
     35  C        -34.4180   29.0640  -39.2250 C.2   196  ARG196      0.2592
     36  O        -35.1590   28.2470  -38.6550 O.2   196  ARG196     -0.2718
     37  CB       -35.2050   31.1960  -38.0830 C.3   196  ARG196      0.0321
     38  CG       -34.8220   32.3950  -37.2000 C.3   196  ARG196      0.0489
     39  CD       -35.9790   33.3590  -36.9540 C.3   196  ARG196      0.2205
     40  NE       -37.1130   32.7330  -36.2800 N.pl3 196  ARG196     -0.0865
     41  CZ       -38.2330   33.3730  -35.9720 C.cat 196  ARG196      0.5346
     42  NH1      -39.2070   32.7210  -35.3890 N.pl3 196  ARG196      0.1354
     43  NH2      -38.3990   34.6520  -36.2600 N.pl3 196  ARG196      0.1354
     44  N        -33.9610   28.9030  -40.4650 N.am  197  SER197     -0.1952
     45  CA       -34.2590   27.7940  -41.3210 C.3   197  SER197      0.1924
     46  C        -35.7780   27.5190  -41.5490 C.2   197  SER197      0.2314
     47  O        -36.2810   26.3940  -41.3950 O.2   197  SER197     -0.2863
     48  CB       -33.5200   26.5420  -40.8750 C.3   197  SER197      0.2116
     49  OG       -33.3370   25.6730  -41.9900 O.3   197  SER197     -0.2180
     50  N        -38.6520   26.4110  -43.5980 N.3   199  ASN199     -0.1240
     51  CA       -38.9910   25.6990  -44.8030 C.3   199  ASN199      0.1653
     52  C        -40.0250   26.4410  -45.6360 C.2   199  ASN199      0.2266
     53  O        -39.9300   26.4480  -46.8470 O.2   199  ASN199     -0.2867
     54  CB       -39.6110   24.3470  -44.4910 C.3   199  ASN199      0.1155
     55  CG       -38.6590   23.4200  -43.7580 C.2   199  ASN199      0.2627
     56  OD1      -37.4240   23.4520  -43.9490 O.2   199  ASN199     -0.2716
     57  ND2      -39.2430   22.5540  -42.9320 N.am  199  ASN199     -0.0877
     58  N        -40.1740   21.1100  -51.7080 N.3   249  TRP249     -0.1241
     59  CA       -39.3710   20.3310  -50.7220 C.3   249  TRP249      0.1605
     60  C        -37.8970   20.2070  -51.0550 C.2   249  TRP249      0.2264
     61  O        -37.0520   20.1980  -50.1320 O.2   249  TRP249     -0.2867
     62  CB       -39.9610   18.9200  -50.4270 C.3   249  TRP249      0.0550
     63  CG       -41.0750   18.9250  -49.4440 C.ar  249  TRP249      0.0003
     64  CD1      -42.3810   18.5520  -49.6640 C.ar  249  TRP249      0.0946
     65  CD2      -41.0130   19.4000  -48.0890 C.ar  249  TRP249      0.0152
     66  NE1      -43.1190   18.7280  -48.5190 N.ar  249  TRP249     -0.2442
     67  CE2      -42.3160   19.2560  -47.5360 C.ar  249  TRP249      0.0810
     68  CE3      -40.0020   19.9580  -47.3020 C.ar  249  TRP249      0.0012
     69  CZ2      -42.6190   19.6300  -46.2140 C.ar  249  TRP249      0.0191
     70  CZ3      -40.2990   20.3290  -45.9500 C.ar  249  TRP249      0.0001
     71  CH2      -41.5840   20.1590  -45.4300 C.ar  249  TRP249      0.0015
     72  N        -35.7720   22.7920  -49.8830 N.3   252  CYS252     -0.1235
     73  CA       -35.4250   22.7020  -48.4190 C.3   252  CYS252      0.1677
     74  C        -34.5380   21.4800  -48.1440 C.2   252  CYS252      0.2270
     75  O        -34.3140   21.0830  -46.9750 O.2   252  CYS252     -0.2867
     76  CB       -36.6850   22.5990  -47.5530 C.3   252  CYS252      0.0956
     77  SG       -37.7650   24.0180  -47.8060 S.3   252  CYS252     -0.0801
     78  N        -35.0540   18.2200  -49.1910 N.3   254  LEU254     -0.1245
     79  CA       -35.7470   16.9200  -49.0170 C.3   254  LEU254      0.1561
     80  C        -36.2160   16.3240  -50.3400 C.2   254  LEU254      0.2260
     81  O        -37.1000   16.9190  -50.9920 O.2   254  LEU254     -0.2867
     82  CB       -36.9820   17.0770  -48.1150 C.3   254  LEU254      0.0270
     83  CG       -36.6740   17.3990  -46.6650 C.3   254  LEU254      0.0019
     84  CD1      -37.9750   17.2380  -45.9050 C.3   254  LEU254      0.0001
     85  CD2      -35.6060   16.4580  -46.0750 C.3   254  LEU254      0.0001
     86  N        -30.0730   28.9770  -35.9740 N.3   331  THR331     -0.1218
     87  CA       -30.0450   27.6030  -35.5730 C.3   331  THR331      0.1862
     88  C        -28.6340   27.0370  -35.3360 C.2   331  THR331      0.2287
     89  O        -28.5200   25.9210  -34.8610 O.2   331  THR331     -0.2866
     90  CB       -30.6700   26.7420  -36.6580 C.3   331  THR331      0.1770
     91  OG1      -30.0010   26.9920  -37.8720 O.3   331  THR331     -0.2211
     92  CG2      -32.1430   27.0810  -36.9020 C.3   331  THR331      0.0375
     93  N        -26.9940   24.7460  -40.9790 N.3   345  THR345     -0.1203
     94  CA       -27.4360   23.5010  -40.3760 C.3   345  THR345      0.1994
     95  C        -28.5380   22.8330  -41.1620 C.2   345  THR345      0.2618
     96  O        -29.1810   23.4510  -42.0240 O.2   345  THR345     -0.2717
     97  CB       -28.0700   23.8250  -38.9940 C.3   345  THR345      0.1784
     98  OG1      -29.1830   24.7450  -39.1300 O.3   345  THR345     -0.2211
     99  CG2      -27.0520   24.4620  -38.0990 C.3   345  THR345      0.0376
    100  N        -28.7470   21.5610  -40.8680 N.am  346  GLY346     -0.1942
    101  CA       -29.8770   20.8470  -41.4110 C.3   346  GLY346      0.2014
    102  C        -30.1870   19.6730  -40.5370 C.2   346  GLY346      0.2640
    103  O        -29.3250   19.1710  -39.8310 O.2   346  GLY346     -0.2714
    104  N        -31.4220   19.1860  -40.6250 N.am  347  THR347     -0.1936
    105  CA       -31.7980   17.9850  -39.8860 C.3   347  THR347      0.2028
    106  C        -32.7470   17.2980  -40.8190 C.2   347  THR347      0.2642
    107  O        -33.6610   17.9490  -41.3350 O.2   347  THR347     -0.2714
    108  CB       -32.5300   18.2920  -38.5500 C.3   347  THR347      0.1808
    109  OG1      -31.7090   19.1070  -37.7160 O.3   347  THR347     -0.2208
    110  CG2      -32.8420   16.9980  -37.7930 C.3   347  THR347      0.0379
    111  N        -32.5650   16.0040  -41.0200 N.am  348  ALA348     -0.1963
    112  CA       -33.4130   15.2900  -41.9250 C.3   348  ALA348      0.1728
    113  C        -33.8700   13.9500  -41.4000 C.2   348  ALA348      0.2616
    114  O        -33.0730   13.1750  -40.9120 O.2   348  ALA348     -0.2715
    115  CB       -32.6790   15.0660  -43.2150 C.3   348  ALA348      0.0334
    116  N        -35.1790   13.7340  -41.4610 N.am  349  ASP349     -0.1971
    117  CA       -35.7680   12.4850  -41.0650 C.3   349  ASP349      0.1709
    118  C        -35.3650   11.3520  -42.0140 C.2   349  ASP349      0.2293
    119  O        -35.2390   11.5560  -43.2430 O.2   349  ASP349     -0.2864
    120  CB       -37.3210   12.6110  -41.0730 C.3   349  ASP349      0.1436
    121  CG       -37.9140   12.6060  -39.6860 C.2   349  ASP349      0.3671
    122  OD1      -37.7050   11.6150  -38.9370 O.co2 349  ASP349     -0.2456
    123  OD2      -38.6460   13.5550  -39.3680 O.co2 349  ASP349     -0.2456
    124  N        -33.2020   10.2400  -37.4230 N.3   355  PHE355     -0.1241
    125  CA       -32.9130   11.4550  -38.1580 C.3   355  PHE355      0.1605
    126  C        -31.4270   11.7570  -38.0900 C.2   355  PHE355      0.2264
    127  O        -30.7490   11.2280  -37.1990 O.2   355  PHE355     -0.2867
    128  CB       -33.7530   12.6400  -37.7010 C.3   355  PHE355      0.0534
    129  CG       -33.5090   13.1050  -36.2910 C.ar  355  PHE355     -0.0203
    130  CD1      -32.5170   14.0570  -36.0190 C.ar  355  PHE355     -0.0042
    131  CD2      -34.3290   12.6960  -35.2540 C.ar  355  PHE355     -0.0042
    132  CE1      -32.3210   14.5250  -34.7270 C.ar  355  PHE355     -0.0003
    133  CE2      -34.1400   13.1600  -33.9640 C.ar  355  PHE355     -0.0003
    134  CZ       -33.1480   14.0860  -33.7010 C.ar  355  PHE355     -0.0000
    135  N        -30.3390   16.2050  -32.4710 N.3   384  LEU384     -0.1231
    136  CA       -30.6940   17.5580  -32.8960 C.3   384  LEU384      0.1693
    137  C        -29.6390   18.5910  -32.5480 C.2   384  LEU384      0.2592
    138  O        -29.3080   18.7860  -31.3640 O.2   384  LEU384     -0.2718
    139  CB       -32.0150   17.9850  -32.2840 C.3   384  LEU384      0.0284
    140  CG       -32.5830   19.3130  -32.7840 C.3   384  LEU384      0.0019
    141  CD1      -32.7750   19.2380  -34.2820 C.3   384  LEU384      0.0001
    142  CD2      -33.9450   19.6610  -32.1530 C.3   384  LEU384      0.0001
    143  N        -29.1140   19.2450  -33.5810 N.am  385  GLY385     -0.1957
    144  CA       -28.0800   20.2740  -33.4280 C.3   385  GLY385      0.1869
    145  C        -26.6600   19.7480  -33.2590 C.2   385  GLY385      0.2309
    146  O        -25.7090   20.5530  -33.1150 O.2   385  GLY385     -0.2863
@<TRIPOS>BOND
     1    58    59    1
     2    60    59    1
     3    60    61    2
     4    81    80    2
     5    59    62    1
     6    62    63    1
     7    80    79    1
     8    72    73    1
     9    64    63   ar
    10    64    66   ar
    11    63    65   ar
    12    78    79    1
    13    79    82    1
    14    66    67   ar
    15    73    74    1
    16    73    76    1
    17    74    75    2
    18    82    83    1
    19    65    67   ar
    20    65    68   ar
    21    77    76    1
    22    67    69   ar
    23    68    70   ar
    24    53    52    2
    25    83    85    1
    26    83    84    1
    27     4     3    2
    28    69    71   ar
    29     1     2    1
    30    70    71   ar
    31    52    51    1
    32     3     2    1
    33     3     5   am
    34     8     7    2
    35     7     6    1
    36    51    54    1
    37    51    50    1
    38     6     5    1
    39     6     9    1
    40    54    55    1
    41    11    12    1
    42    56    55    2
    43    55    57   am
    44     9    10    1
    45   119   118    2
    46   115   112    1
    47    12    13    1
    48    12    15    1
    49    17    19   ar
    50    17    16   ar
    51    14    13    2
    52    19    20   ar
    53    96    95    2
    54   118   117    1
    55    49    48    1
    56    15    16    1
    57   112   113    1
    58   112   111    1
    59    16    18   ar
    60    46    47    2
    61    46    45    1
    62   116   113   am
    63   116   117    1
    64   101   100    1
    65   101   102    1
    66   113   114    2
    67    20    18   ar
    68   107   106    2
    69    45    48    1
    70    45    44    1
    71    95   100   am
    72    95    94    1
    73   120   117    1
    74   120   121    1
    75   111   106   am
    76    93    94    1
    77   106   105    1
    78   104   102   am
    79   104   105    1
    80   102   103    2
    81    44    35   am
    82    94    97    1
    83   105   108    1
    84   121   123   ar
    85   121   122   ar
    86    33    34    1
    87    35    36    2
    88    35    34    1
    89    98    97    1
    90    21    22    1
    91    97    99    1
    92   108   110    1
    93   108   109    1
    94    34    37    1
    95   125   126    1
    96   125   128    1
    97   125   124    1
    98   126   127    2
    99    37    38    1
   100    22    25    1
   101    22    23    1
   102    91    90    1
   103   128   129    1
   104    25    26    1
   105    38    39    1
   106    39    40    1
   107    92    90    1
   108    23    24    2
   109    90    87    1
   110    27    26   ar
   111    27    29   ar
   112    26    28   ar
   113   129   130   ar
   114   129   131   ar
   115    40    41    2
   116    43    41    1
   117   130   132   ar
   118    86    87    1
   119    41    42    1
   120    87    88    1
   121    88    89    2
   122   131   133   ar
   123    29    31   ar
   124    28    30   ar
   125   132   134   ar
   126   141   140    1
   127    31    30   ar
   128    31    32    1
   129   133   134   ar
   130   143   144    1
   131   143   137   am
   132   144   145    1
   133   145   146    2
   134   136   137    1
   135   136   135    1
   136   136   139    1
   137   140   139    1
   138   140   142    1
   139   137   138    2
