@<TRIPOS>MOLECULE
tmp/4qjiB00.pdb
 150 144 0 0 0
SMALL
GASTEIGER

@<TRIPOS>ATOM
      1  N        -27.4820   50.0890  -18.1010 N.3    92  MET92      -0.1245
      2  CA       -27.1740   49.2210  -19.2320 C.3    92  MET92       0.1570
      3  C        -28.4160   48.8820  -20.0500 C.2    92  MET92       0.2261
      4  O        -29.0420   47.8430  -19.8410 O.2    92  MET92      -0.2867
      5  CB       -26.5060   47.9360  -18.7430 C.3    92  MET92       0.0387
      6  CG       -25.7260   47.2060  -19.8150 C.3    92  MET92       0.0595
      7  SD       -24.2150   48.0590  -20.2900 S.3    92  MET92      -0.1393
      8  CE       -23.6890   47.0410  -21.6650 C.3    92  MET92       0.0692
      9  N        -28.4420   49.0210  -23.5380 N.3    94  ALA94      -0.1231
     10  CA       -28.0670   48.6170  -24.8870 C.3    94  ALA94       0.1694
     11  C        -28.4140   47.1560  -25.1450 C.2    94  ALA94       0.2592
     12  O        -28.2320   46.3030  -24.2770 O.2    94  ALA94      -0.2718
     13  CB       -26.5840   48.8570  -25.1180 C.3    94  ALA94       0.0304
     14  N        -28.9080   46.8730  -26.3460 N.am   95  ALA95      -0.1966
     15  CA       -29.1970   45.5030  -26.7480 C.3    95  ALA95       0.1728
     16  C        -27.9570   44.8740  -27.3690 C.2    95  ALA95       0.2616
     17  O        -27.7590   44.9260  -28.5830 O.2    95  ALA95      -0.2715
     18  CB       -30.3640   45.4610  -27.7180 C.3    95  ALA95       0.0334
     19  N        -27.1250   44.2790  -26.5230 N.am   96  VAL96      -0.1963
     20  CA       -25.8650   43.6970  -26.9610 C.3    96  VAL96       0.1727
     21  C        -26.0930   42.3860  -27.7070 C.2    96  VAL96       0.2616
     22  O        -26.7540   41.4810  -27.1980 O.2    96  VAL96      -0.2715
     23  CB       -24.9290   43.4460  -25.7670 C.3    96  VAL96       0.0290
     24  CG1      -23.5310   43.0970  -26.2490 C.3    96  VAL96       0.0023
     25  CG2      -24.8940   44.6650  -24.8580 C.3    96  VAL96       0.0023
     26  N        -25.5460   42.2940  -28.9170 N.am   97  ALA97      -0.1963
     27  CA       -25.6270   41.0730  -29.7150 C.3    97  ALA97       0.1728
     28  C        -24.9610   39.9070  -28.9990 C.2    97  ALA97       0.2616
     29  O        -23.7960   39.9890  -28.6120 O.2    97  ALA97      -0.2715
     30  CB       -24.9950   41.2830  -31.0790 C.3    97  ALA97       0.0334
     31  N        -25.7090   38.8230  -28.8260 N.am   98  ASP98      -0.1971
     32  CA       -25.2140   37.6600  -28.1040 C.3    98  ASP98       0.1709
     33  C        -24.0870   36.9530  -28.8510 C.2    98  ASP98       0.2293
     34  O        -23.1630   36.4250  -28.2320 O.2    98  ASP98      -0.2864
     35  CB       -26.3580   36.6770  -27.8490 C.3    98  ASP98       0.1436
     36  CG       -27.3620   37.2010  -26.8410 C.2    98  ASP98       0.3671
     37  OD1      -27.0000   38.0960  -26.0480 O.co2  98  ASP98      -0.2456
     38  OD2      -28.5150   36.7210  -26.8460 O.co2  98  ASP98      -0.2456
     39  N        -20.0220   33.2550  -28.7200 N.3   123  ARG123     -0.1231
     40  CA       -20.7960   34.0930  -27.8140 C.3   123  ARG123      0.1694
     41  C        -19.9820   35.3090  -27.3890 C.2   123  ARG123      0.2592
     42  O        -18.7800   35.2090  -27.1410 O.2   123  ARG123     -0.2718
     43  CB       -21.2440   33.2950  -26.5880 C.3   123  ARG123      0.0321
     44  CG       -22.3960   33.9140  -25.8560 C.3   123  ARG123      0.0489
     45  CD       -22.6740   33.1780  -24.5550 C.3   123  ARG123      0.2205
     46  NE       -21.6010   33.3670  -23.5770 N.pl3 123  ARG123     -0.0865
     47  CZ       -21.4250   34.4720  -22.8560 C.cat 123  ARG123      0.5346
     48  NH1      -22.2740   35.4920  -22.9710 N.pl3 123  ARG123      0.1354
     49  NH2      -20.4110   34.5440  -22.0040 N.pl3 123  ARG123      0.1354
     50  N        -20.6440   36.4580  -27.3090 N.am  124  ASN124     -0.1960
     51  CA       -19.9900   37.6840  -26.8780 C.3   124  ASN124      0.1819
     52  C        -19.9290   37.7700  -25.3610 C.2   124  ASN124      0.2621
     53  O        -20.7170   37.1320  -24.6630 O.2   124  ASN124     -0.2715
     54  CB       -20.7130   38.9060  -27.4460 C.3   124  ASN124      0.1195
     55  CG       -20.2900   39.2260  -28.8660 C.2   124  ASN124      0.2630
     56  OD1      -19.1030   39.2130  -29.1870 O.2   124  ASN124     -0.2716
     57  ND2      -21.2620   39.5150  -29.7240 N.am  124  ASN124     -0.0877
     58  N        -18.9870   38.5590  -24.8560 N.am  125  ASP125     -0.1957
     59  CA       -18.8300   38.7300  -23.4200 C.3   125  ASP125      0.1840
     60  C        -20.0240   39.4690  -22.8330 C.2   125  ASP125      0.2622
     61  O        -20.6310   40.3110  -23.4940 O.2   125  ASP125     -0.2715
     62  CB       -17.5410   39.4890  -23.1050 C.3   125  ASP125      0.1450
     63  CG       -16.3010   38.6380  -23.2870 C.2   125  ASP125      0.3671
     64  OD1      -16.4380   37.4060  -23.4420 O.co2 125  ASP125     -0.2456
     65  OD2      -15.1860   39.2030  -23.2740 O.co2 125  ASP125     -0.2456
     66  N        -20.3530   39.1500  -21.5870 N.am  126  ASP126     -0.1957
     67  CA       -21.4240   39.8380  -20.8830 C.3   126  ASP126      0.1840
     68  C        -20.8790   41.1310  -20.2870 C.2   126  ASP126      0.2622
     69  O        -20.2100   41.1150  -19.2540 O.2   126  ASP126     -0.2715
     70  CB       -22.0180   38.9400  -19.7950 C.3   126  ASP126      0.1450
     71  CG       -23.3430   39.4570  -19.2640 C.2   126  ASP126      0.3671
     72  OD1      -23.4730   40.6770  -19.0300 O.co2 126  ASP126     -0.2456
     73  OD2      -24.2620   38.6330  -19.0750 O.co2 126  ASP126     -0.2456
     74  N        -21.1580   42.2470  -20.9510 N.am  127  VAL127     -0.1963
     75  CA       -20.6220   43.5380  -20.5370 C.3   127  VAL127      0.1727
     76  C        -21.1870   43.9620  -19.1820 C.2   127  VAL127      0.2616
     77  O        -20.4640   44.4990  -18.3430 O.2   127  VAL127     -0.2715
     78  CB       -20.9200   44.6290  -21.5820 C.3   127  VAL127      0.0290
     79  CG1      -20.2150   45.9250  -21.2130 C.3   127  VAL127      0.0023
     80  CG2      -20.4830   44.1690  -22.9620 C.3   127  VAL127      0.0023
     81  N        -22.4780   43.7170  -18.9760 N.am  128  LEU128     -0.1977
     82  CA       -23.1330   44.0530  -17.7140 C.3   128  LEU128      0.1596
     83  C        -22.5580   43.2590  -16.5450 C.2   128  LEU128      0.2287
     84  O        -22.2030   43.8280  -15.5130 O.2   128  LEU128     -0.2864
     85  CB       -24.6400   43.8100  -17.8110 C.3   128  LEU128      0.0297
     86  CG       -25.4490   44.1520  -16.5580 C.3   128  LEU128      0.0022
     87  CD1      -25.2360   45.6050  -16.1630 C.3   128  LEU128      0.0001
     88  CD2      -26.9270   43.8600  -16.7680 C.3   128  LEU128      0.0001
     89  N        -30.0400   47.1200  -15.1090 N.3   148  GLY148     -0.1210
     90  CA       -30.1290   46.2770  -16.2880 C.3   148  GLY148      0.1956
     91  C        -31.4800   46.3570  -16.9770 C.2   148  GLY148      0.2612
     92  O        -32.4680   46.7870  -16.3800 O.2   148  GLY148     -0.2717
     93  N        -31.5200   45.9410  -18.2400 N.am  149  PHE149     -0.1962
     94  CA       -32.7580   45.9380  -19.0160 C.3   149  PHE149      0.1771
     95  C        -33.0170   44.5550  -19.6050 C.2   149  PHE149      0.2619
     96  O        -32.0850   43.8650  -20.0120 O.2   149  PHE149     -0.2715
     97  CB       -32.7000   46.9830  -20.1340 C.3   149  PHE149      0.0574
     98  CG       -32.9260   48.3930  -19.6620 C.ar  149  PHE149     -0.0200
     99  CD1      -31.9880   49.0320  -18.8680 C.ar  149  PHE149     -0.0042
    100  CD2      -34.0760   49.0790  -20.0140 C.ar  149  PHE149     -0.0042
    101  CE1      -32.1930   50.3270  -18.4340 C.ar  149  PHE149     -0.0003
    102  CE2      -34.2870   50.3750  -19.5840 C.ar  149  PHE149     -0.0003
    103  CZ       -33.3440   51.0000  -18.7930 C.ar  149  PHE149     -0.0000
    104  N        -34.2800   44.1430  -19.6460 N.am  150  ALA150     -0.1963
    105  CA       -34.6130   42.8240  -20.1750 C.3   150  ALA150      0.1728
    106  C        -35.9960   42.7670  -20.8150 C.2   150  ALA150      0.2616
    107  O        -36.9540   43.3360  -20.2960 O.2   150  ALA150     -0.2715
    108  CB       -34.5100   41.7810  -19.0720 C.3   150  ALA150      0.0334
    109  N        -36.0890   42.0790  -21.9490 N.am  151  ALA151     -0.1977
    110  CA       -37.3810   41.7360  -22.5290 C.3   151  ALA151      0.1597
    111  C        -37.6990   40.2820  -22.2060 C.2   151  ALA151      0.2287
    112  O        -36.9270   39.3830  -22.5390 O.2   151  ALA151     -0.2864
    113  CB       -37.3810   41.9690  -24.0300 C.3   151  ALA151      0.0319
    114  N        -33.1970   36.4680  -14.2060 N.3   167  LYS167     -0.1245
    115  CA       -32.1650   37.1730  -14.9590 C.3   167  LYS167      0.1561
    116  C        -31.4790   38.2410  -14.1120 C.2   167  LYS167      0.2260
    117  O        -30.2790   38.4830  -14.2530 O.2   167  LYS167     -0.2867
    118  CB       -32.7590   37.8040  -16.2200 C.3   167  LYS167      0.0271
    119  CG       -31.7450   38.5230  -17.0960 C.3   167  LYS167      0.0035
    120  CD       -32.3510   38.9090  -18.4300 C.3   167  LYS167      0.0206
    121  CE       -32.3930   37.7160  -19.3670 C.3   167  LYS167      0.1093
    122  NZ       -33.2560   37.9670  -20.5540 N.3   167  LYS167     -0.1314
    123  N        -28.9520   36.5280  -12.1700 N.3   170  ARG170     -0.1231
    124  CA       -27.8570   36.0880  -13.0330 C.3   170  ARG170      0.1694
    125  C        -26.8560   37.2210  -13.2490 C.2   170  ARG170      0.2591
    126  O        -25.6460   37.0180  -13.1710 O.2   170  ARG170     -0.2718
    127  CB       -28.3740   35.6060  -14.3960 C.3   170  ARG170      0.0321
    128  CG       -29.3400   34.4350  -14.3640 C.3   170  ARG170      0.0489
    129  CD       -29.8280   34.0990  -15.7700 C.3   170  ARG170      0.2205
    130  NE       -31.1790   33.5440  -15.7750 N.pl3 170  ARG170     -0.0865
    131  CZ       -31.4720   32.2850  -15.4670 C.cat 170  ARG170      0.5346
    132  NH1      -32.7300   31.8660  -15.5000 N.pl3 170  ARG170      0.1354
    133  NH2      -30.5050   31.4460  -15.1220 N.pl3 170  ARG170      0.1354
    134  N        -27.3760   38.4140  -13.5170 N.am  171  LYS171     -0.1980
    135  CA       -26.5400   39.5700  -13.8250 C.3   171  LYS171      0.1596
    136  C        -25.8610   40.1510  -12.5870 C.2   171  LYS171      0.2287
    137  O        -24.7210   40.6120  -12.6520 O.2   171  LYS171     -0.2864
    138  CB       -27.3760   40.6510  -14.5090 C.3   171  LYS171      0.0298
    139  CG       -27.9550   40.2170  -15.8430 C.3   171  LYS171      0.0038
    140  CD       -26.9060   40.1700  -16.9370 C.3   171  LYS171      0.0206
    141  CE       -27.3890   39.3140  -18.0990 C.3   171  LYS171      0.1093
    142  NZ       -26.4550   39.3440  -19.2560 N.3   171  LYS171     -0.1314
    143  N        -33.4500   45.9030  -12.2330 N.3   176  LEU176     -0.1245
    144  CA       -33.6890   45.3630  -13.5670 C.3   176  LEU176      0.1561
    145  C        -34.9930   45.9040  -14.1490 C.2   176  LEU176      0.2260
    146  O        -36.0520   45.7850  -13.5340 O.2   176  LEU176     -0.2867
    147  CB       -33.7190   43.8330  -13.5330 C.3   176  LEU176      0.0270
    148  CG       -33.8670   43.1360  -14.8880 C.3   176  LEU176      0.0019
    149  CD1      -32.6440   43.3870  -15.7550 C.3   176  LEU176      0.0001
    150  CD2      -34.1010   41.6470  -14.7140 C.3   176  LEU176      0.0001
@<TRIPOS>BOND
     1    30    27    1
     2    57    55   am
     3    27    28    1
     4    27    26    1
     5    56    55    2
     6    28    31   am
     7    28    29    2
     8    26    21   am
     9    55    54    1
    10    33    34    2
    11    33    32    1
    12    31    32    1
    13    39    40    1
    14    17    16    2
    15    32    35    1
    16    35    36    1
    17    40    41    1
    18    40    43    1
    19    18    15    1
    20    21    22    2
    21    21    20    1
    22    54    51    1
    23    41    50   am
    24    41    42    2
    25    16    15    1
    26    16    19   am
    27    50    51    1
    28    20    19    1
    29    20    23    1
    30    51    52    1
    31    38    36   ar
    32    36    37   ar
    33    15    14    1
    34    43    44    1
    35    14    11   am
    36    24    23    1
    37    44    45    1
    38    23    25    1
    39    52    58   am
    40    52    53    2
    41    11    10    1
    42    11    12    2
    43    13    10    1
    44    10     9    1
    45    58    59    1
    46    45    46    1
    47   113   110    1
    48    46    47    2
    49    61    60    2
    50    64    63   ar
    51    59    62    1
    52    59    60    1
    53    63    65   ar
    54    63    62    1
    55    48    47    1
    56    80    78    1
    57    47    49    1
    58    60    66   am
    59   112   111    2
    60   110   111    1
    61   110   109    1
    62   109   106   am
    63     8     7    1
    64    66    67    1
    65    78    79    1
    66    78    75    1
    67    74    75    1
    68    74    68   am
    69    67    68    1
    70    67    70    1
    71   106   107    2
    72   106   105    1
    73   122   121    1
    74    75    76    1
    75     7     6    1
    76    68    69    2
    77   105   104    1
    78   105   108    1
    79    97    98    1
    80    97    94    1
    81     3     4    2
    82     3     2    1
    83   100    98   ar
    84   100   102   ar
    85    96    95    2
    86     6     5    1
    87    70    71    1
    88    98    99   ar
    89   104    95   am
    90    95    94    1
    91   102   103   ar
    92   121   120    1
    93    71    73   ar
    94    71    72   ar
    95   142   141    1
    96     2     5    1
    97     2     1    1
    98    76    81   am
    99    76    77    2
   100    94    93    1
   101    81    82    1
   102    99   101   ar
   103   103   101   ar
   104   120   119    1
   105    93    91   am
   106   141   140    1
   107    85    82    1
   108    85    86    1
   109    82    83    1
   110   119   118    1
   111    91    92    2
   112    91    90    1
   113   140   139    1
   114    88    86    1
   115    86    87    1
   116    83    84    2
   117    90    89    1
   118   118   115    1
   119   139   138    1
   120   130   129    1
   121   130   131    2
   122   129   128    1
   123   149   148    1
   124   132   131    1
   125   131   133    1
   126   115   114    1
   127   115   116    1
   128   148   150    1
   129   148   147    1
   130   138   135    1
   131   127   128    1
   132   127   124    1
   133   117   116    2
   134   145   144    1
   135   145   146    2
   136   135   134    1
   137   135   136    1
   138   144   147    1
   139   144   143    1
   140   134   125   am
   141   125   126    2
   142   125   124    1
   143   124   123    1
   144   137   136    2
