@<TRIPOS>MOLECULE
tmp/4qjmA00.pdb
 198 192 0 0 0
SMALL
GASTEIGER

@<TRIPOS>ATOM
      1  N         29.6110    1.3150   10.4280 N.3     2  TRP2       -0.1241
      2  CA        28.9870    0.3340   11.3170 C.3     2  TRP2        0.1605
      3  C         27.9810   -0.4620   10.5510 C.2     2  TRP2        0.2264
      4  O         27.4680   -0.0410    9.4910 O.2     2  TRP2       -0.2867
      5  CB        28.3320    0.9890   12.5130 C.3     2  TRP2        0.0550
      6  CG        27.1440    1.8340   12.1300 C.ar    2  TRP2        0.0003
      7  CD1       27.1080    3.1810   11.7760 C.ar    2  TRP2        0.0946
      8  CD2       25.7580    1.3760   12.0730 C.ar    2  TRP2        0.0152
      9  NE1       25.8220    3.5700   11.5320 N.ar    2  TRP2       -0.2442
     10  CE2       24.9660    2.5210   11.7040 C.ar    2  TRP2        0.0810
     11  CE3       25.1330    0.1560   12.3360 C.ar    2  TRP2        0.0012
     12  CZ2       23.5920    2.4470   11.5580 C.ar    2  TRP2        0.0191
     13  CZ3       23.7520    0.0760   12.1680 C.ar    2  TRP2        0.0001
     14  CH2       23.0050    1.1960   11.7680 C.ar    2  TRP2        0.0015
     15  N         17.8100    2.1520    3.5840 N.3    59  ASN59      -0.1240
     16  CA        18.8520    3.0650    4.0050 C.3    59  ASN59       0.1653
     17  C         20.1250    2.2840    4.2420 C.2    59  ASN59       0.2266
     18  O         21.0800    2.7980    4.8480 O.2    59  ASN59      -0.2867
     19  CB        18.3710    3.8880    5.2390 C.3    59  ASN59       0.1155
     20  CG        18.2420    3.0390    6.5120 C.2    59  ASN59       0.2627
     21  OD1       18.5160    1.7970    6.5110 O.2    59  ASN59      -0.2716
     22  ND2       17.8880    3.7190    7.6180 N.am   59  ASN59      -0.0877
     23  N         20.4600   -0.3750    6.1950 N.3    61  HIS61      -0.1226
     24  CA        20.3170   -1.3450    7.3200 C.3    61  HIS61       0.1752
     25  C         18.9000   -1.6920    7.6970 C.2    61  HIS61       0.2595
     26  O         18.6900   -2.5590    8.5640 O.2    61  HIS61      -0.2718
     27  CB        21.0200   -0.9330    8.5620 C.3    61  HIS61       0.0759
     28  CG        20.7100    0.4560    8.9940 C.ar   61  HIS61       0.0818
     29  ND1       21.4090    1.5170    8.5250 N.ar   61  HIS61      -0.2268
     30  CD2       19.7850    0.9650    9.9150 C.ar   61  HIS61       0.1154
     31  CE1       20.9470    2.6610    9.0880 C.ar   61  HIS61       0.1986
     32  NE2       19.9770    2.3330    9.9660 N.ar   61  HIS61      -0.2212
     33  N         17.9250   -1.0150    7.1200 N.am   62  ALA62      -0.1980
     34  CA        16.5350   -1.4390    7.3020 C.3    62  ALA62       0.1597
     35  C         15.8230   -0.7940    6.1520 C.2    62  ALA62       0.2287
     36  O         16.5030   -0.1550    5.3220 O.2    62  ALA62      -0.2864
     37  CB        15.9890   -0.9400    8.6360 C.3    62  ALA62       0.0319
     38  N         12.7340    2.1190    5.7570 N.3    64  ASN64      -0.1240
     39  CA        11.9810    3.0450    6.4810 C.3    64  ASN64       0.1653
     40  C         10.7660    3.4490    5.7100 C.2    64  ASN64       0.2266
     41  O         10.8830    3.7820    4.5430 O.2    64  ASN64      -0.2867
     42  CB        12.7700    4.3170    6.6910 C.3    64  ASN64       0.1155
     43  CG        13.9560    4.1550    7.6010 C.2    64  ASN64       0.2627
     44  OD1       14.1450    3.1130    8.3380 O.2    64  ASN64      -0.2716
     45  ND2       14.8240    5.2420    7.5830 N.am   64  ASN64      -0.0877
     46  N          8.4400    6.6160    5.6600 N.3    66  GLU66      -0.1245
     47  CA         8.4710    7.9960    6.2120 C.3    66  GLU66       0.1567
     48  C          7.1480    8.6900    6.0620 C.2    66  GLU66       0.2260
     49  O          6.4160    8.4510    5.0630 O.2    66  GLU66      -0.2867
     50  CB         9.3770    8.8190    5.3770 C.3    66  GLU66       0.0388
     51  CG        10.7910    8.2990    5.3440 C.3    66  GLU66       0.1160
     52  CD        11.5050    8.7160    4.0570 C.2    66  GLU66       0.3649
     53  OE1       10.8400    9.3660    3.1900 O.co2  66  GLU66      -0.2457
     54  OE2       12.6980    8.3440    3.8880 O.co2  66  GLU66      -0.2457
     55  N          7.0980   10.0880   12.7800 N.3    88  ILE88      -0.1231
     56  CA         8.0080   10.4660   11.6870 C.3    88  ILE88       0.1692
     57  C          8.2530    9.3020   10.7320 C.2    88  ILE88       0.2591
     58  O          8.3540    9.4940    9.4930 O.2    88  ILE88      -0.2718
     59  CB         9.3240   11.1320   12.1760 C.3    88  ILE88       0.0266
     60  CG1       10.2000   11.5550   10.9750 C.3    88  ILE88       0.0019
     61  CG2       10.0450   10.2350   13.1640 C.3    88  ILE88       0.0020
     62  CD1       11.2800   12.5640   11.3490 C.3    88  ILE88       0.0001
     63  N          8.4110    8.0730   11.2570 N.am   89  GLN89      -0.1979
     64  CA         8.7360    6.9950   10.3660 C.3    89  GLN89       0.1601
     65  C          8.5020    5.7080   11.1190 C.2    89  GLN89       0.2287
     66  O          8.3650    5.7180   12.3350 O.2    89  GLN89      -0.2864
     67  CB        10.1830    7.0360    9.7960 C.3    89  GLN89       0.0394
     68  CG        11.2880    6.9420   10.8340 C.3    89  GLN89       0.0908
     69  CD        11.9530    5.5610   10.7620 C.2    89  GLN89       0.2608
     70  OE1       11.4920    4.6650   11.3450 O.2    89  GLN89      -0.2717
     71  NE2       13.0070    5.4310    9.9900 N.am   89  GLN89      -0.0878
     72  N          9.9850    1.3510   10.8990 N.3    91  HIS91      -0.1241
     73  CA        10.9140    0.4540   10.2500 C.3    91  HIS91       0.1621
     74  C         10.8290   -0.8180   11.0120 C.2    91  HIS91       0.2264
     75  O         10.1420   -0.8470   12.0230 O.2    91  HIS91      -0.2867
     76  CB        12.4220    0.9100   10.2350 C.3    91  HIS91       0.0745
     77  CG        12.9550    1.1940   11.6030 C.ar   91  HIS91       0.0817
     78  ND1       12.7260    2.4130   12.2200 N.ar   91  HIS91      -0.2268
     79  CD2       13.5750    0.3800   12.5340 C.ar   91  HIS91       0.1154
     80  CE1       13.2600    2.3640   13.4540 C.ar   91  HIS91       0.1986
     81  NE2       13.8200    1.1260   13.6300 N.ar   91  HIS91      -0.2212
     82  N         13.1780   -4.5980   12.3400 N.3    93  HIS93      -0.1241
     83  CA        14.4000   -5.3550   12.5650 C.3    93  HIS93       0.1621
     84  C         14.0150   -6.8030   12.4450 C.2    93  HIS93       0.2264
     85  O         12.9450   -7.1650   12.9620 O.2    93  HIS93      -0.2867
     86  CB        14.9960   -5.1100   13.9770 C.3    93  HIS93       0.0745
     87  CG        15.3040   -3.6770   14.2220 C.ar   93  HIS93       0.0817
     88  ND1       16.5640   -3.1490   14.0220 N.ar   93  HIS93      -0.2268
     89  CD2       14.4580   -2.6250   14.5390 C.ar   93  HIS93       0.1154
     90  CE1       16.5140   -1.8430   14.3760 C.ar   93  HIS93       0.1986
     91  NE2       15.1830   -1.5280   14.6250 N.ar   93  HIS93      -0.2212
     92  N          9.2230   -0.7640   14.7100 N.3   116  HIS116     -0.1241
     93  CA         9.4440    0.4200   15.5340 C.3   116  HIS116      0.1621
     94  C          8.7520    1.5700   14.8770 C.2   116  HIS116      0.2264
     95  O          9.0990    1.9110   13.7270 O.2   116  HIS116     -0.2867
     96  CB        10.9390    0.7000   15.6160 C.3   116  HIS116      0.0745
     97  CG        11.6440   -0.2780   16.5580 C.ar  116  HIS116      0.0817
     98  ND1       12.9560   -0.5280   16.5140 N.ar  116  HIS116     -0.2268
     99  CD2       11.1210   -1.0770   17.5450 C.ar  116  HIS116      0.1154
    100  CE1       13.2760   -1.4380   17.4790 C.ar  116  HIS116      0.1986
    101  NE2       12.1460   -1.7890   18.0930 N.ar  116  HIS116     -0.2212
    102  N          8.3360    5.4440   15.1280 N.3   118  VAL118     -0.1245
    103  CA         9.2560    6.3810   15.8260 C.3   118  VAL118      0.1561
    104  C          8.5660    7.7290   15.9080 C.2   118  VAL118      0.2260
    105  O          8.1120    8.2150   14.8820 O.2   118  VAL118     -0.2867
    106  CB        10.5770    6.5050   15.0290 C.3   118  VAL118      0.0252
    107  CG1       11.5270    7.5840   15.6300 C.3   118  VAL118      0.0019
    108  CG2       11.2680    5.1460   14.8160 C.3   118  VAL118      0.0019
    109  N         12.6530   16.5620   14.7380 N.3   127  PHE127     -0.1241
    110  CA        13.3420   15.3440   15.0870 C.3   127  PHE127      0.1605
    111  C         14.7970   15.5630   15.5020 C.2   127  PHE127      0.2264
    112  O         15.2640   14.9870   16.4770 O.2   127  PHE127     -0.2867
    113  CB        13.2770   14.3390   13.8980 C.3   127  PHE127      0.0534
    114  CG        13.9530   13.0340   14.1700 C.ar  127  PHE127     -0.0203
    115  CD1       13.2420   12.0290   14.8630 C.ar  127  PHE127     -0.0042
    116  CD2       15.2700   12.7860   13.7910 C.ar  127  PHE127     -0.0042
    117  CE1       13.8400   10.8120   15.1880 C.ar  127  PHE127     -0.0003
    118  CE2       15.8790   11.5370   14.0500 C.ar  127  PHE127     -0.0003
    119  CZ        15.1570   10.5440   14.7630 C.ar  127  PHE127     -0.0000
    120  N         16.2830   14.4100   19.3140 N.3   131  VAL131     -0.1245
    121  CA        17.1980   13.3110   19.6790 C.3   131  VAL131      0.1561
    122  C         18.2810   13.7740   20.6270 C.2   131  VAL131      0.2260
    123  O         18.9900   12.9530   21.2070 O.2   131  VAL131     -0.2867
    124  CB        17.8190   12.5550   18.4880 C.3   131  VAL131      0.0252
    125  CG1       16.7340   11.9270   17.6490 C.3   131  VAL131      0.0019
    126  CG2       18.7160   13.5000   17.6870 C.3   131  VAL131      0.0019
    127  N          9.3140    5.5890   21.1090 N.3   139  VAL139     -0.1245
    128  CA         9.2900    4.5520   20.0890 C.3   139  VAL139      0.1561
    129  C          8.3490    3.4650   20.5340 C.2   139  VAL139      0.2260
    130  O          8.5150    2.9320   21.6570 O.2   139  VAL139     -0.2867
    131  CB        10.6790    4.0250   19.7010 C.3   139  VAL139      0.0252
    132  CG1       10.6110    2.9900   18.5360 C.3   139  VAL139      0.0019
    133  CG2       11.5300    5.1950   19.1990 C.3   139  VAL139      0.0019
    134  N         18.1880    5.0060   21.1940 N.3   194  LEU194     -0.1231
    135  CA        18.2110    4.4660   19.8190 C.3   194  LEU194      0.1693
    136  C         18.9550    3.1280   19.8770 C.2   194  LEU194      0.2593
    137  O         19.9790    2.9780   20.5390 O.2   194  LEU194     -0.2718
    138  CB        19.0110    5.4410   18.9850 C.3   194  LEU194      0.0284
    139  CG        18.4270    6.8210   18.9190 C.3   194  LEU194      0.0019
    140  CD1       19.3290    7.6730   18.0190 C.3   194  LEU194      0.0001
    141  CD2       17.0060    6.8460   18.4010 C.3   194  LEU194      0.0001
    142  N         18.4770    2.1450   19.1090 N.am  195  THR195     -0.1939
    143  CA        19.1620    0.8630   19.1150 C.3   195  THR195      0.2028
    144  C         20.2080    0.7240   17.9680 C.2   195  THR195      0.2643
    145  O         20.7240   -0.3830   17.8110 O.2   195  THR195     -0.2714
    146  CB        18.1580   -0.2810   18.9160 C.3   195  THR195      0.1808
    147  OG1       17.5900   -0.2190   17.5810 O.3   195  THR195     -0.2208
    148  CG2       17.0830   -0.2380   19.9730 C.3   195  THR195      0.0379
    149  N         20.4030    1.7520   17.1340 N.am  196  THR196     -0.1937
    150  CA        21.5390    1.7330   16.1980 C.3   196  THR196      0.2013
    151  C         22.3450    2.9870   16.4610 C.2   196  THR196      0.2484
    152  O         21.8450    3.9350   17.0680 O.2   196  THR196     -0.2729
    153  CB        21.0980    1.8510   14.7060 C.3   196  THR196      0.1807
    154  OG1       20.6230    3.1800   14.4510 O.3   196  THR196     -0.2208
    155  CG2       20.0000    0.8760   14.3340 C.3   196  THR196      0.0379
    156  N         23.5920    3.0140   15.9550 N.am  197  PRO197     -0.2715
    157  CA        24.3350    4.2450   16.0460 C.3   197  PRO197      0.1521
    158  C         23.4500    5.3860   15.5170 C.2   197  PRO197      0.2440
    159  O         22.7740    5.2260   14.4480 O.2   197  PRO197     -0.2731
    160  CB        25.5190    3.9580   15.1120 C.3   197  PRO197      0.0310
    161  CG        25.8020    2.4940   15.3830 C.3   197  PRO197      0.0237
    162  CD        24.3970    1.8970   15.3900 C.3   197  PRO197      0.0939
    163  N         23.4910    6.5770   16.1570 N.am  198  PRO198     -0.2727
    164  CA        24.3780    7.0290   17.2480 C.3   198  PRO198      0.1402
    165  C         24.0350    6.6450   18.6880 C.2   198  PRO198      0.2269
    166  O         24.6850    7.1590   19.6600 O.2   198  PRO198     -0.2865
    167  CB        24.3430    8.5660   17.1110 C.3   198  PRO198      0.0296
    168  CG        23.0230    8.9000   16.4990 C.3   198  PRO198      0.0237
    169  CD        22.6740    7.6960   15.6050 C.3   198  PRO198      0.0939
    170  N         21.9050    7.2860   20.8020 N.3   200  LEU200     -0.1245
    171  CA        21.5310    8.3790   21.7080 C.3   200  LEU200      0.1561
    172  C         20.4710    7.9580   22.7280 C.2   200  LEU200      0.2260
    173  O         19.4650    7.2830   22.4090 O.2   200  LEU200     -0.2867
    174  CB        21.0590    9.5940   20.9080 C.3   200  LEU200      0.0270
    175  CG        22.1910   10.1550   19.9810 C.3   200  LEU200      0.0019
    176  CD1       21.4810   11.1380   19.0630 C.3   200  LEU200      0.0001
    177  CD2       23.3430   10.7950   20.7780 C.3   200  LEU200      0.0001
    178  N         15.1890    8.0260   24.2650 N.3   203  VAL203     -0.1245
    179  CA        13.9290    7.2840   23.8940 C.3   203  VAL203      0.1561
    180  C         13.1540    6.8240   25.1110 C.2   203  VAL203      0.2260
    181  O         13.7130    6.2250   26.0030 O.2   203  VAL203     -0.2867
    182  CB        14.2190    5.9950   23.0300 C.3   203  VAL203      0.0252
    183  CG1       12.8400    5.3740   22.6790 C.3   203  VAL203      0.0019
    184  CG2       14.9830    6.3890   21.7250 C.3   203  VAL203      0.0019
    185  N         10.7990    4.0630   25.6430 N.3   205  TRP205     -0.1241
    186  CA        10.3210    2.8710   24.9250 C.3   205  TRP205      0.1605
    187  C          8.9690    2.4100   25.3790 C.2   205  TRP205      0.2264
    188  O          8.7390    2.3530   26.5840 O.2   205  TRP205     -0.2867
    189  CB        11.3140    1.7060   25.1410 C.3   205  TRP205      0.0550
    190  CG        12.4340    1.8490   24.1520 C.ar  205  TRP205      0.0003
    191  CD1       13.6900    2.4140   24.3140 C.ar  205  TRP205      0.0946
    192  CD2       12.3840    1.4250   22.7730 C.ar  205  TRP205      0.0152
    193  NE1       14.3890    2.4200   23.1350 N.ar  205  TRP205     -0.2442
    194  CE2       13.6480    1.8320   22.1680 C.ar  205  TRP205      0.0810
    195  CE3       11.3830    0.8480   21.9620 C.ar  205  TRP205      0.0012
    196  CZ2       13.9280    1.6190   20.8330 C.ar  205  TRP205      0.0191
    197  CZ3       11.6700    0.5680   20.6370 C.ar  205  TRP205      0.0001
    198  CH2       12.9310    0.9530   20.0570 C.ar  205  TRP205      0.0015
@<TRIPOS>BOND
     1    53    52   ar
     2    15    16    1
     3    54    52   ar
     4    16    17    1
     5    16    19    1
     6    52    51    1
     7    17    18    2
     8    41    40    2
     9    49    48    2
    10    19    20    1
    11    36    35    2
    12    51    50    1
    13    50    47    1
    14    46    47    1
    15    40    39    1
    16    38    39    1
    17    48    47    1
    18    35    34    1
    19    23    24    1
    20    39    42    1
    21    21    20    2
    22    20    22   am
    23    42    43    1
    24    33    34    1
    25    33    25   am
    26    34    37    1
    27    24    25    1
    28    24    27    1
    29    45    43   am
    30    43    44    2
    31    25    26    2
    32    29    28   ar
    33    29    31   ar
    34    27    28    1
    35    28    30   ar
    36    31    32   ar
    37     4     3    2
    38    58    57    2
    39    67    64    1
    40    67    68    1
    41    30    32   ar
    42    71    69   am
    43    76    73    1
    44    76    77    1
    45    73    72    1
    46    73    74    1
    47    64    65    1
    48    64    63    1
    49     1     2    1
    50     3     2    1
    51    57    63   am
    52    57    56    1
    53    69    68    1
    54    69    70    2
    55    60    62    1
    56    60    59    1
    57    74    75    2
    58    65    66    2
    59     2     5    1
    60     9    10   ar
    61     9     7   ar
    62    12    10   ar
    63    12    14   ar
    64    77    78   ar
    65    77    79   ar
    66    56    59    1
    67    56    55    1
    68    10     8   ar
    69    14    13   ar
    70     7     6   ar
    71     8     6   ar
    72     8    11   ar
    73     6     5    1
    74    13    11   ar
    75    59    61    1
    76    78    80   ar
    77    82    83    1
    78    84    83    1
    79    84    85    2
    80    79    81   ar
    81    83    86    1
    82    80    81   ar
    83    95    94    2
    84   116   118   ar
    85   116   114   ar
    86   113   114    1
    87   113   110    1
    88    86    87    1
    89    88    87   ar
    90    88    90   ar
    91   118   119   ar
    92   114   115   ar
    93    87    89   ar
    94   155   153    1
    95    90    91   ar
    96   159   158    2
    97   154   153    1
    98    89    91   ar
    99   153   150    1
   100    92    93    1
   101   109   110    1
   102   119   117   ar
   103   108   106    1
   104   115   117   ar
   105    94    93    1
   106   105   104    2
   107   106   107    1
   108   106   103    1
   109   110   111    1
   110   160   161    1
   111   160   157    1
   112   102   103    1
   113   161   162    1
   114   162   156    1
   115   111   112    2
   116   158   157    1
   117   158   163   am
   118    93    96    1
   119   169   163    1
   120   169   168    1
   121    96    97    1
   122   103   104    1
   123   156   157    1
   124   156   151   am
   125   163   164    1
   126   150   151    1
   127   150   149    1
   128   151   152    2
   129   168   167    1
   130    98    97   ar
   131    98   100   ar
   132    97    99   ar
   133   167   164    1
   134   149   144   am
   135   164   165    1
   136   100   101   ar
   137    99   101   ar
   138   147   146    1
   139   125   124    1
   140   126   124    1
   141   145   144    2
   142   144   143    1
   143   140   139    1
   144   141   139    1
   145   124   121    1
   146   132   131    1
   147   165   166    2
   148   146   143    1
   149   146   148    1
   150   139   138    1
   151   138   135    1
   152   176   175    1
   153   142   143    1
   154   142   136   am
   155   133   131    1
   156   120   121    1
   157   121   122    1
   158   131   128    1
   159   135   136    1
   160   135   134    1
   161   136   137    2
   162   175   177    1
   163   175   174    1
   164   198   197   ar
   165   198   196   ar
   166   128   129    1
   167   128   127    1
   168   129   130    2
   169   122   123    2
   170   197   195   ar
   171   170   171    1
   172   196   194   ar
   173   174   171    1
   174   171   172    1
   175   184   182    1
   176   195   192   ar
   177   194   192   ar
   178   194   193   ar
   179   173   172    2
   180   183   182    1
   181   192   190   ar
   182   182   179    1
   183   193   191   ar
   184   179   178    1
   185   179   180    1
   186   190   191   ar
   187   190   189    1
   188   186   189    1
   189   186   187    1
   190   186   185    1
   191   180   181    2
   192   187   188    2
