@<TRIPOS>MOLECULE
tmp/4qjoD00.pdb
 189 183 0 0 0
SMALL
GASTEIGER

@<TRIPOS>ATOM
      1  N         17.8440    3.1950   56.9680 N.3     2  TRP2       -0.1241
      2  CA        18.3500    3.6220   55.6790 C.3     2  TRP2        0.1605
      3  C         17.7710    2.6570   54.7060 C.2     2  TRP2        0.2264
      4  O         17.3090    1.5910   55.1310 O.2     2  TRP2       -0.2867
      5  CB        19.8700    3.5790   55.6850 C.3     2  TRP2        0.0550
      6  CG        20.4670    2.2560   56.0780 C.ar    2  TRP2        0.0003
      7  CD1       20.8150    1.8180   57.3460 C.ar    2  TRP2        0.0946
      8  CD2       20.8470    1.1630   55.1790 C.ar    2  TRP2        0.0152
      9  NE1       21.3240    0.5620   57.3040 N.ar    2  TRP2       -0.2442
     10  CE2       21.3770    0.1160   56.0090 C.ar    2  TRP2        0.0810
     11  CE3       20.7060    0.9360   53.8000 C.ar    2  TRP2        0.0012
     12  CZ2       21.8280   -1.1060   55.4760 C.ar    2  TRP2        0.0191
     13  CZ3       21.1760   -0.2930   53.2590 C.ar    2  TRP2        0.0001
     14  CH2       21.7230   -1.2820   54.0890 C.ar    2  TRP2        0.0015
     15  N         17.4290   -9.3700   57.0390 N.3    62  ASN62      -0.1240
     16  CA        17.7200   -8.2330   57.9300 C.3    62  ASN62       0.1653
     17  C         17.1200   -6.9200   57.4930 C.2    62  ASN62       0.2266
     18  O         17.4350   -5.8960   58.0620 O.2    62  ASN62      -0.2867
     19  CB        19.2430   -8.0220   58.1550 C.3    62  ASN62       0.1155
     20  CG        19.9890   -7.7260   56.8580 C.2    62  ASN62       0.2627
     21  OD1       19.3920   -7.3460   55.8380 O.2    62  ASN62      -0.2716
     22  ND2       21.3320   -7.9510   56.8840 N.am   62  ASN62      -0.0877
     23  N         17.5960   -5.5290   54.6840 N.3    64  HIS64      -0.1226
     24  CA        18.3690   -4.9600   53.5830 C.3    64  HIS64       0.1752
     25  C         18.8600   -6.0620   52.6170 C.2    64  HIS64       0.2596
     26  O         19.1570   -5.7910   51.4330 O.2    64  HIS64      -0.2718
     27  CB        19.5400   -4.1610   54.1340 C.3    64  HIS64       0.0759
     28  CG        19.1650   -3.1900   55.2620 C.ar   64  HIS64       0.0818
     29  ND1       18.5390   -1.9950   55.0240 N.ar   64  HIS64      -0.2268
     30  CD2       19.4140   -3.2390   56.6400 C.ar   64  HIS64       0.1154
     31  CE1       18.3760   -1.3190   56.2020 C.ar   64  HIS64       0.1986
     32  NE2       18.9270   -2.0720   57.1890 N.ar   64  HIS64      -0.2212
     33  N         18.9360   -7.3150   53.0960 N.am   65  SER65      -0.1952
     34  CA        19.4110   -8.4150   52.2640 C.3    65  SER65       0.1924
     35  C         18.9640   -9.7460   52.9170 C.2    65  SER65       0.2314
     36  O         18.2550   -9.7490   53.9350 O.2    65  SER65      -0.2863
     37  CB        20.9520   -8.3420   52.0660 C.3    65  SER65       0.2116
     38  OG        21.3920   -9.3580   51.1530 O.3    65  SER65      -0.2180
     39  N         20.8950  -12.8130   54.6360 N.3    67  LYS67      -0.1245
     40  CA        22.2200  -13.2440   55.0090 C.3    67  LYS67       0.1561
     41  C         22.2120  -14.6120   55.7000 C.2    67  LYS67       0.2260
     42  O         21.2220  -15.0060   56.3970 O.2    67  LYS67      -0.2867
     43  CB        22.9370  -12.1770   55.8770 C.3    67  LYS67       0.0271
     44  CG        22.1940  -11.7510   57.0980 C.3    67  LYS67       0.0035
     45  CD        23.1820  -11.4610   58.1940 C.3    67  LYS67       0.0206
     46  CE        22.4150  -11.3700   59.4990 C.3    67  LYS67       0.1093
     47  NZ        23.2360  -10.7700   60.5940 N.3    67  LYS67      -0.1314
     48  N         32.0790  -14.4620   58.8010 N.3    86  THR86      -0.1203
     49  CA        31.0460  -14.0440   59.7110 C.3    86  THR86       0.1994
     50  C         29.6590  -14.1860   59.0390 C.2    86  THR86       0.2617
     51  O         28.7180  -14.5990   59.6970 O.2    86  THR86      -0.2717
     52  CB        31.2940  -12.6320   60.3050 C.3    86  THR86       0.1784
     53  OG1       30.1560  -12.2000   61.0890 O.3    86  THR86      -0.2211
     54  CG2       31.5140  -11.5620   59.1650 C.3    86  THR86       0.0376
     55  N         29.5300  -13.8960   57.7400 N.am   87  GLN87      -0.1979
     56  CA        28.2040  -14.0580   57.0390 C.3    87  GLN87       0.1601
     57  C         28.4090  -13.9710   55.5190 C.2    87  GLN87       0.2287
     58  O         29.4650  -13.5440   55.0550 O.2    87  GLN87      -0.2864
     59  CB        27.1700  -13.0350   57.5240 C.3    87  GLN87       0.0394
     60  CG        27.6260  -11.5750   57.3680 C.3    87  GLN87       0.0908
     61  CD        26.8650  -10.8110   56.3160 C.2    87  GLN87       0.2608
     62  OE1       26.3180   -9.7700   56.5890 O.2    87  GLN87      -0.2717
     63  NE2       26.7690  -11.3530   55.1510 N.am   87  GLN87      -0.0878
     64  N         25.8040  -12.8010   51.9690 N.3    89  HIS89      -0.1241
     65  CA        24.4760  -12.2120   51.6650 C.3    89  HIS89       0.1621
     66  C         24.5820  -11.7940   50.2320 C.2    89  HIS89       0.2264
     67  O         25.6630  -11.9420   49.6140 O.2    89  HIS89      -0.2867
     68  CB        24.2200  -11.0170   52.5650 C.3    89  HIS89       0.0745
     69  CG        25.2580   -9.9440   52.3580 C.ar   89  HIS89       0.0817
     70  ND1       26.3430   -9.8090   53.1800 N.ar   89  HIS89      -0.2268
     71  CD2       25.3850   -8.9880   51.3490 C.ar   89  HIS89       0.1154
     72  CE1       27.1380   -8.8120   52.6820 C.ar   89  HIS89       0.1986
     73  NE2       26.5350   -8.2980   51.5770 N.ar   89  HIS89      -0.2212
     74  N         23.1180   -9.2000   46.6510 N.3    91  HIS91      -0.1241
     75  CA        22.5670   -7.9140   46.2060 C.3    91  HIS91       0.1621
     76  C         22.0160   -8.2320   44.8590 C.2    91  HIS91       0.2264
     77  O         22.5990   -9.0590   44.0880 O.2    91  HIS91      -0.2867
     78  CB        23.6780   -6.8860   46.0300 C.3    91  HIS91       0.0745
     79  CG        24.3490   -6.5430   47.3210 C.ar   91  HIS91       0.0817
     80  ND1       23.8640   -5.6020   48.1630 N.ar   91  HIS91      -0.2268
     81  CD2       25.4510   -7.1340   47.9630 C.ar   91  HIS91       0.1154
     82  CE1       24.6700   -5.5190   49.2600 C.ar   91  HIS91       0.1986
     83  NE2       25.6420   -6.4720   49.1310 N.ar   91  HIS91      -0.2212
     84  N         28.3590  -11.7230   48.4190 N.3   115  HIS115     -0.1241
     85  CA        29.4570  -11.3180   49.2710 C.3   115  HIS115      0.1621
     86  C         29.6300  -12.2620   50.4130 C.2   115  HIS115      0.2264
     87  O         28.6860  -12.5410   51.1340 O.2   115  HIS115     -0.2867
     88  CB        29.1670   -9.9760   49.8110 C.3   115  HIS115      0.0745
     89  CG        29.2420   -8.8900   48.7660 C.ar  115  HIS115      0.0817
     90  ND1       28.6060   -7.7040   48.9060 N.ar  115  HIS115     -0.2268
     91  CD2       29.8480   -8.8880   47.5150 C.ar  115  HIS115      0.1154
     92  CE1       28.8280   -6.9610   47.7930 C.ar  115  HIS115      0.1986
     93  NE2       29.5750   -7.6650   46.9470 N.ar  115  HIS115     -0.2212
     94  N         31.6200  -12.3600   53.7870 N.3   117  VAL117     -0.1245
     95  CA        32.2800  -11.4200   54.6680 C.3   117  VAL117      0.1561
     96  C         33.0920  -12.1540   55.7210 C.2   117  VAL117      0.2260
     97  O         32.6060  -13.0910   56.3330 O.2   117  VAL117     -0.2867
     98  CB        31.2680  -10.5540   55.3850 C.3   117  VAL117      0.0252
     99  CG1       31.9920   -9.4490   56.1860 C.3   117  VAL117      0.0019
    100  CG2       30.2720   -9.9170   54.3870 C.3   117  VAL117      0.0019
    101  N         33.7580  -10.1070   64.3590 N.3   127  ALA127     -0.1231
    102  CA        33.4130   -9.2340   63.2680 C.3   127  ALA127      0.1694
    103  C         32.9410   -7.8470   63.7070 C.2   127  ALA127      0.2592
    104  O         33.2550   -6.8580   63.0490 O.2   127  ALA127     -0.2718
    105  CB        32.3270   -9.9060   62.4080 C.3   127  ALA127      0.0304
    106  N         32.1300   -7.7750   64.7690 N.am  128  SER128     -0.1952
    107  CA        31.6440   -6.4650   65.2040 C.3   128  SER128      0.1924
    108  C         32.7930   -5.5020   65.5980 C.2   128  SER128      0.2314
    109  O         32.8500   -4.3640   65.1260 O.2   128  SER128     -0.2863
    110  CB        30.6310   -6.5890   66.3390 C.3   128  SER128      0.2116
    111  OG        30.3910   -5.2700   66.7940 O.3   128  SER128     -0.2180
    112  N         34.9050   -4.5560   62.3960 N.3   131  SER131     -0.1217
    113  CA        34.1780   -3.8900   61.3180 C.3   131  SER131      0.1889
    114  C         34.6370   -2.4590   61.0880 C.2   131  SER131      0.2288
    115  O         34.7790   -2.0050   59.9590 O.2   131  SER131     -0.2866
    116  CB        32.6720   -3.8980   61.6350 C.3   131  SER131      0.2089
    117  OG        31.9280   -3.2660   60.6080 O.3   131  SER131     -0.2183
    118  N         38.1870   -6.0970   57.8640 N.3   137  LEU137     -0.1245
    119  CA        37.3370   -6.9850   57.1040 C.3   137  LEU137      0.1561
    120  C         37.8800   -7.3460   55.7520 C.2   137  LEU137      0.2260
    121  O         38.6330   -6.5880   55.1500 O.2   137  LEU137     -0.2867
    122  CB        35.9790   -6.2700   56.8800 C.3   137  LEU137      0.0270
    123  CG        35.1530   -5.9470   58.1420 C.3   137  LEU137      0.0019
    124  CD1       33.9060   -5.1690   57.7300 C.3   137  LEU137      0.0001
    125  CD2       34.7290   -7.2520   58.8230 C.3   137  LEU137      0.0001
    126  N         36.1400   -9.0690   52.1470 N.3   139  VAL139     -0.1301
    127  CA        34.9800   -9.6580   51.5260 C.3   139  VAL139      0.1246
    128  C         35.3290  -10.2950   50.2010 C.3   139  VAL139      0.2009
    129  O         36.1200   -9.6860   49.3760 O.3   139  VAL139     -0.2188
    130  CB        33.8910   -8.5790   51.3370 C.3   139  VAL139      0.0202
    131  CG1       32.6150   -9.2020   50.6910 C.3   139  VAL139      0.0016
    132  CG2       33.5870   -8.0010   52.6960 C.3   139  VAL139      0.0016
    133  N         32.6100   -1.0480   53.4280 N.3   195  LEU195     -0.1231
    134  CA        31.2640   -1.6300   53.3830 C.3   195  LEU195      0.1693
    135  C         30.4540   -0.8330   52.3500 C.2   195  LEU195      0.2593
    136  O         30.5590    0.3750   52.2360 O.2   195  LEU195     -0.2718
    137  CB        30.5520   -1.5130   54.7390 C.3   195  LEU195      0.0284
    138  CG        31.2630   -2.2410   55.9160 C.3   195  LEU195      0.0019
    139  CD1       30.5610   -1.9620   57.2450 C.3   195  LEU195      0.0001
    140  CD2       31.2260   -3.7210   55.6610 C.3   195  LEU195      0.0001
    141  N         29.5720   -1.5140   51.6510 N.am  196  THR196     -0.1939
    142  CA        28.7760   -0.8740   50.5860 C.3   196  THR196      0.2028
    143  C         27.3910   -0.5400   51.1400 C.2   196  THR196      0.2643
    144  O         26.4790   -0.1050   50.3780 O.2   196  THR196     -0.2714
    145  CB        28.5760   -1.8120   49.3660 C.3   196  THR196      0.1808
    146  OG1       27.8140   -2.9620   49.7460 O.3   196  THR196     -0.2208
    147  CG2       29.9110   -2.2960   48.7280 C.3   196  THR196      0.0379
    148  N         27.2130   -0.7330   52.4520 N.am  197  THR197     -0.1937
    149  CA        25.9850   -0.2840   53.1220 C.3   197  THR197      0.2013
    150  C         26.4330    0.4820   54.3680 C.2   197  THR197      0.2484
    151  O         27.5500    0.3360   54.8190 O.2   197  THR197     -0.2729
    152  CB        25.0360   -1.4170   53.5910 C.3   197  THR197      0.1807
    153  OG1       25.7040   -2.1290   54.6290 O.3   197  THR197     -0.2208
    154  CG2       24.7220   -2.4750   52.4760 C.3   197  THR197      0.0379
    155  N         25.5400    1.3090   54.9150 N.am  198  PRO198     -0.2715
    156  CA        25.8330    1.9430   56.1830 C.3   198  PRO198      0.1521
    157  C         26.2790    0.8510   57.1760 C.2   198  PRO198      0.2440
    158  O         25.6800   -0.2080   57.2120 O.2   198  PRO198     -0.2731
    159  CB        24.4890    2.5280   56.5880 C.3   198  PRO198      0.0310
    160  CG        23.8240    2.8650   55.2550 C.3   198  PRO198      0.0237
    161  CD        24.2130    1.6660   54.3990 C.3   198  PRO198      0.0939
    162  N         27.2930    1.1450   58.0200 N.am  199  PRO199     -0.2727
    163  CA        27.8900    2.4830   58.1660 C.3   199  PRO199      0.1402
    164  C         29.0210    2.8650   57.1670 C.2   199  PRO199      0.2269
    165  O         29.6540    3.9280   57.3610 O.2   199  PRO199     -0.2865
    166  CB        28.4820    2.4350   59.6230 C.3   199  PRO199      0.0296
    167  CG        28.7880    0.9800   59.8270 C.3   199  PRO199      0.0237
    168  CD        27.7650    0.1880   59.0600 C.3   199  PRO199      0.0939
    169  N         37.3710   -2.4770   54.3960 N.3   204  VAL204     -0.1245
    170  CA        37.2740   -3.7350   53.6610 C.3   204  VAL204      0.1561
    171  C         38.3650   -3.9450   52.6410 C.2   204  VAL204      0.2260
    172  O         38.5840   -3.1160   51.7460 O.2   204  VAL204     -0.2867
    173  CB        35.8860   -3.8560   52.9230 C.3   204  VAL204      0.0252
    174  CG1       35.8300   -5.1470   52.1070 C.3   204  VAL204      0.0019
    175  CG2       34.7370   -3.7020   53.9540 C.3   204  VAL204      0.0019
    176  N         38.7140   -5.8540   49.4660 N.3   206  TRP206     -0.1241
    177  CA        37.8140   -6.5570   48.5380 C.3   206  TRP206      0.1605
    178  C         38.5980   -7.4460   47.6510 C.2   206  TRP206      0.2264
    179  O         39.6550   -7.0290   47.1390 O.2   206  TRP206     -0.2867
    180  CB        37.0960   -5.5010   47.6070 C.3   206  TRP206      0.0550
    181  CG        35.9970   -4.8710   48.3480 C.ar  206  TRP206      0.0003
    182  CD1       35.9860   -3.6390   48.9990 C.ar  206  TRP206      0.0946
    183  CD2       34.6480   -5.4060   48.4620 C.ar  206  TRP206      0.0152
    184  NE1       34.7650   -3.4280   49.6160 N.ar  206  TRP206     -0.2442
    185  CE2       33.8960   -4.4570   49.2560 C.ar  206  TRP206      0.0810
    186  CE3       34.0170   -6.5500   47.9680 C.ar  206  TRP206      0.0012
    187  CZ2       32.5640   -4.6590   49.5740 C.ar  206  TRP206      0.0191
    188  CZ3       32.6620   -6.7440   48.2940 C.ar  206  TRP206      0.0001
    189  CH2       31.9670   -5.8450   49.1070 C.ar  206  TRP206      0.0015
@<TRIPOS>BOND
     1    77    76    2
     2    76    75    1
     3    78    75    1
     4    78    79    1
     5    75    74    1
     6    93    91   ar
     7    93    92   ar
     8   179   178    2
     9    79    81   ar
    10    79    80   ar
    11    91    89   ar
    12   180   181    1
    13   180   177    1
    14   178   177    1
    15    92    90   ar
    16    81    83   ar
    17   186   188   ar
    18   186   183   ar
    19    80    82   ar
    20   188   189   ar
    21   181   183   ar
    22   181   182   ar
    23    84    85    1
    24   183   185   ar
    25   177   176    1
    26   147   145    1
    27    89    90   ar
    28    89    88    1
    29   182   184   ar
    30   189   187   ar
    31    83    82   ar
    32   185   187   ar
    33   185   184   ar
    34    85    88    1
    35    85    86    1
    36   145   146    1
    37   145   142    1
    38   129   128    1
    39    67    66    2
    40   128   127    1
    41    66    65    1
    42   144   143    2
    43    86    87    2
    44   142   143    1
    45   142   141    1
    46   131   130    1
    47   143   148   am
    48    38    37    1
    49   130   127    1
    50   130   132    1
    51    71    73   ar
    52    71    69   ar
    53    26    25    2
    54   127   126    1
    55    73    72   ar
    56   141   135   am
    57    65    64    1
    58    65    68    1
    59   172   171    2
    60    37    34    1
    61   174   173    1
    62   136   135    2
    63    34    35    1
    64    34    33    1
    65   135   134    1
    66    69    68    1
    67    69    70   ar
    68   148   149    1
    69   154   152    1
    70    25    33   am
    71    25    24    1
    72   171   170    1
    73    72    70   ar
    74    35    36    2
    75   173   170    1
    76   173   175    1
    77   149   152    1
    78   149   150    1
    79    13    11   ar
    80    13    14   ar
    81   134   133    1
    82   134   137    1
    83    24    27    1
    84    24    23    1
    85   152   153    1
    86   170   169    1
    87    94    95    1
    88    11     8   ar
    89    14    12   ar
    90    27    28    1
    91   150   151    2
    92   150   155   am
    93   100    98    1
    94   161   155    1
    95   161   160    1
    96    39    40    1
    97    95    98    1
    98    95    96    1
    99     3     4    2
   100     3     2    1
   101   137   138    1
   102   155   156    1
   103    40    41    1
   104    40    43    1
   105    29    28   ar
   106    29    31   ar
   107    58    57    2
   108   121   120    2
   109    63    61   am
   110     8    10   ar
   111     8     6   ar
   112   160   159    1
   113    28    30   ar
   114    98    99    1
   115    12    10   ar
   116    57    56    1
   117   140   138    1
   118     2     5    1
   119     2     1    1
   120     5     6    1
   121    41    42    2
   122    96    97    2
   123   120   119    1
   124    21    20    2
   125    43    44    1
   126   138   139    1
   127    10     9   ar
   128     6     7   ar
   129   156   159    1
   130   156   157    1
   131    31    32   ar
   132    61    62    2
   133    61    60    1
   134    30    32   ar
   135    20    22   am
   136    20    19    1
   137   122   119    1
   138   122   123    1
   139    15    16    1
   140    56    59    1
   141    56    55    1
   142    44    45    1
   143   119   118    1
   144   164   165    2
   145   164   163    1
   146   157   158    2
   147   157   162   am
   148     9     7   ar
   149    60    59    1
   150    17    16    1
   151    17    18    2
   152   124   123    1
   153    55    50   am
   154    16    19    1
   155   162   163    1
   156   162   168    1
   157   123   125    1
   158   163   166    1
   159    45    46    1
   160    48    49    1
   161    50    51    2
   162    50    49    1
   163   168   167    1
   164    54    52    1
   165    46    47    1
   166   166   167    1
   167    49    52    1
   168   115   114    2
   169    52    53    1
   170   117   116    1
   171   114   113    1
   172   113   116    1
   173   113   112    1
   174   105   102    1
   175   104   103    2
   176   102   103    1
   177   102   101    1
   178   103   106   am
   179   106   107    1
   180   109   108    2
   181   107   108    1
   182   107   110    1
   183   110   111    1
