@<TRIPOS>MOLECULE
tmp/4qjpA01.pdb
 207 203 0 0 0
SMALL
GASTEIGER

@<TRIPOS>ATOM
      1  N        -48.2610  -42.4690   28.0940 N.3     2  TRP2       -0.1241
      2  CA       -47.0590  -42.9040   28.8470 C.3     2  TRP2        0.1605
      3  C        -46.6480  -41.7400   29.7500 C.2     2  TRP2        0.2264
      4  O        -47.0310  -40.6040   29.5300 O.2     2  TRP2       -0.2867
      5  CB       -45.9130  -43.3130   27.8930 C.3     2  TRP2        0.0550
      6  CG       -45.4400  -42.1310   27.0710 C.ar    2  TRP2        0.0003
      7  CD1      -45.9160  -41.6790   25.8370 C.ar    2  TRP2        0.0946
      8  CD2      -44.4020  -41.1770   27.4520 C.ar    2  TRP2        0.0152
      9  NE1      -45.2380  -40.5490   25.4420 N.ar    2  TRP2       -0.2442
     10  CE2      -44.3130  -40.1960   26.3680 C.ar    2  TRP2        0.0810
     11  CE3      -43.5570  -41.0450   28.5430 C.ar    2  TRP2        0.0012
     12  CZ2      -43.4100  -39.1450   26.4030 C.ar    2  TRP2        0.0191
     13  CZ3      -42.6520  -39.9850   28.5680 C.ar    2  TRP2        0.0001
     14  CH2      -42.5810  -39.0590   27.5240 C.ar    2  TRP2        0.0015
     15  N        -45.0180  -29.9430   27.8990 N.3    59  SER59      -0.1217
     16  CA       -45.4740  -31.0940   27.1100 C.3    59  SER59       0.1889
     17  C        -46.1410  -32.1520   27.9610 C.2    59  SER59       0.2288
     18  O        -46.6630  -33.1430   27.3990 O.2    59  SER59      -0.2866
     19  CB       -44.2270  -31.7970   26.5240 C.3    59  SER59       0.2089
     20  OG       -43.4010  -32.4160   27.6030 O.3    59  SER59      -0.2183
     21  N        -44.2960  -33.8810   30.0420 N.3    61  HIS61      -0.1226
     22  CA       -43.1700  -34.7280   30.3710 C.3    61  HIS61       0.1752
     23  C        -41.9270  -33.9350   30.7140 C.2    61  HIS61       0.2596
     24  O        -40.9970  -34.5600   31.1710 O.2    61  HIS61      -0.2718
     25  CB       -42.8430  -35.6470   29.1400 C.3    61  HIS61       0.0759
     26  CG       -44.0380  -36.2050   28.5140 C.ar   61  HIS61       0.0818
     27  ND1      -44.8460  -37.0740   29.1810 N.ar   61  HIS61      -0.2268
     28  CD2      -44.5880  -36.0190   27.2420 C.ar   61  HIS61       0.1154
     29  CE1      -45.8900  -37.4430   28.3630 C.ar   61  HIS61       0.1986
     30  NE2      -45.7230  -36.8060   27.1780 N.ar   61  HIS61      -0.2212
     31  N        -41.9160  -32.6280   30.3920 N.am   62  SER62      -0.1952
     32  CA       -40.8080  -31.6760   30.7180 C.3    62  SER62       0.1924
     33  C        -41.2630  -30.3040   30.2230 C.2    62  SER62       0.2314
     34  O        -42.4290  -30.1560   29.7150 O.2    62  SER62      -0.2863
     35  CB       -39.4200  -32.0580   30.0160 C.3    62  SER62       0.2116
     36  OG       -38.3400  -31.2270   30.4690 O.3    62  SER62      -0.2180
     37  N        -40.4200  -27.7260   27.1320 N.3    64  ASN64      -0.1240
     38  CA       -39.6620  -27.8160   25.8610 C.3    64  ASN64       0.1653
     39  C        -39.5210  -26.4240   25.3390 C.2    64  ASN64       0.2266
     40  O        -40.5290  -25.6750   25.1580 O.2    64  ASN64      -0.2867
     41  CB       -40.5410  -28.5010   24.7940 C.3    64  ASN64       0.1155
     42  CG       -40.7150  -29.9730   24.9720 C.2    64  ASN64       0.2627
     43  OD1      -39.8620  -30.6210   25.6750 O.2    64  ASN64      -0.2716
     44  ND2      -41.8020  -30.5230   24.5020 N.am   64  ASN64      -0.0877
     45  N        -33.3470  -28.0570   17.2870 N.3    88  ARG88      -0.1231
     46  CA       -34.8010  -28.1980   17.3270 C.3    88  ARG88       0.1694
     47  C        -35.4130  -27.8250   18.6530 C.2    88  ARG88       0.2591
     48  O        -36.4000  -27.0870   18.6790 O.2    88  ARG88      -0.2718
     49  CB       -35.1150  -29.6730   16.9830 C.3    88  ARG88       0.0321
     50  CG       -36.5680  -30.0570   17.2450 C.3    88  ARG88       0.0489
     51  CD       -37.5020  -29.4260   16.2590 C.3    88  ARG88       0.2205
     52  NE       -38.8240  -30.0900   16.3940 N.pl3  88  ARG88      -0.0865
     53  CZ       -39.7750  -30.0290   15.4650 C.cat  88  ARG88       0.5346
     54  NH1      -39.5180  -29.3520   14.3320 N.pl3  88  ARG88       0.1354
     55  NH2      -40.9350  -30.6540   15.6590 N.pl3  88  ARG88       0.1354
     56  N        -34.8570  -28.3460   19.7820 N.am   89  GLN89      -0.1979
     57  CA       -35.5130  -28.1620   21.0530 C.3    89  GLN89       0.1601
     58  C        -34.5760  -28.3920   22.2270 C.2    89  GLN89       0.2287
     59  O        -33.5480  -29.1010   22.0210 O.2    89  GLN89      -0.2864
     60  CB       -36.8360  -28.9090   21.0830 C.3    89  GLN89       0.0394
     61  CG       -36.7100  -30.3210   21.1310 C.3    89  GLN89       0.0908
     62  CD       -36.9700  -30.7570   22.5390 C.2    89  GLN89       0.2608
     63  OE1      -36.0310  -30.7340   23.3330 O.2    89  GLN89      -0.2717
     64  NE2      -38.1390  -31.1760   22.8460 N.am   89  GLN89      -0.0878
     65  N        -34.7850  -29.4290   26.5030 N.3    91  HIS91      -0.1241
     66  CA       -35.6800  -29.8330   27.6670 C.3    91  HIS91       0.1621
     67  C        -34.7590  -30.3650   28.7310 C.2    91  HIS91       0.2264
     68  O        -33.5160  -30.4340   28.5870 O.2    91  HIS91      -0.2867
     69  CB       -36.7100  -30.8680   27.1800 C.3    91  HIS91       0.0745
     70  CG       -36.0930  -32.1030   26.7090 C.ar   91  HIS91       0.0817
     71  ND1      -35.8130  -32.3450   25.3580 N.ar   91  HIS91      -0.2268
     72  CD2      -35.6210  -33.1920   27.4200 C.ar   91  HIS91       0.1154
     73  CE1      -35.1340  -33.5050   25.2630 C.ar   91  HIS91       0.1986
     74  NE2      -35.0540  -34.0590   26.5180 N.ar   91  HIS91      -0.2212
     75  N        -34.3260  -33.1640   32.3490 N.3    93  HIS93      -0.1241
     76  CA       -34.7700  -34.3460   33.1340 C.3    93  HIS93       0.1621
     77  C        -34.2780  -34.1140   34.5770 C.2    93  HIS93       0.2264
     78  O        -33.2080  -33.6310   34.7810 O.2    93  HIS93      -0.2867
     79  CB       -34.2330  -35.6250   32.6160 C.3    93  HIS93       0.0745
     80  CG       -34.6150  -35.9070   31.1730 C.ar   93  HIS93       0.0817
     81  ND1      -35.8060  -36.5060   30.8480 N.ar   93  HIS93      -0.2268
     82  CD2      -33.9570  -35.5860   29.9750 C.ar   93  HIS93       0.1154
     83  CE1      -35.8600  -36.6880   29.4760 C.ar   93  HIS93       0.1986
     84  NE2      -34.7920  -36.0340   28.9450 N.ar   93  HIS93      -0.2212
     85  N        -31.0410  -31.5990   27.7390 N.3   116  HIS116     -0.1241
     86  CA       -30.7910  -32.1980   26.4440 C.3   116  HIS116      0.1621
     87  C        -31.0700  -31.1490   25.3830 C.2   116  HIS116      0.2264
     88  O        -32.0950  -30.4430   25.4340 O.2   116  HIS116     -0.2867
     89  CB       -31.7460  -33.3880   26.2040 C.3   116  HIS116      0.0745
     90  CG       -31.3580  -34.6100   27.0080 C.ar  116  HIS116      0.0817
     91  ND1      -32.2130  -35.6150   27.2890 N.ar  116  HIS116     -0.2268
     92  CD2      -30.1510  -34.9480   27.6140 C.ar  116  HIS116      0.1154
     93  CE1      -31.5790  -36.5470   28.0260 C.ar  116  HIS116      0.1986
     94  NE2      -30.3190  -36.1370   28.2240 N.ar  116  HIS116     -0.2212
     95  N        -31.5930  -30.9530   21.3880 N.3   118  VAL118     -0.1245
     96  CA       -31.9330  -31.9070   20.3310 C.3   118  VAL118      0.1561
     97  C        -31.7650  -31.2000   18.9360 C.2   118  VAL118      0.2260
     98  O        -32.2290  -30.0820   18.7620 O.2   118  VAL118     -0.2867
     99  CB       -33.3990  -32.3520   20.4970 C.3   118  VAL118      0.0252
    100  CG1      -33.7870  -33.3320   19.4140 C.3   118  VAL118      0.0019
    101  CG2      -33.6040  -33.0400   21.8810 C.3   118  VAL118      0.0019
    102  N        -37.6550  -32.6630   11.0450 N.3   128  PHE128     -0.1227
    103  CA       -37.2610  -33.3040   12.3040 C.3   128  PHE128      0.1736
    104  C        -37.9710  -34.6580   12.4420 C.2   128  PHE128      0.2595
    105  O        -37.3830  -35.6850   12.8110 O.2   128  PHE128     -0.2718
    106  CB       -37.7110  -32.4060   13.4390 C.3   128  PHE128      0.0547
    107  CG       -37.6010  -33.0530   14.7810 C.ar  128  PHE128     -0.0202
    108  CD1      -36.3260  -33.3080   15.3210 C.ar  128  PHE128     -0.0042
    109  CD2      -38.7460  -33.4710   15.4440 C.ar  128  PHE128     -0.0042
    110  CE1      -36.2040  -33.8790   16.5900 C.ar  128  PHE128     -0.0003
    111  CE2      -38.6440  -34.0600   16.7330 C.ar  128  PHE128     -0.0003
    112  CZ       -37.3310  -34.2630   17.2750 C.ar  128  PHE128     -0.0000
    113  N        -39.2550  -34.7130   12.1130 N.am  129  VAL129     -0.1980
    114  CA       -40.0250  -35.8860   12.3520 C.3   129  VAL129      0.1595
    115  C        -39.5480  -37.0250   11.4740 C.2   129  VAL129      0.2287
    116  O        -39.4180  -38.1440   11.9160 O.2   129  VAL129     -0.2864
    117  CB       -41.5610  -35.6140   12.1940 C.3   129  VAL129      0.0276
    118  CG1      -42.2890  -36.9330   12.3580 C.3   129  VAL129      0.0022
    119  CG2      -42.0210  -34.6820   13.3030 C.3   129  VAL129      0.0022
    120  N        -36.0070  -38.1970   12.8010 N.3   132  ALA132     -0.1231
    121  CA       -36.1620  -39.0910   13.9890 C.3   132  ALA132      0.1694
    122  C        -36.3070  -40.5690   13.6970 C.2   132  ALA132      0.2592
    123  O        -36.1220  -41.3970   14.6330 O.2   132  ALA132     -0.2718
    124  CB       -37.3170  -38.6410   14.8590 C.3   132  ALA132      0.0304
    125  N        -36.6060  -40.9890   12.4460 N.am  133  HIS133     -0.1976
    126  CA       -36.6900  -42.3620   12.1000 C.3   133  HIS133      0.1656
    127  C        -35.4940  -42.8590   11.2960 C.2   133  HIS133      0.2291
    128  O        -35.6190  -43.8620   10.5850 O.2   133  HIS133     -0.2864
    129  CB       -37.9880  -42.5890   11.2720 C.3   133  HIS133      0.0771
    130  CG       -39.2420  -42.3130   12.0580 C.ar  133  HIS133      0.0820
    131  ND1      -39.9410  -43.2940   12.6850 N.ar  133  HIS133     -0.2267
    132  CD2      -39.9140  -41.1370   12.3150 C.ar  133  HIS133      0.1154
    133  CE1      -41.0040  -42.7660   13.3010 C.ar  133  HIS133      0.1986
    134  NE2      -40.9940  -41.4720   13.1110 N.ar  133  HIS133     -0.2212
    135  N        -30.6620  -37.8330   14.1950 N.3   138  LEU138     -0.1245
    136  CA       -30.6930  -36.9260   15.3330 C.3   138  LEU138      0.1561
    137  C        -29.3300  -36.8420   16.0510 C.2   138  LEU138      0.2260
    138  O        -28.5540  -37.8490   16.0670 O.2   138  LEU138     -0.2867
    139  CB       -31.7470  -37.3300   16.4240 C.3   138  LEU138      0.0270
    140  CG       -33.1550  -37.4530   15.8580 C.3   138  LEU138      0.0019
    141  CD1      -34.1430  -37.8000   17.0050 C.3   138  LEU138      0.0001
    142  CD2      -33.6660  -36.1450   15.1980 C.3   138  LEU138      0.0001
    143  N        -27.9870  -35.3770   19.9510 N.3   140  VAL140     -0.1245
    144  CA       -28.4870  -34.7440   21.1850 C.3   140  VAL140      0.1561
    145  C        -27.2680  -34.4690   22.0290 C.2   140  VAL140      0.2260
    146  O        -26.4770  -35.4150   22.2560 O.2   140  VAL140     -0.2867
    147  CB       -29.5220  -35.6330   21.9300 C.3   140  VAL140      0.0252
    148  CG1      -29.9950  -34.8230   23.1540 C.3   140  VAL140      0.0019
    149  CG2      -30.7510  -35.8960   21.0130 C.3   140  VAL140      0.0019
    150  N        -33.8960  -42.0020   21.4290 N.3   195  LEU195     -0.1231
    151  CA       -34.6760  -41.0270   22.2580 C.3   195  LEU195      0.1693
    152  C        -34.8500  -41.7700   23.6020 C.2   195  LEU195      0.2593
    153  O        -35.0530  -42.9610   23.6890 O.2   195  LEU195     -0.2718
    154  CB       -36.0700  -40.8610   21.7420 C.3   195  LEU195      0.0284
    155  CG       -36.0920  -40.3330   20.2510 C.3   195  LEU195      0.0019
    156  CD1      -37.5810  -40.2860   19.8630 C.3   195  LEU195      0.0001
    157  CD2      -35.5360  -38.9390   20.2430 C.3   195  LEU195      0.0001
    158  N        -34.8720  -40.9930   24.6580 N.am  196  THR196     -0.1939
    159  CA       -35.0740  -41.5980   26.0320 C.3   196  THR196      0.2028
    160  C        -36.5250  -41.5180   26.4480 C.2   196  THR196      0.2642
    161  O        -36.8360  -41.7830   27.6500 O.2   196  THR196     -0.2714
    162  CB       -34.1330  -40.9270   27.0960 C.3   196  THR196      0.1808
    163  OG1      -34.5890  -39.6030   27.3910 O.3   196  THR196     -0.2208
    164  CG2      -32.7120  -40.8510   26.6040 C.3   196  THR196      0.0379
    165  N        -37.3740  -41.0370   25.5670 N.am  197  VAL197     -0.1963
    166  CA       -38.8470  -41.0270   25.7690 C.3   197  VAL197      0.1712
    167  C        -39.4910  -41.7750   24.6320 C.2   197  VAL197      0.2458
    168  O        -38.8760  -41.8160   23.5600 O.2   197  VAL197     -0.2730
    169  CB       -39.3740  -39.6140   25.8300 C.3   197  VAL197      0.0289
    170  CG1      -38.8330  -38.8660   27.0570 C.3   197  VAL197      0.0023
    171  CG2      -39.1310  -38.7580   24.5750 C.3   197  VAL197      0.0023
    172  N        -40.6380  -42.4460   24.8710 N.am  198  PRO198     -0.2716
    173  CA       -41.4470  -42.9120   23.7220 C.3   198  PRO198      0.1521
    174  C        -41.5130  -41.7950   22.6620 C.2   198  PRO198      0.2440
    175  O        -41.7690  -40.6490   22.8840 O.2   198  PRO198     -0.2731
    176  CB       -42.8110  -43.1990   24.3750 C.3   198  PRO198      0.0310
    177  CG       -42.4100  -43.6030   25.8260 C.3   198  PRO198      0.0237
    178  CD       -41.3630  -42.5290   26.1760 C.3   198  PRO198      0.0939
    179  N        -41.3080  -42.1990   21.3730 N.am  199  PRO199     -0.2727
    180  CA       -41.2680  -43.5780   20.9060 C.3   199  PRO199      0.1402
    181  C        -39.9170  -44.3330   20.9240 C.2   199  PRO199      0.2269
    182  O        -39.8170  -45.4520   20.3040 O.2   199  PRO199     -0.2865
    183  CB       -41.7630  -43.4130   19.4190 C.3   199  PRO199      0.0296
    184  CG       -41.2850  -42.0430   19.0170 C.3   199  PRO199      0.0237
    185  CD       -41.3920  -41.1930   20.3080 C.3   199  PRO199      0.0939
    186  N        -37.0710  -44.0570   19.5640 N.3   201  LEU201     -0.1245
    187  CA       -36.4360  -44.4510   18.2550 C.3   201  LEU201      0.1561
    188  C        -34.9020  -44.4290   18.3610 C.2   201  LEU201      0.2260
    189  O        -34.3020  -43.5390   18.9650 O.2   201  LEU201     -0.2867
    190  CB       -36.8930  -43.4620   17.1310 C.3   201  LEU201      0.0270
    191  CG       -38.4240  -43.5490   17.0080 C.3   201  LEU201      0.0019
    192  CD1      -38.8930  -42.2330   16.2960 C.3   201  LEU201      0.0001
    193  CD2      -38.7740  -44.8020   16.2520 C.3   201  LEU201      0.0001
    194  N        -25.5330  -39.6120   20.4240 N.3   206  TRP206     -0.1241
    195  CA       -25.4080  -38.8820   21.7530 C.3   206  TRP206      0.1605
    196  C        -24.0410  -38.2200   21.9200 C.2   206  TRP206      0.2264
    197  O        -23.0350  -38.8430   21.6280 O.2   206  TRP206     -0.2867
    198  CB       -25.6600  -39.9180   22.8910 C.3   206  TRP206      0.0550
    199  CG       -27.1110  -40.0710   23.0950 C.ar  206  TRP206      0.0003
    200  CD1      -27.9650  -41.0470   22.6410 C.ar  206  TRP206      0.0946
    201  CD2      -27.9330  -39.1500   23.8960 C.ar  206  TRP206      0.0152
    202  NE1      -29.2750  -40.7320   23.0400 N.ar  206  TRP206     -0.2442
    203  CE2      -29.3230  -39.6270   23.7880 C.ar  206  TRP206      0.0810
    204  CE3      -27.6550  -37.9520   24.6220 C.ar  206  TRP206      0.0012
    205  CZ2      -30.3840  -38.9570   24.3990 C.ar  206  TRP206      0.0191
    206  CZ3      -28.7380  -37.2670   25.1990 C.ar  206  TRP206      0.0001
    207  CH2      -30.0690  -37.7830   25.1460 C.ar  206  TRP206      0.0015
@<TRIPOS>BOND
     1   128   127    2
     2   102   103    1
     3   129   130    1
     4   129   126    1
     5   127   126    1
     6   115   116    2
     7   115   114    1
     8   130   132   ar
     9   130   131   ar
    10   126   125    1
    11   113   114    1
    12   113   104   am
    13   117   114    1
    14   117   118    1
    15   117   119    1
    16   103   104    1
    17   103   106    1
    18   132   134   ar
    19   104   105    2
    20   125   122   am
    21   131   133   ar
    22   120   121    1
    23   134   133   ar
    24   106   107    1
    25   122   121    1
    26   122   123    2
    27   121   124    1
    28   135   136    1
    29    54    53    1
    30   107   108   ar
    31   107   109   ar
    32   142   140    1
    33   108   110   ar
    34   136   137    1
    35   136   139    1
    36   109   111   ar
    37    53    55    1
    38    53    52    2
    39   140   139    1
    40   140   141    1
    41   137   138    2
    42   193   191    1
    43    51    52    1
    44    51    50    1
    45   192   191    1
    46   110   112   ar
    47   111   112   ar
    48    49    50    1
    49    49    46    1
    50   191   190    1
    51   190   187    1
    52    45    46    1
    53    46    47    1
    54   187   188    1
    55   187   186    1
    56   188   189    2
    57    47    48    2
    58    47    56   am
    59    98    97    2
    60    97    96    1
    61   184   183    1
    62   184   185    1
    63   100    99    1
    64   183   180    1
    65    56    57    1
    66   156   155    1
    67   143   144    1
    68   157   155    1
    69   155   154    1
    70   182   181    2
    71   185   179    1
    72    96    99    1
    73    96    95    1
    74   194   195    1
    75    99   101    1
    76   180   181    1
    77   180   179    1
    78   149   147    1
    79    57    60    1
    80    57    58    1
    81    60    61    1
    82    61    62    1
    83   144   147    1
    84   144   145    1
    85   179   174   am
    86   150   151    1
    87   197   196    2
    88   154   151    1
    89   195   196    1
    90   195   198    1
    91   147   148    1
    92    59    58    2
    93   145   146    2
    94   151   152    1
    95    62    64   am
    96    62    63    2
    97   200   202   ar
    98   200   199   ar
    99   174   175    2
   100   174   173    1
   101   198   199    1
   102   202   203   ar
   103   199   201   ar
   104   168   167    2
   105   152   153    2
   106   152   158   am
   107   173   176    1
   108   173   172    1
   109   203   201   ar
   110   203   205   ar
   111   201   204   ar
   112   176   177    1
   113   205   207   ar
   114    44    42   am
   115   171   169    1
   116   204   206   ar
   117   167   172   am
   118   167   166    1
   119   158   159    1
   120    41    42    1
   121    41    38    1
   122   172   178    1
   123    42    43    2
   124   207   206   ar
   125    40    39    2
   126    73    71   ar
   127    73    74   ar
   128    39    38    1
   129    71    70   ar
   130    87    88    2
   131    87    86    1
   132     9     7   ar
   133     9    10   ar
   134   165   166    1
   135   165   160   am
   136   166   169    1
   137   177   178    1
   138   169   170    1
   139     7     6   ar
   140    38    37    1
   141   159   160    1
   142   159   162    1
   143    89    86    1
   144    89    90    1
   145    10    12   ar
   146    10     8   ar
   147    12    14   ar
   148    86    85    1
   149   160   161    2
   150    65    66    1
   151    74    72   ar
   152    19    16    1
   153    19    20    1
   154   164   162    1
   155    70    69    1
   156    70    72   ar
   157    90    91   ar
   158    90    92   ar
   159     6     8   ar
   160     6     5    1
   161   162   163    1
   162    16    15    1
   163    16    17    1
   164    30    28   ar
   165    30    29   ar
   166    69    66    1
   167    28    26   ar
   168    91    93   ar
   169    18    17    2
   170     8    11   ar
   171    14    13   ar
   172    92    94   ar
   173    66    67    1
   174     5     2    1
   175    93    94   ar
   176     1     2    1
   177    29    27   ar
   178    26    25    1
   179    26    27   ar
   180    11    13   ar
   181    68    67    2
   182     2     3    1
   183    84    83   ar
   184    84    82   ar
   185    25    22    1
   186    83    81   ar
   187     4     3    2
   188    34    33    2
   189    82    80   ar
   190    35    36    1
   191    35    32    1
   192    21    22    1
   193    33    32    1
   194    22    23    1
   195    31    23   am
   196    31    32    1
   197    23    24    2
   198    81    80   ar
   199    80    79    1
   200    75    76    1
   201    79    76    1
   202    76    77    1
   203    77    78    2
