@<TRIPOS>MOLECULE
tmp/4qjqA04.pdb
 94 92 0 0 0
SMALL
GASTEIGER

@<TRIPOS>ATOM
      1  N          9.0850    1.9680   17.9660 N.3   105  GLN105     -0.1245
      2  CA        10.0990    2.1010   16.9340 C.3   105  GLN105      0.1566
      3  C         11.4520    1.6420   17.4780 C.2   105  GLN105      0.2260
      4  O         12.1850    0.8930   16.8270 O.2   105  GLN105     -0.2867
      5  CB        10.2020    3.5460   16.4160 C.3   105  GLN105      0.0367
      6  CG        10.7270    3.6230   14.9970 C.3   105  GLN105      0.0905
      7  CD        10.9490    5.0500   14.4800 C.2   105  GLN105      0.2608
      8  OE1       10.8530    6.0330   15.2090 O.2   105  GLN105     -0.2717
      9  NE2       11.3080    5.1470   13.2190 N.am  105  GLN105     -0.0878
     10  N         13.5670   -1.6060   16.1400 N.3   109  HIS109     -0.1241
     11  CA        14.8400   -1.4180   15.5120 C.3   109  HIS109      0.1621
     12  C         15.8760   -2.3310   16.1630 C.2   109  HIS109      0.2264
     13  O         16.8510   -2.7750   15.5170 O.2   109  HIS109     -0.2867
     14  CB        15.2190    0.0810   15.5220 C.3   109  HIS109      0.0745
     15  CG        14.5220    0.8940   14.4510 C.ar  109  HIS109      0.0817
     16  ND1       14.9670    2.1350   14.0440 N.ar  109  HIS109     -0.2268
     17  CD2       13.4470    0.6180   13.6770 C.ar  109  HIS109      0.1154
     18  CE1       14.1910    2.5960   13.0800 C.ar  109  HIS109      0.1986
     19  NE2       13.2550    1.7000   12.8380 N.ar  109  HIS109     -0.2212
     20  N         15.6330   -5.7820   10.7740 N.3   113  PHE113     -0.1241
     21  CA        16.0230   -4.8630    9.7160 C.3   113  PHE113      0.1605
     22  C         16.3820   -5.6440    8.4710 C.2   113  PHE113      0.2264
     23  O         17.2810   -6.4770    8.4720 O.2   113  PHE113     -0.2867
     24  CB        17.1950   -3.9740   10.1510 C.3   113  PHE113      0.0534
     25  CG        17.5700   -2.8900    9.1470 C.ar  113  PHE113     -0.0203
     26  CD1       16.6150   -2.2360    8.3950 C.ar  113  PHE113     -0.0042
     27  CD2       18.8990   -2.5190    8.9900 C.ar  113  PHE113     -0.0042
     28  CE1       16.9810   -1.2310    7.5020 C.ar  113  PHE113     -0.0003
     29  CE2       19.2710   -1.5180    8.1080 C.ar  113  PHE113     -0.0003
     30  CZ        18.3120   -0.8620    7.3640 C.ar  113  PHE113     -0.0000
     31  N         21.5850    1.5900   11.6450 N.3   253  SER253     -0.1202
     32  CA        21.6160    2.5760   10.5460 C.3   253  SER253      0.2020
     33  C         20.5050    3.6790   10.5790 C.2   253  SER253      0.2618
     34  O         20.7400    4.8090   10.1740 O.2   253  SER253     -0.2717
     35  CB        21.5500    1.8580    9.1840 C.3   253  SER253      0.2103
     36  OG        22.7890    1.2460    8.8720 O.3   253  SER253     -0.2182
     37  N         19.3090    3.3480   11.0540 N.am  254  ARG254     -0.1979
     38  CA        18.1240    4.1900   10.8280 C.3   254  ARG254      0.1597
     39  C         17.8850    5.2710   11.8720 C.2   254  ARG254      0.2287
     40  O         16.8370    5.9410   11.8500 O.2   254  ARG254     -0.2864
     41  CB        16.8760    3.3110   10.7560 C.3   254  ARG254      0.0334
     42  CG        16.9070    2.1960    9.7320 C.3   254  ARG254      0.0492
     43  CD        15.9140    1.0530   10.0710 C.3   254  ARG254      0.2205
     44  NE        16.4580    0.1760   11.1170 N.pl3 254  ARG254     -0.0865
     45  CZ        15.8980   -0.9400   11.5880 C.cat 254  ARG254      0.5346
     46  NH1       14.7110   -1.3910   11.1610 N.pl3 254  ARG254      0.1354
     47  NH2       16.5310   -1.6040   12.5360 N.pl3 254  ARG254      0.1354
     48  N         16.4290    8.8040   11.1700 N.3   257  GLU257     -0.1245
     49  CA        15.2400    8.8560   10.3530 C.3   257  GLU257      0.1567
     50  C         14.1880    9.8430   10.8480 C.2   257  GLU257      0.2260
     51  O         13.5390   10.4660   10.0520 O.2   257  GLU257     -0.2867
     52  CB        14.6130    7.4980   10.1740 C.3   257  GLU257      0.0388
     53  CG        13.4470    7.5130    9.1710 C.3   257  GLU257      0.1160
     54  CD        12.0900    7.5380    9.8480 C.2   257  GLU257      0.3649
     55  OE1       11.9870    7.3170   11.0730 O.co2 257  GLU257     -0.2457
     56  OE2       11.1030    7.7740    9.1210 O.co2 257  GLU257     -0.2457
     57  N         15.1350   12.9270    8.9320 N.3   380  PHE380     -0.1241
     58  CA        16.5730   13.1000    8.7350 C.3   380  PHE380      0.1605
     59  C         17.0910   14.4660    9.1560 C.2   380  PHE380      0.2264
     60  O         17.9500   15.0540    8.5010 O.2   380  PHE380     -0.2867
     61  CB        16.9580   12.7280    7.3040 C.3   380  PHE380      0.0534
     62  CG        16.7110   11.2870    7.0160 C.ar  380  PHE380     -0.0203
     63  CD1       17.6130   10.3240    7.4400 C.ar  380  PHE380     -0.0042
     64  CD2       15.5480   10.8930    6.4470 C.ar  380  PHE380     -0.0042
     65  CE1       17.3690    8.9990    7.2160 C.ar  380  PHE380     -0.0003
     66  CE2       15.2750    9.5660    6.2390 C.ar  380  PHE380     -0.0003
     67  CZ        16.1710    8.6180    6.6430 C.ar  380  PHE380     -0.0000
     68  N         10.2510   11.2150    3.3180 N.3   421  PHE421     -0.1227
     69  CA        11.5150   11.4160    2.6710 C.3   421  PHE421      0.1736
     70  C         12.3310   10.1680    2.8140 C.2   421  PHE421      0.2595
     71  O         12.3530    9.5770    3.8470 O.2   421  PHE421     -0.2718
     72  CB        12.2660   12.5880    3.2870 C.3   421  PHE421      0.0547
     73  CG        13.5320   12.9440    2.5640 C.ar  421  PHE421     -0.0202
     74  CD1       13.5100   13.7990    1.4850 C.ar  421  PHE421     -0.0042
     75  CD2       14.7280   12.4060    2.9300 C.ar  421  PHE421     -0.0042
     76  CE1       14.6600   14.1200    0.8180 C.ar  421  PHE421     -0.0003
     77  CE2       15.8820   12.7240    2.2760 C.ar  421  PHE421     -0.0003
     78  CZ        15.8480   13.5820    1.2220 C.ar  421  PHE421     -0.0000
     79  N         12.9980    9.7570    1.7640 N.am  422  GLN422     -0.1966
     80  CA        13.8830    8.6230    1.8580 C.3   422  GLN422      0.1718
     81  C         15.2100    8.9960    1.2840 C.2   422  GLN422      0.2458
     82  O         15.2670    9.7890    0.3720 O.2   422  GLN422     -0.2730
     83  CB        13.3410    7.4640    1.0670 C.3   422  GLN422      0.0407
     84  CG        12.0190    6.9390    1.5290 C.3   422  GLN422      0.0908
     85  CD        12.1050    5.4990    1.9100 C.2   422  GLN422      0.2608
     86  OE1       11.6470    4.6400    1.2050 O.2   422  GLN422     -0.2717
     87  NE2       12.7230    5.2350    3.0330 N.am  422  GLN422     -0.0878
     88  N         16.2670    8.4290    1.8540 N.am  423  PRO423     -0.2727
     89  CA        17.6220    8.6660    1.3650 C.3   423  PRO423      0.1402
     90  C         17.7210    8.1190   -0.0420 C.2   423  PRO423      0.2269
     91  O         17.1420    7.0720   -0.3350 O.2   423  PRO423     -0.2865
     92  CB        18.4840    7.8370    2.3170 C.3   423  PRO423      0.0296
     93  CG        17.7030    7.8020    3.5850 C.3   423  PRO423      0.0237
     94  CD        16.2580    7.7720    3.1730 C.3   423  PRO423      0.0939
@<TRIPOS>BOND
     1    91    90    2
     2    90    89    1
     3    82    81    2
     4    76    78   ar
     5    76    74   ar
     6    83    84    1
     7    83    80    1
     8    86    85    2
     9    78    77   ar
    10    81    88   am
    11    81    80    1
    12    89    88    1
    13    89    92    1
    14    74    73   ar
    15    84    85    1
    16    79    80    1
    17    79    70   am
    18    88    94    1
    19    85    87   am
    20    77    75   ar
    21    92    93    1
    22    73    75   ar
    23    73    72    1
    24    69    70    1
    25    69    72    1
    26    69    68    1
    27    70    71    2
    28    94    93    1
    29    66    64   ar
    30    66    67   ar
    31    64    62   ar
    32    67    65   ar
    33    62    61    1
    34    62    63   ar
    35    65    63   ar
    36    61    58    1
    37    30    28   ar
    38    30    29   ar
    39    28    26   ar
    40    29    27   ar
    41    26    25   ar
    42    22    23    2
    43    22    21    1
    44    60    59    2
    45    58    57    1
    46    58    59    1
    47    36    35    1
    48    27    25   ar
    49    56    54   ar
    50    25    24    1
    51    53    54    1
    52    53    52    1
    53    35    32    1
    54    21    24    1
    55    21    20    1
    56    42    43    1
    57    42    41    1
    58    54    55   ar
    59    51    50    2
    60    43    44    1
    61    52    49    1
    62    34    33    2
    63    49    50    1
    64    49    48    1
    65    32    33    1
    66    32    31    1
    67    33    37   am
    68    41    38    1
    69    38    37    1
    70    38    39    1
    71    44    45    2
    72    46    45    1
    73    45    47    1
    74    40    39    2
    75    19    18   ar
    76    19    17   ar
    77    18    16   ar
    78     9     7   am
    79    17    15   ar
    80    16    15   ar
    81    15    14    1
    82     7     6    1
    83     7     8    2
    84     6     5    1
    85    11    14    1
    86    11    10    1
    87    11    12    1
    88    13    12    2
    89     5     2    1
    90     4     3    2
    91     2     3    1
    92     2     1    1
