@<TRIPOS>MOLECULE
tmp/4qjrA00.pdb
 138 131 0 0 0
SMALL
GASTEIGER

@<TRIPOS>ATOM
      1  N        -24.7080   26.7390  -10.3890 N.3    56  PHE56      -0.1227
      2  CA       -25.4060   26.1820   -9.2370 C.3    56  PHE56       0.1736
      3  C        -26.0240   24.8200   -9.5500 C.2    56  PHE56       0.2595
      4  O        -26.1340   23.9720   -8.6660 O.2    56  PHE56      -0.2718
      5  CB       -26.4660   27.1480   -8.7080 C.3    56  PHE56       0.0547
      6  CG       -27.1380   26.6690   -7.4540 C.ar   56  PHE56      -0.0202
      7  CD1      -26.3930   26.3660   -6.3240 C.ar   56  PHE56      -0.0042
      8  CD2      -28.5140   26.5200   -7.4030 C.ar   56  PHE56      -0.0042
      9  CE1      -27.0050   25.9190   -5.1740 C.ar   56  PHE56      -0.0003
     10  CE2      -29.1340   26.0770   -6.2490 C.ar   56  PHE56      -0.0003
     11  CZ       -28.3780   25.7760   -5.1350 C.ar   56  PHE56      -0.0000
     12  N        -26.4260   24.6190  -10.8040 N.am   57  ILE57      -0.1980
     13  CA       -26.9260   23.3240  -11.2590 C.3    57  ILE57       0.1595
     14  C        -25.8600   22.2610  -11.0300 C.2    57  ILE57       0.2287
     15  O        -26.1230   21.2270  -10.4160 O.2    57  ILE57      -0.2864
     16  CB       -27.2870   23.3400  -12.7620 C.3    57  ILE57       0.0276
     17  CG1      -28.4180   24.3330  -13.0490 C.3    57  ILE57       0.0022
     18  CG2      -27.6760   21.9440  -13.2400 C.3    57  ILE57       0.0022
     19  CD1      -29.7790   23.8730  -12.5860 C.3    57  ILE57       0.0001
     20  N        -25.4450   21.5130   -7.3810 N.3    60  VAL60      -0.1231
     21  CA       -26.4950   20.6440   -6.8650 C.3    60  VAL60       0.1692
     22  C        -26.2210   19.1840   -7.2320 C.2    60  VAL60       0.2592
     23  O        -26.4120   18.2870   -6.4080 O.2    60  VAL60      -0.2718
     24  CB       -27.8870   21.0700   -7.3690 C.3    60  VAL60       0.0266
     25  CG1      -28.9410   20.0440   -6.9680 C.3    60  VAL60       0.0020
     26  CG2      -28.2460   22.4420   -6.8260 C.3    60  VAL60       0.0020
     27  N        -25.7580   18.9540   -8.4590 N.am   61  ASP61      -0.1974
     28  CA       -25.3660   17.6150   -8.8890 C.3    61  ASP61       0.1709
     29  C        -24.2810   17.0450   -7.9800 C.2    61  ASP61       0.2293
     30  O        -24.3290   15.8750   -7.6000 O.2    61  ASP61      -0.2864
     31  CB       -24.8810   17.6270  -10.3410 C.3    61  ASP61       0.1436
     32  CG       -26.0110   17.8330  -11.3330 C.2    61  ASP61       0.3671
     33  OD1      -27.1640   17.4880  -10.9960 O.co2  61  ASP61      -0.2456
     34  OD2      -25.7470   18.3360  -12.4490 O.co2  61  ASP61      -0.2456
     35  N        -25.8300   16.0260   -4.6070 N.3    64  ARG64      -0.1245
     36  CA       -26.6740   14.8400   -4.7300 C.3    64  ARG64       0.1563
     37  C        -25.9090   13.5280   -4.5760 C.2    64  ARG64       0.2260
     38  O        -26.4260   12.5710   -4.0010 O.2    64  ARG64      -0.2867
     39  CB       -27.4310   14.8550   -6.0630 C.3    64  ARG64       0.0307
     40  CG       -28.4640   15.9620   -6.1670 C.3    64  ARG64       0.0489
     41  CD       -29.0480   16.0720   -7.5660 C.3    64  ARG64       0.2205
     42  NE       -30.0870   15.0770   -7.8160 N.pl3  64  ARG64      -0.0865
     43  CZ       -29.9020   13.9580   -8.5090 C.cat  64  ARG64       0.5346
     44  NH1      -28.7130   13.6840   -9.0280 N.pl3  64  ARG64       0.1354
     45  NH2      -30.9110   13.1150   -8.6840 N.pl3  64  ARG64       0.1354
     46  N        -25.4150   13.0320    2.4270 N.3    69  PHE69      -0.1241
     47  CA       -26.4150   13.8640    1.7650 C.3    69  PHE69       0.1605
     48  C        -27.3660   13.0190    0.9230 C.2    69  PHE69       0.2264
     49  O        -28.5740   13.2460    0.9200 O.2    69  PHE69      -0.2867
     50  CB       -25.7410   14.9280    0.8920 C.3    69  PHE69       0.0534
     51  CG       -26.6870   15.9750    0.3630 C.ar   69  PHE69      -0.0203
     52  CD1      -26.9330   17.1330    1.0830 C.ar   69  PHE69      -0.0042
     53  CD2      -27.3270   15.8030   -0.8530 C.ar   69  PHE69      -0.0042
     54  CE1      -27.8000   18.0970    0.5990 C.ar   69  PHE69      -0.0003
     55  CE2      -28.1920   16.7640   -1.3410 C.ar   69  PHE69      -0.0003
     56  CZ       -28.4290   17.9120   -0.6130 C.ar   69  PHE69      -0.0000
     57  N        -35.6270   14.4360    0.6100 N.3    74  VAL74      -0.1245
     58  CA       -35.7380   15.6610   -0.1810 C.3    74  VAL74       0.1561
     59  C        -36.0240   16.8980    0.6730 C.2    74  VAL74       0.2260
     60  O        -35.5600   17.9960    0.3640 O.2    74  VAL74      -0.2867
     61  CB       -36.8290   15.5260   -1.2670 C.3    74  VAL74       0.0252
     62  CG1      -36.7880   16.7090   -2.2250 C.3    74  VAL74       0.0019
     63  CG2      -36.6550   14.2230   -2.0280 C.3    74  VAL74       0.0019
     64  N        -32.7140   17.8570    2.2310 N.3    77  GLN77      -0.1231
     65  CA       -31.7880   18.2220    1.1650 C.3    77  GLN77       0.1698
     66  C        -32.0230   19.6500    0.6900 C.2    77  GLN77       0.2592
     67  O        -31.0750   20.4100    0.4910 O.2    77  GLN77      -0.2718
     68  CB       -31.9020   17.2480   -0.0110 C.3    77  GLN77       0.0381
     69  CG       -31.3700   15.8560    0.2860 C.3    77  GLN77       0.0905
     70  CD       -31.3970   14.9510   -0.9280 C.2    77  GLN77       0.2608
     71  OE1      -32.0250   15.2670   -1.9390 O.2    77  GLN77      -0.2717
     72  NE2      -30.7110   13.8180   -0.8360 N.am   77  GLN77      -0.0878
     73  N        -33.2900   20.0110    0.5130 N.am   78  MET78      -0.1979
     74  CA       -33.6450   21.3610    0.0930 C.3    78  MET78       0.1605
     75  C        -33.3030   22.3800    1.1750 C.2    78  MET78       0.2287
     76  O        -32.8360   23.4770    0.8730 O.2    78  MET78      -0.2864
     77  CB       -35.1300   21.4480   -0.2670 C.3    78  MET78       0.0413
     78  CG       -35.5200   20.6300   -1.4870 C.3    78  MET78       0.0598
     79  SD       -37.2090   20.9480   -2.0240 S.3    78  MET78      -0.1393
     80  CE       -37.1040   22.6860   -2.4500 C.3    78  MET78       0.0692
     81  N        -29.4960   23.0690    1.1000 N.3    81  LEU81      -0.1231
     82  CA       -29.1460   23.8460   -0.0850 C.3    81  LEU81       0.1693
     83  C        -29.6540   25.2800   -0.0050 C.2    81  LEU81       0.2591
     84  O        -28.9470   26.2180   -0.3750 O.2    81  LEU81      -0.2718
     85  CB       -29.6750   23.1680   -1.3500 C.3    81  LEU81       0.0284
     86  CG       -28.9650   21.8650   -1.7160 C.3    81  LEU81       0.0019
     87  CD1      -29.5870   21.2360   -2.9480 C.3    81  LEU81       0.0001
     88  CD2      -27.4820   22.1240   -1.9270 C.3    81  LEU81       0.0001
     89  N        -30.8770   25.4510    0.4900 N.am   82  GLN82      -0.1979
     90  CA       -31.4700   26.7790    0.6120 C.3    82  GLN82       0.1601
     91  C        -30.7330   27.6340    1.6340 C.2    82  GLN82       0.2287
     92  O        -30.9340   28.8460    1.7000 O.2    82  GLN82      -0.2864
     93  CB       -32.9550   26.6790    0.9700 C.3    82  GLN82       0.0394
     94  CG       -33.8430   26.2660   -0.1990 C.3    82  GLN82       0.0908
     95  CD       -35.2570   25.9200    0.2330 C.2    82  GLN82       0.2608
     96  OE1      -35.5590   25.8570    1.4270 O.2    82  GLN82      -0.2717
     97  NE2      -36.1320   25.6910   -0.7390 N.am   82  GLN82      -0.0878
     98  N        -38.0120   33.2830  -13.8200 N.3   232  ASN232     -0.1225
     99  CA       -37.6900   31.9060  -13.4510 C.3   232  ASN232      0.1785
    100  C        -36.2010   31.6600  -13.2160 C.2   232  ASN232      0.2597
    101  O        -35.7060   30.5470  -13.4110 O.2   232  ASN232     -0.2718
    102  CB       -38.2450   30.9230  -14.4850 C.3   232  ASN232      0.1169
    103  CG       -39.7590   30.9220  -14.5280 C.2   232  ASN232      0.2627
    104  OD1      -40.3640   31.3380  -15.5160 O.2   232  ASN232     -0.2716
    105  ND2      -40.3820   30.4560  -13.4490 N.am  232  ASN232     -0.0877
    106  N        -35.4940   32.7060  -12.8040 N.am  233  ASN233     -0.1960
    107  CA       -34.0950   32.5740  -12.4310 C.3   233  ASN233      0.1819
    108  C        -33.9680   31.6950  -11.1940 C.2   233  ASN233      0.2621
    109  O        -34.6930   31.8760  -10.2140 O.2   233  ASN233     -0.2715
    110  CB       -33.4810   33.9480  -12.1770 C.3   233  ASN233      0.1195
    111  CG       -32.0600   33.8630  -11.6560 C.2   233  ASN233      0.2630
    112  OD1      -31.8340   33.7830  -10.4500 O.2   233  ASN233     -0.2716
    113  ND2      -31.0920   33.8840  -12.5670 N.am  233  ASN233     -0.0877
    114  N        -33.0520   30.7350  -11.2500 N.am  234  LEU234     -0.1977
    115  CA       -32.8980   29.7600  -10.1770 C.3   234  LEU234      0.1596
    116  C        -32.3960   30.3990   -8.8840 C.2   234  LEU234      0.2287
    117  O        -32.8490   30.0550   -7.7930 O.2   234  LEU234     -0.2864
    118  CB       -31.9540   28.6370  -10.6120 C.3   234  LEU234      0.0297
    119  CG       -31.7210   27.5240   -9.5910 C.3   234  LEU234      0.0022
    120  CD1      -33.0470   26.9350   -9.1350 C.3   234  LEU234      0.0001
    121  CD2      -30.8270   26.4470  -10.1790 C.3   234  LEU234      0.0001
    122  N        -35.0800   32.1400   -7.0040 N.3   237  GLU237     -0.1231
    123  CA       -35.9040   31.1530   -6.3180 C.3   237  GLU237      0.1699
    124  C        -35.2400   30.7480   -5.0070 C.2   237  GLU237      0.2592
    125  O        -35.9060   30.5890   -3.9830 O.2   237  GLU237     -0.2718
    126  CB       -36.1300   29.9190   -7.1900 C.3   237  GLU237      0.0402
    127  CG       -36.8750   28.8010   -6.4720 C.3   237  GLU237      0.1161
    128  CD       -37.1140   27.5870   -7.3500 C.2   237  GLU237      0.3649
    129  OE1      -37.6260   27.7560   -8.4790 O.co2 237  GLU237     -0.2457
    130  OE2      -36.7920   26.4620   -6.9080 O.co2 237  GLU237     -0.2457
    131  N        -33.9220   30.5840   -5.0460 N.am  238  MET238     -0.1979
    132  CA       -33.1610   30.2310   -3.8580 C.3   238  MET238      0.1605
    133  C        -33.2010   31.3720   -2.8520 C.2   238  MET238      0.2287
    134  O        -33.2890   31.1500   -1.6460 O.2   238  MET238     -0.2864
    135  CB       -31.7140   29.9140   -4.2270 C.3   238  MET238      0.0413
    136  CG       -31.5640   28.7350   -5.1660 C.3   238  MET238      0.0598
    137  SD       -32.2810   27.2300   -4.4820 S.3   238  MET238     -0.1393
    138  CE       -31.2650   27.0070   -3.0260 C.3   238  MET238      0.0692
@<TRIPOS>BOND
     1   104   103    2
     2   103   102    1
     3   103   105   am
     4   102    99    1
     5    98    99    1
     6    99   100    1
     7   101   100    2
     8    18    16    1
     9   100   106   am
    10    17    16    1
    11    17    19    1
    12   106   107    1
    13    16    13    1
    14   113   111   am
    15    34    32   ar
    16   107   110    1
    17   107   108    1
    18   110   111    1
    19   111   112    2
    20    32    33   ar
    21    32    31    1
    22    13    14    1
    23    13    12    1
    24   114   108   am
    25   114   115    1
    26   108   109    2
    27    14    15    2
    28    12     3   am
    29   118   115    1
    30   118   119    1
    31     1     2    1
    32    31    28    1
    33   121   119    1
    34   115   116    1
    35   119   120    1
    36     3     2    1
    37     3     4    2
    38     2     5    1
    39    44    43    1
    40    28    27    1
    41    28    29    1
    42   116   117    2
    43     5     6    1
    44    45    43    1
    45    43    42    2
    46   129   128   ar
    47    27    22   am
    48    29    30    2
    49    42    41    1
    50    41    40    1
    51     6     8   ar
    52     6     7   ar
    53     8    10   ar
    54    20    21    1
    55    24    25    1
    56    24    21    1
    57    24    26    1
    58   128   130   ar
    59   128   127    1
    60    22    21    1
    61    22    23    2
    62   126   127    1
    63   126   123    1
    64   122   123    1
    65     7     9   ar
    66   123   124    1
    67    10    11   ar
    68    40    39    1
    69    39    36    1
    70     9    11   ar
    71   136   137    1
    72   136   135    1
    73   131   124   am
    74   131   132    1
    75   124   125    2
    76    36    35    1
    77    36    37    1
    78    37    38    2
    79   137   138    1
    80   135   132    1
    81   132   133    1
    82    87    86    1
    83   133   134    2
    84    80    79    1
    85    62    61    1
    86    63    61    1
    87    79    78    1
    88    71    70    2
    89    88    86    1
    90    86    85    1
    91    78    77    1
    92    85    82    1
    93    55    53   ar
    94    55    56   ar
    95    61    58    1
    96    70    72   am
    97    70    69    1
    98    53    51   ar
    99    97    95   am
   100    56    54   ar
   101    84    83    2
   102    77    74    1
   103    94    95    1
   104    94    93    1
   105    58    57    1
   106    58    59    1
   107    82    83    1
   108    82    81    1
   109    68    69    1
   110    68    65    1
   111    83    89   am
   112    74    73    1
   113    74    75    1
   114    95    96    2
   115    51    50    1
   116    51    52   ar
   117    60    59    2
   118    89    90    1
   119    67    66    2
   120    73    66   am
   121    54    52   ar
   122    90    93    1
   123    90    91    1
   124    66    65    1
   125    76    75    2
   126    50    47    1
   127    49    48    2
   128    48    47    1
   129    65    64    1
   130    91    92    2
   131    47    46    1
