@<TRIPOS>MOLECULE
tmp/4qjwC00.pdb
 182 177 0 0 0
SMALL
GASTEIGER

@<TRIPOS>ATOM
      1  N         30.5760   23.2330   47.9470 N.3     2  TRP2       -0.1241
      2  CA        30.3790   21.8750   47.3950 C.3     2  TRP2        0.1605
      3  C         31.4510   21.6620   46.3210 C.2     2  TRP2        0.2264
      4  O         31.9280   22.6300   45.7060 O.2     2  TRP2       -0.2867
      5  CB        28.9690   21.6710   46.8780 C.3     2  TRP2        0.0550
      6  CG        28.6220   22.5210   45.6580 C.ar    2  TRP2        0.0003
      7  CD1       27.9960   23.7840   45.6620 C.ar    2  TRP2        0.0946
      8  CD2       28.7590   22.1580   44.2000 C.ar    2  TRP2        0.0152
      9  NE1       27.7660   24.2300   44.4040 N.ar    2  TRP2       -0.2442
     10  CE2       28.2620   23.2940   43.4550 C.ar    2  TRP2        0.0810
     11  CE3       29.2910   21.0440   43.4840 C.ar    2  TRP2        0.0012
     12  CZ2       28.2370   23.3060   42.0660 C.ar    2  TRP2        0.0191
     13  CZ3       29.2810   21.1100   42.0920 C.ar    2  TRP2        0.0001
     14  CH2       28.7490   22.2010   41.4090 C.ar    2  TRP2        0.0015
     15  N         33.2270   29.6520   36.9010 N.3    62  ASN62      -0.1240
     16  CA        32.4960   29.8540   38.1640 C.3    62  ASN62       0.1653
     17  C         32.9540   29.0140   39.3600 C.2    62  ASN62       0.2266
     18  O         32.3100   29.0290   40.4240 O.2    62  ASN62      -0.2867
     19  CB        31.0220   29.7420   37.9100 C.3    62  ASN62       0.1155
     20  CG        30.6120   28.3460   37.6170 C.2    62  ASN62       0.2627
     21  OD1       31.4150   27.3780   37.7260 O.2    62  ASN62      -0.2716
     22  ND2       29.3330   28.1920   37.3130 N.am   62  ASN62      -0.0877
     23  N         33.2530   25.8050   39.3650 N.3    64  HIS64      -0.1226
     24  CA        32.6810   24.4420   39.2150 C.3    64  HIS64       0.1752
     25  C         32.6630   24.0050   37.7900 C.2    64  HIS64       0.2596
     26  O         32.6870   22.7580   37.4860 O.2    64  HIS64      -0.2718
     27  CB        31.2570   24.3900   39.7910 C.3    64  HIS64       0.0759
     28  CG        31.1660   24.7530   41.2810 C.ar   64  HIS64       0.0818
     29  ND1       31.5660   23.9250   42.3000 N.ar   64  HIS64      -0.2268
     30  CD2       30.6540   25.8780   41.8820 C.ar   64  HIS64       0.1154
     31  CE1       31.2620   24.5040   43.4760 C.ar   64  HIS64       0.1986
     32  NE2       30.7510   25.7230   43.2030 N.ar   64  HIS64      -0.2212
     33  N         32.5580   24.9670   36.8520 N.am   65  SER65      -0.1952
     34  CA        32.5640   24.6370   35.4270 C.3    65  SER65       0.1924
     35  C         33.0410   25.9010   34.6880 C.2    65  SER65       0.2314
     36  O         33.4730   26.8770   35.3260 O.2    65  SER65      -0.2863
     37  CB        31.1500   24.2990   34.8240 C.3    65  SER65       0.2116
     38  OG        31.3540   23.7600   33.4870 O.3    65  SER65      -0.2180
     39  N         31.3160   28.3310   31.9060 N.3    67  LYS67      -0.1245
     40  CA        30.0170   28.5740   31.2980 C.3    67  LYS67       0.1561
     41  C         30.0470   29.7220   30.3180 C.2    67  LYS67       0.2260
     42  O         30.7650   30.6930   30.5400 O.2    67  LYS67      -0.2867
     43  CB        28.9690   28.8290   32.4140 C.3    67  LYS67       0.0271
     44  CG        29.0930   30.0970   33.2050 C.3    67  LYS67       0.0035
     45  CD        27.7730   30.3000   33.9930 C.3    67  LYS67       0.0206
     46  CE        28.0880   31.5110   34.9110 C.3    67  LYS67       0.1093
     47  NZ        26.8110   31.9470   35.5970 N.3    67  LYS67      -0.1314
     48  N         19.8110   30.0970   28.5740 N.3    86  THR86      -0.1203
     49  CA        20.4480   30.9070   29.5680 C.3    86  THR86       0.1994
     50  C         21.9690   30.7410   29.5680 C.2    86  THR86       0.2617
     51  O         22.6610   31.7010   29.6840 O.2    86  THR86      -0.2717
     52  CB        19.7960   30.7450   30.9920 C.3    86  THR86       0.1784
     53  OG1       20.4580   31.5630   31.9950 O.3    86  THR86      -0.2211
     54  CG2       19.9100   29.3140   31.4630 C.3    86  THR86       0.0376
     55  N         22.4750   29.5020   29.4800 N.am   87  GLN87      -0.1979
     56  CA        23.9310   29.3490   29.4630 C.3    87  GLN87       0.1601
     57  C         24.2350   27.9490   28.9080 C.2    87  GLN87       0.2287
     58  O         23.3310   27.1140   28.8860 O.2    87  GLN87      -0.2864
     59  CB        24.5890   29.5360   30.8210 C.3    87  GLN87       0.0394
     60  CG        23.9210   28.6650   31.9030 C.3    87  GLN87       0.0908
     61  CD        24.7950   27.5050   32.3040 C.2    87  GLN87       0.2608
     62  OE1       25.2280   26.7520   31.4920 O.2    87  GLN87      -0.2717
     63  NE2       25.1330   27.4340   33.5530 N.am   87  GLN87      -0.0878
     64  N         27.5620   24.9090   29.3530 N.3    89  HIS89      -0.1241
     65  CA        28.7560   24.5720   30.1250 C.3    89  HIS89       0.1621
     66  C         29.1100   23.1230   29.8510 C.2    89  HIS89       0.2264
     67  O         28.3910   22.4250   29.0780 O.2    89  HIS89      -0.2867
     68  CB        28.5090   24.8250   31.6590 C.3    89  HIS89       0.0745
     69  CG        27.3750   23.9100   32.1670 C.ar   89  HIS89       0.0817
     70  ND1       26.0890   24.2750   32.2180 N.ar   89  HIS89      -0.2268
     71  CD2       27.3980   22.5890   32.5650 C.ar   89  HIS89       0.1154
     72  CE1       25.3390   23.2580   32.6200 C.ar   89  HIS89       0.1986
     73  NE2       26.1190   22.2450   32.8380 N.ar   89  HIS89      -0.2212
     74  N         31.1470   19.3100   31.2370 N.3    91  HIS91      -0.1241
     75  CA        31.6700   18.4200   32.3110 C.3    91  HIS91       0.1621
     76  C         32.7310   17.4990   31.7280 C.2    91  HIS91       0.2264
     77  O         32.5990   17.0570   30.5740 O.2    91  HIS91      -0.2867
     78  CB        30.5060   17.5500   32.8120 C.3    91  HIS91       0.0745
     79  CG        29.3730   18.3190   33.3720 C.ar   91  HIS91       0.0817
     80  ND1       29.3010   18.6960   34.7240 N.ar   91  HIS91      -0.2268
     81  CD2       28.2830   18.8540   32.7560 C.ar   91  HIS91       0.1154
     82  CE1       28.1490   19.3970   34.9300 C.ar   91  HIS91       0.1986
     83  NE2       27.5350   19.5330   33.7380 N.ar   91  HIS91      -0.2212
     84  N         26.2400   20.8200   28.0760 N.3   115  HIS115     -0.1241
     85  CA        24.8330   21.0170   28.4950 C.3   115  HIS115      0.1621
     86  C         24.4430   22.3910   28.0520 C.2   115  HIS115      0.2264
     87  O         25.1620   23.3630   28.3400 O.2   115  HIS115     -0.2867
     88  CB        24.7150   20.9450   29.9690 C.3   115  HIS115      0.0745
     89  CG        24.8980   19.5450   30.4720 C.ar  115  HIS115      0.0817
     90  ND1       25.2310   19.2340   31.7950 N.ar  115  HIS115     -0.2268
     91  CD2       24.6010   18.3710   29.8020 C.ar  115  HIS115      0.1154
     92  CE1       25.2070   17.8800   31.8990 C.ar  115  HIS115      0.1986
     93  NE2       24.8290   17.3520   30.6890 N.ar  115  HIS115     -0.2212
     94  N         21.5600   24.9390   28.7180 N.3   117  VAL117     -0.1245
     95  CA        20.4500   25.0940   29.6550 C.3   117  VAL117      0.1561
     96  C         19.4780   26.1580   29.1910 C.2   117  VAL117      0.2260
     97  O         19.9050   27.2720   28.8600 O.2   117  VAL117     -0.2867
     98  CB        21.0360   25.5360   31.0340 C.3   117  VAL117      0.0252
     99  CG1       19.9430   25.6200   32.0880 C.3   117  VAL117      0.0019
    100  CG2       22.1850   24.5910   31.4410 C.3   117  VAL117      0.0019
    101  N         15.7370   32.5610   34.2070 N.3   127  ALA127     -0.1231
    102  CA        16.1890   31.1800   34.5880 C.3   127  ALA127      0.1694
    103  C         16.2380   30.9410   36.1330 C.2   127  ALA127      0.2592
    104  O         15.8030   29.8940   36.6120 O.2   127  ALA127     -0.2718
    105  CB        17.5570   30.9500   33.9570 C.3   127  ALA127      0.0304
    106  N         16.7170   31.9500   36.8660 N.am  128  SER128     -0.1952
    107  CA        16.8330   31.8670   38.3520 C.3   128  SER128      0.1924
    108  C         15.4560   31.5890   38.9430 C.2   128  SER128      0.2314
    109  O         15.2280   30.5760   39.6540 O.2   128  SER128     -0.2863
    110  CB        17.4500   33.1370   38.8900 C.3   128  SER128      0.2116
    111  OG        17.9340   32.9580   40.2130 O.3   128  SER128     -0.2180
    112  N         14.1540   28.0600   37.9930 N.3   131  SER131     -0.1217
    113  CA        15.0790   26.9200   38.2930 C.3   131  SER131      0.1889
    114  C         14.4760   25.9980   39.3130 C.2   131  SER131      0.2288
    115  O         14.7760   24.8100   39.3190 O.2   131  SER131     -0.2866
    116  CB        16.4620   27.3710   38.7360 C.3   131  SER131      0.2089
    117  OG        16.4370   28.0420   39.9830 O.3   131  SER131     -0.2183
    118  N         12.8810   24.0350   33.6280 N.3   137  LEU137     -0.1245
    119  CA        14.1290   23.9390   32.8900 C.3   137  LEU137      0.1561
    120  C         14.0910   22.8770   31.8390 C.2   137  LEU137      0.2260
    121  O         13.3920   21.8100   31.9480 O.2   137  LEU137     -0.2867
    122  CB        15.3310   23.6620   33.8870 C.3   137  LEU137      0.0270
    123  CG        15.5510   24.7670   34.9410 C.3   137  LEU137      0.0019
    124  CD1       16.7170   24.2320   35.8220 C.3   137  LEU137      0.0001
    125  CD2       15.8170   26.1940   34.3610 C.3   137  LEU137      0.0001
    126  N         17.2650   21.0330   29.4370 N.3   139  VAL139     -0.1245
    127  CA        18.6760   20.9910   29.1700 C.3   139  VAL139      0.1561
    128  C         18.8900   20.0680   27.9750 C.2   139  VAL139      0.2260
    129  O         18.3440   18.9360   27.8880 O.2   139  VAL139     -0.2867
    130  CB        19.4980   20.5550   30.4200 C.3   139  VAL139      0.0252
    131  CG1       20.9810   20.5570   29.9820 C.3   139  VAL139      0.0019
    132  CG2       19.2550   21.5990   31.4990 C.3   139  VAL139      0.0019
    133  N         18.7880   19.1110   37.8970 N.3   195  LEU195     -0.1231
    134  CA        20.1120   19.6980   37.7040 C.3   195  LEU195      0.1693
    135  C         21.0760   18.6720   38.2410 C.2   195  LEU195      0.2593
    136  O         20.7810   17.9940   39.2260 O.2   195  LEU195     -0.2718
    137  CB        20.2170   20.9800   38.5760 C.3   195  LEU195      0.0284
    138  CG        19.3880   22.1690   38.0260 C.3   195  LEU195      0.0019
    139  CD1       19.5860   23.3280   38.9910 C.3   195  LEU195      0.0001
    140  CD2       19.8550   22.5290   36.6350 C.3   195  LEU195      0.0001
    141  N         22.2230   18.5370   37.5970 N.am  196  THR196     -0.1939
    142  CA        23.2270   17.5820   38.0880 C.3   196  THR196      0.2028
    143  C         24.2750   18.1980   39.0180 C.2   196  THR196      0.2643
    144  O         25.1890   17.5090   39.4680 O.2   196  THR196     -0.2714
    145  CB        24.0260   16.9760   36.9580 C.3   196  THR196      0.1808
    146  OG1       24.8940   18.0050   36.4250 O.3   196  THR196     -0.2208
    147  CG2       23.0940   16.3510   35.8760 C.3   196  THR196      0.0379
    148  N         24.0620   19.4660   39.3710 N.am  197  THR197     -0.1937
    149  CA        24.8490   20.1540   40.4030 C.3   197  THR197      0.2013
    150  C         23.8760   20.7240   41.4260 C.2   197  THR197      0.2484
    151  O         22.7130   20.9670   41.1320 O.2   197  THR197     -0.2729
    152  CB        25.6480   21.3520   39.8330 C.3   197  THR197      0.1807
    153  OG1       24.6870   22.1880   39.1570 O.3   197  THR197     -0.2208
    154  CG2       26.6630   20.8220   38.8430 C.3   197  THR197      0.0379
    155  N         24.3900   20.9730   42.6760 N.am  198  PRO198     -0.2715
    156  CA        23.5840   21.7400   43.6580 C.3   198  PRO198      0.1521
    157  C         23.0170   22.9940   42.9660 C.2   198  PRO198      0.2440
    158  O         23.6960   23.6480   42.1380 O.2   198  PRO198     -0.2731
    159  CB        24.6430   22.1130   44.7100 C.3   198  PRO198      0.0310
    160  CG        25.5700   20.9180   44.7140 C.3   198  PRO198      0.0237
    161  CD        25.7110   20.6120   43.1920 C.3   198  PRO198      0.0939
    162  N         21.7540   23.3210   43.2310 N.am  199  PRO199     -0.2727
    163  CA        20.9070   22.6810   44.2290 C.3   199  PRO199      0.1402
    164  C         20.1740   21.4660   43.7950 C.2   199  PRO199      0.2269
    165  O         19.3160   21.0070   44.5940 O.2   199  PRO199     -0.2865
    166  CB        19.8670   23.7840   44.6470 C.3   199  PRO199      0.0296
    167  CG        20.2350   24.9790   43.8190 C.3   199  PRO199      0.0237
    168  CD        21.1770   24.5750   42.6760 C.3   199  PRO199      0.0939
    169  N         15.1750   16.6460   30.3760 N.3   206  TRP206     -0.1241
    170  CA        16.4530   16.3330   29.6610 C.3   206  TRP206      0.1605
    171  C         16.1910   15.7790   28.2670 C.2   206  TRP206      0.2264
    172  O         15.2730   14.9850   28.0500 O.2   206  TRP206     -0.2867
    173  CB        17.1800   15.2370   30.4090 C.3   206  TRP206      0.0550
    174  CG        17.8990   15.7940   31.6260 C.ar  206  TRP206      0.0003
    175  CD1       17.4730   15.8400   32.9220 C.ar  206  TRP206      0.0946
    176  CD2       19.1630   16.4330   31.5830 C.ar  206  TRP206      0.0152
    177  NE1       18.3860   16.4740   33.6860 N.ar  206  TRP206     -0.2442
    178  CE2       19.4490   16.8490   32.9460 C.ar  206  TRP206      0.0810
    179  CE3       20.0800   16.7120   30.5670 C.ar  206  TRP206      0.0012
    180  CZ2       20.6320   17.5530   33.2770 C.ar  206  TRP206      0.0191
    181  CZ3       21.2600   17.4170   30.8900 C.ar  206  TRP206      0.0001
    182  CH2       21.5200   17.8180   32.1980 C.ar  206  TRP206      0.0015
@<TRIPOS>BOND
     1   129   128    2
     2   128   127    1
     3   172   171    2
     4    86    87    2
     5    86    85    1
     6    84    85    1
     7   171   170    1
     8    85    88    1
     9    48    49    1
    10    94    95    1
    11    97    96    2
    12    58    57    2
    13    57    56    1
    14    67    66    2
    15   127   126    1
    16   127   130    1
    17    96    95    1
    18    64    65    1
    19    56    55    1
    20    56    59    1
    21    55    50   am
    22    49    50    1
    23    49    52    1
    24    50    51    2
    25    95    98    1
    26   170   169    1
    27   170   173    1
    28    91    89   ar
    29    91    93   ar
    30    66    65    1
    31    88    89    1
    32   131   130    1
    33    65    68    1
    34    41    42    2
    35    41    40    1
    36   173   174    1
    37   130   132    1
    38    89    90   ar
    39   179   181   ar
    40   179   176   ar
    41    77    76    2
    42    93    92   ar
    43    59    60    1
    44   181   182   ar
    45    52    54    1
    46    52    53    1
    47    98   100    1
    48    98    99    1
    49    74    75    1
    50    40    39    1
    51    40    43    1
    52    62    61    2
    53   176   174   ar
    54   176   178   ar
    55   174   175   ar
    56    68    69    1
    57    76    75    1
    58    90    92   ar
    59   120   121    2
    60   120   119    1
    61    60    61    1
    62    69    70   ar
    63    69    71   ar
    64   182   180   ar
    65    70    72   ar
    66    61    63   am
    67    75    78    1
    68    43    44    1
    69    71    73   ar
    70    72    73   ar
    71    81    79   ar
    72    81    83   ar
    73    78    79    1
    74   119   118    1
    75   119   122    1
    76   175   177   ar
    77   178   180   ar
    78   178   177   ar
    79    44    45    1
    80    79    80   ar
    81    38    37    1
    82    83    82   ar
    83   122   123    1
    84   105   102    1
    85    45    46    1
    86   101   102    1
    87   125   123    1
    88   102   103    1
    89    35    36    2
    90    35    34    1
    91    80    82   ar
    92    37    34    1
    93    46    47    1
    94   123   124    1
    95    34    33    1
    96   147   145    1
    97   103   104    2
    98   103   106   am
    99   146   145    1
   100   140   138    1
   101    33    25   am
   102   106   107    1
   103    15    16    1
   104   145   142    1
   105    22    20   am
   106    26    25    2
   107   141   142    1
   108   141   135   am
   109    20    21    2
   110    20    19    1
   111   134   133    1
   112   134   135    1
   113   134   137    1
   114    25    24    1
   115    19    16    1
   116   112   113    1
   117   138   137    1
   118   138   139    1
   119   142   143    1
   120    16    17    1
   121   135   136    2
   122   113   116    1
   123   113   114    1
   124   107   110    1
   125   107   108    1
   126   116   117    1
   127   154   152    1
   128   110   111    1
   129   108   109    2
   130   143   148   am
   131   143   144    2
   132   153   152    1
   133    24    23    1
   134    24    27    1
   135   114   115    2
   136    17    18    2
   137   148   149    1
   138    27    28    1
   139   152   149    1
   140   149   150    1
   141   151   150    2
   142    28    30   ar
   143    28    29   ar
   144    14    12   ar
   145    14    13   ar
   146   150   155   am
   147    30    32   ar
   148    12    10   ar
   149    13    11   ar
   150   158   157    2
   151    29    31   ar
   152   155   161    1
   153   155   156    1
   154   168   162    1
   155   168   167    1
   156   157   162   am
   157   157   156    1
   158   161   160    1
   159    32    31   ar
   160   162   163    1
   161    10     8   ar
   162    10     9   ar
   163    11     8   ar
   164   156   159    1
   165   164   163    1
   166   164   165    2
   167   167   166    1
   168     8     6   ar
   169   163   166    1
   170     9     7   ar
   171   159   160    1
   172     6     7   ar
   173     6     5    1
   174     4     3    2
   175     3     2    1
   176     5     2    1
   177     2     1    1
