@<TRIPOS>MOLECULE
tmp/4qjxA01.pdb
 208 203 0 0 0
SMALL
GASTEIGER

@<TRIPOS>ATOM
      1  N         14.4590    7.5630    7.4480 N.3     2  TRP2       -0.1241
      2  CA        14.2590    6.2990    8.1480 C.3     2  TRP2        0.1605
      3  C         15.3420    5.9190    9.1300 C.2     2  TRP2        0.2264
      4  O         16.5420    6.2780    8.9870 O.2     2  TRP2       -0.2867
      5  CB        14.0640    5.1960    7.1510 C.3     2  TRP2        0.0550
      6  CG        15.3020    4.8210    6.4340 C.ar    2  TRP2        0.0003
      7  CD1       15.7640    5.3120    5.2270 C.ar    2  TRP2        0.0946
      8  CD2       16.2610    3.8030    6.8340 C.ar    2  TRP2        0.0152
      9  NE1       16.9140    4.6740    4.8670 N.ar    2  TRP2       -0.2442
     10  CE2       17.2740    3.7710    5.7940 C.ar    2  TRP2        0.0810
     11  CE3       16.3510    2.9210    7.9090 C.ar    2  TRP2        0.0012
     12  CZ2       18.3710    2.9000    5.8440 C.ar    2  TRP2        0.0191
     13  CZ3       17.4610    2.0770    7.9710 C.ar    2  TRP2        0.0001
     14  CH2       18.4420    2.0620    6.9520 C.ar    2  TRP2        0.0015
     15  N         33.0030    2.5540    6.7830 N.3    57  SER57      -0.1217
     16  CA        32.3440    3.8030    7.1140 C.3    57  SER57       0.1889
     17  C         31.1300    3.5290    7.9830 C.2    57  SER57       0.2288
     18  O         30.5670    2.4230    7.9620 O.2    57  SER57      -0.2866
     19  CB        31.9130    4.5980    5.8280 C.3    57  SER57       0.2089
     20  OG        30.9350    3.8610    5.1670 O.3    57  SER57      -0.2183
     21  N         27.3700    4.2930    8.1210 N.3    59  SER59      -0.1217
     22  CA        26.2800    4.7160    7.2570 C.3    59  SER59       0.1889
     23  C         25.2040    5.4450    8.0250 C.2    59  SER59       0.2288
     24  O         24.2940    5.9910    7.4430 O.2    59  SER59      -0.2866
     25  CB        25.6700    3.4970    6.5590 C.3    59  SER59       0.2089
     26  OG        24.9610    2.6610    7.4780 O.3    59  SER59      -0.2183
     27  N         23.4300    3.5650    9.8410 N.3    61  HIS61      -0.1226
     28  CA        22.5640    2.3940   10.0540 C.3    61  HIS61       0.1752
     29  C         23.3060    1.1860   10.4550 C.2    61  HIS61       0.2596
     30  O         22.7220    0.2370   10.9610 O.2    61  HIS61      -0.2718
     31  CB        21.7660    2.0990    8.7640 C.3    61  HIS61       0.0759
     32  CG        21.0660    3.3330    8.2230 C.ar   61  HIS61       0.0818
     33  ND1       21.3740    3.8880    7.0360 N.ar   61  HIS61      -0.2268
     34  CD2       20.0880    4.1510    8.7950 C.ar   61  HIS61       0.1154
     35  CE1       20.6110    4.9850    6.8400 C.ar   61  HIS61       0.1986
     36  NE2       19.8270    5.1440    7.9180 N.ar   61  HIS61      -0.2212
     37  N         24.6170    1.1980   10.1900 N.am   62  SER62      -0.1952
     38  CA        25.5160    0.0680   10.5380 C.3    62  SER62       0.1924
     39  C         26.8740    0.5950   10.1920 C.2    62  SER62       0.2314
     40  O         26.9720    1.7570    9.8370 O.2    62  SER62      -0.2863
     41  CB        25.1870   -1.2470    9.7890 C.3    62  SER62       0.2116
     42  OG        26.1380   -2.2140   10.3200 O.3    62  SER62      -0.2180
     43  N         29.8150   -0.1020    7.2490 N.3    64  ASN64      -0.1240
     44  CA        29.9660   -0.8650    6.0050 C.3    64  ASN64       0.1653
     45  C         31.4230   -0.9780    5.6280 C.2    64  ASN64       0.2266
     46  O         32.1130    0.0260    5.6050 O.2    64  ASN64      -0.2867
     47  CB        29.3310   -0.1750    4.7960 C.3    64  ASN64       0.1155
     48  CG        27.8820    0.1340    4.9820 C.2    64  ASN64       0.2627
     49  OD1       27.5270    1.2860    5.1600 O.2    64  ASN64      -0.2716
     50  ND2       27.0250   -0.8940    4.9410 N.am   64  ASN64      -0.0877
     51  N         33.3350   -1.5310    2.3110 N.3    66  ASP66      -0.1239
     52  CA        33.1470   -1.5440    0.8440 C.3    66  ASP66       0.1674
     53  C         34.3940   -2.1710    0.2310 C.2    66  ASP66       0.2266
     54  O         35.4910   -2.0430    0.7640 O.2    66  ASP66      -0.2867
     55  CB        32.9870   -0.1320    0.2420 C.3    66  ASP66       0.1410
     56  CG        31.6940    0.5820    0.6740 C.2    66  ASP66       0.3668
     57  OD1       30.6710   -0.0560    0.9660 O.co2  66  ASP66      -0.2456
     58  OD2       31.7150    1.8320    0.7310 O.co2  66  ASP66      -0.2456
     59  N         29.8020   -5.2990   -0.3130 N.3    89  GLN89      -0.1245
     60  CA        30.0440   -4.6960    1.0160 C.3    89  GLN89       0.1566
     61  C         29.6960   -5.6800    2.1220 C.2    89  GLN89       0.2260
     62  O         29.0250   -6.6600    1.8700 O.2    89  GLN89      -0.2867
     63  CB        29.2540   -3.3810    1.1940 C.3    89  GLN89       0.0367
     64  CG        27.7680   -3.6010    1.0410 C.3    89  GLN89       0.0905
     65  CD        27.0020   -3.0830    2.2550 C.2    89  GLN89       0.2608
     66  OE1       26.9540   -3.7320    3.2680 O.2    89  GLN89      -0.2717
     67  NE2       26.4230   -1.8970    2.1430 N.am   89  GLN89      -0.0878
     68  N         28.2900   -5.7050    6.3400 N.3    91  HIS91      -0.1241
     69  CA        27.8530   -4.8670    7.4650 C.3    91  HIS91       0.1621
     70  C         27.2890   -5.8010    8.5500 C.2    91  HIS91       0.2264
     71  O         27.2790   -7.0440    8.3690 O.2    91  HIS91      -0.2867
     72  CB        26.8220   -3.8040    6.9780 C.3    91  HIS91       0.0745
     73  CG        25.5890   -4.4080    6.3410 C.ar   91  HIS91       0.0817
     74  ND1       25.4440   -4.5430    4.9830 N.ar   91  HIS91      -0.2268
     75  CD2       24.4350   -4.9470    6.9170 C.ar   91  HIS91       0.1154
     76  CE1       24.2630   -5.1750    4.7370 C.ar   91  HIS91       0.1986
     77  NE2       23.6200   -5.3720    5.9000 N.ar   91  HIS91      -0.2212
     78  N         24.1960   -6.4140   11.9320 N.3    93  HIS93      -0.1241
     79  CA        22.9960   -5.9990   12.6570 C.3    93  HIS93       0.1621
     80  C         23.1010   -6.5260   14.0900 C.2    93  HIS93       0.2264
     81  O         23.6660   -7.6340   14.3120 O.2    93  HIS93      -0.2867
     82  CB        21.7450   -6.6010   11.9540 C.3    93  HIS93       0.0745
     83  CG        21.5500   -6.0990   10.5240 C.ar   93  HIS93       0.0817
     84  ND1       20.8110   -5.0100   10.2280 N.ar   93  HIS93      -0.2268
     85  CD2       22.0410   -6.5650    9.3300 C.ar   93  HIS93       0.1154
     86  CE1       20.8500   -4.8100    8.8610 C.ar   93  HIS93       0.1986
     87  NE2       21.5700   -5.7630    8.3500 N.ar   93  HIS93      -0.2212
     88  N         26.0990   -9.4850    7.4360 N.3   116  HIS116     -0.1241
     89  CA        25.5750   -9.6240    6.0480 C.3   116  HIS116      0.1621
     90  C         26.7000   -9.3380    5.0620 C.2   116  HIS116      0.2264
     91  O         27.5030   -8.4100    5.2280 O.2   116  HIS116     -0.2867
     92  CB        24.3330   -8.7280    5.7640 C.3   116  HIS116      0.0745
     93  CG        23.0800   -9.1820    6.4590 C.ar  116  HIS116      0.0817
     94  ND1       22.0040   -8.3460    6.6970 N.ar  116  HIS116     -0.2268
     95  CD2       22.7770  -10.3900    7.0690 C.ar  116  HIS116      0.1154
     96  CE1       21.0800   -9.0280    7.3690 C.ar  116  HIS116      0.1986
     97  NE2       21.5420  -10.2730    7.6000 N.ar  116  HIS116     -0.2212
     98  N         27.1660   -8.8030    1.1140 N.3   118  VAL118     -0.1245
     99  CA        26.2500   -8.4520    0.0230 C.3   118  VAL118      0.1561
    100  C         27.0130   -8.5370   -1.3320 C.2   118  VAL118      0.2260
    101  O         28.1230   -8.0190   -1.4410 O.2   118  VAL118     -0.2867
    102  CB        25.7930   -7.0080    0.2040 C.3   118  VAL118      0.0252
    103  CG1       24.9370   -6.5110   -0.9950 C.3   118  VAL118      0.0019
    104  CG2       25.0230   -6.8780    1.5310 C.3   118  VAL118      0.0019
    105  N         26.0880   -2.5900   -9.2190 N.3   128  PHE128     -0.1227
    106  CA        25.3530   -3.0060   -8.0130 C.3   128  PHE128      0.1736
    107  C         23.9710   -2.3420   -7.9530 C.2   128  PHE128      0.2595
    108  O         22.9670   -3.0200   -7.7180 O.2   128  PHE128     -0.2718
    109  CB        26.2060   -2.6670   -6.7950 C.3   128  PHE128      0.0547
    110  CG        25.4960   -2.8160   -5.4840 C.ar  128  PHE128     -0.0202
    111  CD1       25.1420   -4.0530   -5.0050 C.ar  128  PHE128     -0.0042
    112  CD2       25.2810   -1.6900   -4.6690 C.ar  128  PHE128     -0.0042
    113  CE1       24.5030   -4.1990   -3.7710 C.ar  128  PHE128     -0.0003
    114  CE2       24.6130   -1.8240   -3.4260 C.ar  128  PHE128     -0.0003
    115  CZ        24.2490   -3.0920   -2.9630 C.ar  128  PHE128     -0.0000
    116  N         23.9160   -1.0390   -8.2190 N.am  129  VAL129     -0.1980
    117  CA        22.6320   -0.3030   -8.1560 C.3   129  VAL129      0.1595
    118  C         21.6230   -0.8770   -9.1180 C.2   129  VAL129      0.2287
    119  O         20.4630   -1.0480   -8.7680 O.2   129  VAL129     -0.2864
    120  CB        22.8400    1.1970   -8.4550 C.3   129  VAL129      0.0276
    121  CG1       21.4910    1.8920   -8.4860 C.3   129  VAL129      0.0022
    122  CG2       23.6850    1.7940   -7.3400 C.3   129  VAL129      0.0022
    123  N         20.3260   -4.3490   -7.9180 N.3   132  ALA132     -0.1231
    124  CA        19.4520   -4.2890   -6.7180 C.3   132  ALA132      0.1694
    125  C         17.9780   -4.1580   -7.0780 C.2   132  ALA132      0.2592
    126  O         17.0730   -4.3370   -6.2250 O.2   132  ALA132     -0.2718
    127  CB        19.9190   -3.1570   -5.7910 C.3   132  ALA132      0.0304
    128  N         17.7380   -3.8680   -8.3600 N.am  133  HIS133     -0.1976
    129  CA        16.3870   -3.7230   -8.9280 C.3   133  HIS133      0.1656
    130  C         15.8860   -4.9160   -9.6950 C.2   133  HIS133      0.2291
    131  O         14.8310   -4.8290  -10.3300 O.2   133  HIS133     -0.2864
    132  CB        16.3090   -2.4090   -9.7670 C.3   133  HIS133      0.0771
    133  CG        16.3840   -1.1810   -8.8950 C.ar  133  HIS133      0.0820
    134  ND1       15.2910   -0.6420   -8.3180 N.ar  133  HIS133     -0.2267
    135  CD2       17.4700   -0.4840   -8.3910 C.ar  133  HIS133      0.1154
    136  CE1       15.6540    0.3910   -7.5520 C.ar  133  HIS133      0.1986
    137  NE2       16.9860    0.4770   -7.5790 N.ar  133  HIS133     -0.2212
    138  N         22.9780  -12.3690   -0.7360 N.3   140  VAL140     -0.1245
    139  CA        23.4570  -11.9080    0.5730 C.3   140  VAL140      0.1561
    140  C         23.6590  -13.1300    1.4730 C.2   140  VAL140      0.2260
    141  O         22.7580  -13.9940    1.6790 O.2   140  VAL140     -0.2867
    142  CB        22.4980  -10.9030    1.2530 C.3   140  VAL140      0.0252
    143  CG1       23.0080  -10.5530    2.6580 C.3   140  VAL140      0.0019
    144  CG2       22.3320   -9.6060    0.4340 C.3   140  VAL140      0.0019
    145  N         14.4960   -9.8470    0.3600 N.3   194  SER194     -0.1202
    146  CA        14.6260   -8.4170    0.0720 C.3   194  SER194      0.2020
    147  C         15.7680   -7.8320    0.8530 C.2   194  SER194      0.2619
    148  O         16.2830   -8.4860    1.7690 O.2   194  SER194     -0.2717
    149  CB        13.3310   -7.6870    0.5080 C.3   194  SER194      0.2103
    150  OG        13.2200   -7.5400    1.9310 O.3   194  SER194     -0.2182
    151  N         16.1640   -6.5990    0.5360 N.am  195  LEU195     -0.1965
    152  CA        16.9070   -5.7780    1.5100 C.3   195  LEU195      0.1728
    153  C         16.1300   -5.6710    2.8120 C.2   195  LEU195      0.2617
    154  O         14.8820   -5.6860    2.7930 O.2   195  LEU195     -0.2715
    155  CB        17.1860   -4.3580    0.9380 C.3   195  LEU195      0.0311
    156  CG        17.6870   -4.3020   -0.4940 C.3   195  LEU195      0.0022
    157  CD1       17.9190   -2.8280   -0.8360 C.3   195  LEU195      0.0001
    158  CD2       18.9640   -5.1420   -0.6080 C.3   195  LEU195      0.0001
    159  N         16.8320   -5.6230    3.9430 N.am  196  THR196     -0.1937
    160  CA        16.1290   -5.5160    5.2540 C.3   196  THR196      0.2028
    161  C         16.1330   -4.0410    5.7080 C.2   196  THR196      0.2642
    162  O         15.6920   -3.7420    6.8000 O.2   196  THR196     -0.2714
    163  CB        16.7530   -6.4120    6.3220 C.3   196  THR196      0.1808
    164  OG1       18.0590   -5.9090    6.6410 O.3   196  THR196     -0.2208
    165  CG2       16.8900   -7.9060    5.8400 C.3   196  THR196      0.0379
    166  N         16.6120   -3.1200    4.8620 N.am  197  VAL197     -0.1963
    167  CA        16.5040   -1.6810    5.1100 C.3   197  VAL197      0.1712
    168  C         15.8440   -1.0870    3.8930 C.2   197  VAL197      0.2458
    169  O         15.9620   -1.6630    2.8100 O.2   197  VAL197     -0.2730
    170  CB        17.8900   -0.9510    5.3020 C.3   197  VAL197      0.0289
    171  CG1       18.5830   -1.4050    6.6060 C.3   197  VAL197      0.0023
    172  CG2       18.8340   -1.1770    4.1140 C.3   197  VAL197      0.0023
    173  N         15.2040    0.0790    4.0400 N.am  198  PRO198     -0.2716
    174  CA        14.7330    0.8240    2.8830 C.3   198  PRO198      0.1521
    175  C         15.8920    0.9840    1.8650 C.2   198  PRO198      0.2440
    176  O         17.0370    1.2640    2.2850 O.2   198  PRO198     -0.2731
    177  CB        14.3860    2.2050    3.5180 C.3   198  PRO198      0.0310
    178  CG        13.7750    1.8190    4.8730 C.3   198  PRO198      0.0237
    179  CD        14.8270    0.7670    5.3250 C.3   198  PRO198      0.0939
    180  N         15.6310    0.8180    0.5470 N.am  199  PRO199     -0.2727
    181  CA        14.3720    0.7160   -0.2020 C.3   199  PRO199      0.1402
    182  C         13.7000   -0.6590   -0.1950 C.2   199  PRO199      0.2269
    183  O         12.6670   -0.8450   -0.8720 O.2   199  PRO199     -0.2865
    184  CB        14.7860    1.1200   -1.6370 C.3   199  PRO199      0.0296
    185  CG        16.2230    0.7220   -1.7330 C.3   199  PRO199      0.0237
    186  CD        16.7940    0.8940   -0.3440 C.3   199  PRO199      0.0939
    187  N         14.0880   -3.4530   -1.4900 N.3   201  LEU201     -0.1245
    188  CA        13.8960   -4.0910   -2.8100 C.3   201  LEU201      0.1561
    189  C         13.9410   -5.6180   -2.7480 C.2   201  LEU201      0.2260
    190  O         14.7630   -6.2050   -2.0270 O.2   201  LEU201     -0.2867
    191  CB        14.9570   -3.5670   -3.7740 C.3   201  LEU201      0.0270
    192  CG        14.8670   -2.0390   -3.9800 C.3   201  LEU201      0.0019
    193  CD1       16.1460   -1.5460   -4.6180 C.3   201  LEU201      0.0001
    194  CD2       13.5720   -1.5380   -4.6950 C.3   201  LEU201      0.0001
    195  N         18.6480  -14.9450   -0.4450 N.3   206  TRP206     -0.1241
    196  CA        19.2340  -15.0560    0.9160 C.3   206  TRP206      0.1605
    197  C         19.8670  -16.4390    1.0670 C.2   206  TRP206      0.2264
    198  O         19.3000  -17.4500    0.7310 O.2   206  TRP206     -0.2867
    199  CB        18.0930  -14.9310    1.9620 C.3   206  TRP206      0.0550
    200  CG        17.8840  -13.4630    2.2090 C.ar  206  TRP206      0.0003
    201  CD1       16.9230  -12.6230    1.6550 C.ar  206  TRP206      0.0946
    202  CD2       18.7840  -12.6110    2.9950 C.ar  206  TRP206      0.0152
    203  NE1       17.1490  -11.3000    2.0870 N.ar  206  TRP206     -0.2442
    204  CE2       18.2610  -11.2460    2.9030 C.ar  206  TRP206      0.0810
    205  CE3       19.9770  -12.8420    3.7290 C.ar  206  TRP206      0.0012
    206  CZ2       18.9120  -10.1790    3.5050 C.ar  206  TRP206      0.0191
    207  CZ3       20.5830  -11.7610    4.3650 C.ar  206  TRP206      0.0001
    208  CH2       20.0570  -10.4650    4.2750 C.ar  206  TRP206      0.0015
@<TRIPOS>BOND
     1   131   130    2
     2   132   129    1
     3   132   133    1
     4   130   129    1
     5   105   106    1
     6   118   119    2
     7   118   117    1
     8   129   128    1
     9   133   135   ar
    10   133   134   ar
    11   121   120    1
    12   120   117    1
    13   120   122    1
    14   135   137   ar
    15   128   125   am
    16   134   136   ar
    17   116   117    1
    18   116   107   am
    19   106   107    1
    20   106   109    1
    21   107   108    2
    22   123   124    1
    23   137   136   ar
    24   125   124    1
    25   125   126    2
    26   109   110    1
    27   124   127    1
    28   110   111   ar
    29   110   112   ar
    30   111   113   ar
    31   194   192    1
    32   112   114   ar
    33   193   192    1
    34   192   191    1
    35   191   188    1
    36   113   115   ar
    37   114   115   ar
    38   188   189    1
    39   188   187    1
    40   189   190    2
    41   185   184    1
    42   185   186    1
    43   184   181    1
    44   101   100    2
    45   100    99    1
    46   103   102    1
    47   183   182    2
    48   157   156    1
    49   138   139    1
    50   158   156    1
    51   156   155    1
    52   195   196    1
    53   186   180    1
    54    59    60    1
    55   181   182    1
    56   181   180    1
    57    99   102    1
    58    99    98    1
    59   146   145    1
    60   146   149    1
    61   146   147    1
    62   102   104    1
    63    53    54    2
    64    53    52    1
    65    55    56    1
    66    55    52    1
    67   144   142    1
    68   149   150    1
    69   151   147   am
    70   151   152    1
    71   180   175   am
    72   139   142    1
    73   139   140    1
    74    56    58   ar
    75    56    57   ar
    76   198   197    2
    77    52    51    1
    78   147   148    2
    79   196   197    1
    80   196   199    1
    81   155   152    1
    82    60    63    1
    83    60    61    1
    84    64    63    1
    85    64    65    1
    86   142   143    1
    87   140   141    2
    88   152   153    1
    89   201   203   ar
    90   201   200   ar
    91   175   176    2
    92   175   174    1
    93    62    61    2
    94   199   200    1
    95   203   204   ar
    96    67    65   am
    97   200   202   ar
    98    65    66    2
    99   154   153    2
   100   169   168    2
   101   153   159   am
   102   174   177    1
   103   174   173    1
   104   204   202   ar
   105   204   206   ar
   106   202   205   ar
   107   206   208   ar
   108   177   178    1
   109   205   207   ar
   110   168   173   am
   111   168   167    1
   112   159   160    1
   113   173   179    1
   114   172   170    1
   115   208   207   ar
   116    76    74   ar
   117    76    77   ar
   118    47    48    1
   119    47    44    1
   120   166   167    1
   121   166   161   am
   122     9     7   ar
   123     9    10   ar
   124   178   179    1
   125    50    48   am
   126    48    49    2
   127    74    73   ar
   128    90    91    2
   129    90    89    1
   130   167   170    1
   131    20    19    1
   132     7     6   ar
   133   160   161    1
   134   160   163    1
   135   170   171    1
   136    46    45    2
   137    45    44    1
   138   161   162    2
   139    92    89    1
   140    92    93    1
   141    10    12   ar
   142    10     8   ar
   143    19    16    1
   144   165   163    1
   145    12    14   ar
   146    77    75   ar
   147    44    43    1
   148    89    88    1
   149   163   164    1
   150    68    69    1
   151    73    75   ar
   152    73    72    1
   153     6     8   ar
   154     6     5    1
   155    93    94   ar
   156    93    95   ar
   157    25    22    1
   158    25    26    1
   159    94    96   ar
   160    15    16    1
   161     8    11   ar
   162    35    33   ar
   163    35    36   ar
   164    14    13   ar
   165    72    69    1
   166    33    32   ar
   167    95    97   ar
   168    16    17    1
   169     5     2    1
   170    22    23    1
   171    22    21    1
   172    96    97   ar
   173    24    23    2
   174     1     2    1
   175    69    70    1
   176    11    13   ar
   177    36    34   ar
   178    18    17    2
   179     2     3    1
   180    32    31    1
   181    32    34   ar
   182    87    86   ar
   183    87    85   ar
   184    71    70    2
   185    31    28    1
   186    86    84   ar
   187     4     3    2
   188    85    83   ar
   189    41    42    1
   190    41    38    1
   191    40    39    2
   192    27    28    1
   193    28    29    1
   194    37    29   am
   195    37    38    1
   196    39    38    1
   197    84    83   ar
   198    29    30    2
   199    83    82    1
   200    78    79    1
   201    82    79    1
   202    79    80    1
   203    80    81    2
