@<TRIPOS>MOLECULE
tmp/4qjzA00.pdb
 167 161 0 0 0
SMALL
GASTEIGER

@<TRIPOS>ATOM
      1  N          5.0430   -0.9340   16.7400 N.3    10  ILE10      -0.1231
      2  CA         5.5940   -1.7350   15.5980 C.3    10  ILE10       0.1692
      3  C          7.0750   -2.0620   15.9470 C.2    10  ILE10       0.2592
      4  O          7.8280   -1.1810   16.3680 O.2    10  ILE10      -0.2718
      5  CB         5.3750   -1.0380   14.2190 C.3    10  ILE10       0.0266
      6  CG1        5.9870   -1.8990   13.0680 C.3    10  ILE10       0.0019
      7  CG2        5.9790    0.3490   14.1550 C.3    10  ILE10       0.0020
      8  CD1        5.4380   -1.5760   11.6690 C.3    10  ILE10       0.0001
      9  N          7.4430   -3.3440   15.7420 N.am   11  VAL11      -0.1966
     10  CA         8.7370   -3.8590   16.1930 C.3    11  VAL11       0.1727
     11  C          9.1410   -5.0680   15.3090 C.2    11  VAL11       0.2616
     12  O          8.2830   -5.8060   14.7980 O.2    11  VAL11      -0.2715
     13  CB         8.7030   -4.2330   17.6950 C.3    11  VAL11       0.0290
     14  CG1        7.7490   -5.3890   18.0240 C.3    11  VAL11       0.0023
     15  CG2       10.1290   -4.5360   18.2040 C.3    11  VAL11       0.0023
     16  N         10.4520   -5.1850   15.0710 N.am   12  ALA12      -0.1977
     17  CA        11.0160   -6.4250   14.5270 C.3    12  ALA12       0.1597
     18  C         11.8450   -7.0380   15.6250 C.2    12  ALA12       0.2287
     19  O         12.6440   -6.3260   16.2720 O.2    12  ALA12      -0.2864
     20  CB        11.9320   -6.1320   13.3300 C.3    12  ALA12       0.0319
     21  N         20.3380   -1.9420   14.5910 N.3    25  LEU25      -0.1245
     22  CA        19.5880   -3.1720   14.3900 C.3    25  LEU25       0.1561
     23  C         20.5840   -4.2970   14.2070 C.2    25  LEU25       0.2260
     24  O         21.6440   -4.0400   13.6190 O.2    25  LEU25      -0.2867
     25  CB        18.7070   -2.9800   13.1430 C.3    25  LEU25       0.0270
     26  CG        17.6640   -1.8580   13.3280 C.3    25  LEU25       0.0019
     27  CD1       16.8760   -1.7230   12.0650 C.3    25  LEU25       0.0001
     28  CD2       16.6930   -2.2510   14.4320 C.3    25  LEU25       0.0001
     29  N         20.4090   -6.6240   12.1100 N.3    27  TRP27      -0.1241
     30  CA        20.2050   -7.1730   10.7660 C.3    27  TRP27       0.1605
     31  C         20.0870   -6.0240    9.8050 C.2    27  TRP27       0.2264
     32  O         19.8880   -4.8570   10.2130 O.2    27  TRP27      -0.2867
     33  CB        18.9010   -8.0090   10.6970 C.3    27  TRP27       0.0550
     34  CG        17.7210   -7.2850   11.3860 C.ar   27  TRP27       0.0003
     35  CD1       16.9620   -6.1990   10.9270 C.ar   27  TRP27       0.0946
     36  CD2       17.2220   -7.5550   12.7360 C.ar   27  TRP27       0.0152
     37  NE1       16.0100   -5.8560   11.8680 N.ar   27  TRP27      -0.2442
     38  CE2       16.1530   -6.5860   13.0000 C.ar   27  TRP27       0.0810
     39  CE3       17.5700   -8.4720   13.7260 C.ar   27  TRP27       0.0012
     40  CZ2       15.4710   -6.5730   14.2360 C.ar   27  TRP27       0.0191
     41  CZ3       16.8800   -8.4600   14.9490 C.ar   27  TRP27       0.0001
     42  CH2       15.8530   -7.5500   15.1910 C.ar   27  TRP27       0.0015
     43  N         11.9590   -5.5900    4.9330 N.3    32  GLU32      -0.1231
     44  CA        11.4050   -5.4130    6.2720 C.3    32  GLU32       0.1699
     45  C         11.2440   -3.8990    6.4990 C.2    32  GLU32       0.2592
     46  O         10.1830   -3.4540    6.9290 O.2    32  GLU32      -0.2718
     47  CB        12.2670   -6.1120    7.3580 C.3    32  GLU32       0.0402
     48  CG        11.4290   -6.4480    8.5850 C.3    32  GLU32       0.1161
     49  CD        10.9860   -5.2710    9.4280 C.2    32  GLU32       0.3649
     50  OE1       11.8040   -4.3620    9.6940 O.co2  32  GLU32      -0.2457
     51  OE2        9.8180   -5.3080    9.9250 O.co2  32  GLU32      -0.2457
     52  N         12.2640   -3.0930    6.1840 N.am   33  ILE33      -0.1980
     53  CA        12.0670   -1.6320    6.2640 C.3    33  ILE33       0.1595
     54  C         10.9710   -1.0770    5.3870 C.2    33  ILE33       0.2287
     55  O         10.3210   -0.1890    5.7780 O.2    33  ILE33      -0.2864
     56  CB        13.3610   -0.8620    6.0520 C.3    33  ILE33       0.0276
     57  CG1       14.4050   -1.4330    7.0080 C.3    33  ILE33       0.0022
     58  CG2       13.1000    0.6330    6.1930 C.3    33  ILE33       0.0022
     59  CD1       14.8540   -0.4680    8.0520 C.3    33  ILE33       0.0001
     60  N          8.2330   -2.6040    4.6070 N.3    35  TYR35      -0.1227
     61  CA         6.9950   -2.9640    5.2920 C.3    35  TYR35       0.1736
     62  C          6.7980   -1.9790    6.4300 C.2    35  TYR35       0.2595
     63  O          5.7130   -1.4640    6.6040 O.2    35  TYR35      -0.2718
     64  CB         7.0850   -4.3890    5.8380 C.3    35  TYR35       0.0548
     65  CG         5.9450   -4.7310    6.7910 C.ar   35  TYR35      -0.0200
     66  CD1        4.6970   -5.0930    6.2620 C.ar   35  TYR35      -0.0009
     67  CD2        6.1100   -4.7240    8.2100 C.ar   35  TYR35      -0.0009
     68  CE1        3.6290   -5.4510    7.0680 C.ar   35  TYR35       0.0417
     69  CE2        5.0200   -5.1140    9.0360 C.ar   35  TYR35       0.0417
     70  CZ         3.8060   -5.4430    8.4580 C.ar   35  TYR35       0.1957
     71  OH         2.7070   -5.8610    9.2010 O.3    35  TYR35      -0.2866
     72  N          7.8570   -1.7260    7.2190 N.am   36  PHE36      -0.1976
     73  CA         7.7190   -0.7350    8.3000 C.3    36  PHE36       0.1639
     74  C          7.2480    0.6090    7.6990 C.2    36  PHE36       0.2290
     75  O          6.3770    1.2090    8.2350 O.2    36  PHE36      -0.2864
     76  CB         9.0780   -0.5400    8.9900 C.3    36  PHE36       0.0560
     77  CG         9.1910    0.6980    9.8470 C.ar   36  PHE36      -0.0200
     78  CD1        8.8100    0.6480   11.2020 C.ar   36  PHE36      -0.0042
     79  CD2        9.7680    1.8730    9.3210 C.ar   36  PHE36      -0.0042
     80  CE1        8.9740    1.7570   12.0240 C.ar   36  PHE36      -0.0003
     81  CE2        9.9230    3.0120   10.1600 C.ar   36  PHE36      -0.0003
     82  CZ         9.5170    2.9470   11.4680 C.ar   36  PHE36      -0.0000
     83  N         16.9070    5.8330   19.4310 N.3    61  THR61      -0.1218
     84  CA        16.4140    5.4350   18.1170 C.3    61  THR61       0.1862
     85  C         16.5370    6.5470   17.0830 C.2    61  THR61       0.2287
     86  O         16.9440    6.2550   15.9350 O.2    61  THR61      -0.2866
     87  CB        14.9750    4.8960   18.2090 C.3    61  THR61       0.1770
     88  OG1       15.0460    3.7550   19.0580 O.3    61  THR61      -0.2211
     89  CG2       14.4310    4.4750   16.8550 C.3    61  THR61       0.0375
     90  N         19.8970    6.7900   16.0330 N.3    64  SER64      -0.1202
     91  CA        20.3430    5.6150   15.3000 C.3    64  SER64       0.2020
     92  C         19.9540    5.6880   13.8250 C.2    64  SER64       0.2619
     93  O         20.5140    4.9550   13.0120 O.2    64  SER64      -0.2717
     94  CB        19.8070    4.3110   15.9480 C.3    64  SER64       0.2103
     95  OG        18.4910    4.0720   15.5470 O.3    64  SER64      -0.2182
     96  N         18.9830    6.5190   13.4470 N.am   65  ILE65      -0.1966
     97  CA        18.5200    6.4890   12.0490 C.3    65  ILE65       0.1712
     98  C         19.5610    7.2840   11.2060 C.2    65  ILE65       0.2458
     99  O         19.7010    8.4830   11.4250 O.2    65  ILE65      -0.2730
    100  CB        17.1110    7.1000   11.9330 C.3    65  ILE65       0.0289
    101  CG1       16.1010    6.2930   12.7890 C.3    65  ILE65       0.0022
    102  CG2       16.6230    7.2460   10.4830 C.3    65  ILE65       0.0023
    103  CD1       14.6690    6.7980   12.6840 C.3    65  ILE65       0.0001
    104  N         20.2880    6.6260   10.2780 N.am   66  PRO66      -0.2727
    105  CA        21.1710    7.4920    9.4490 C.3    66  PRO66       0.1402
    106  C         20.4300    8.7440    9.0000 C.2    66  PRO66       0.2269
    107  O         19.2360    8.6980    8.6650 O.2    66  PRO66      -0.2865
    108  CB        21.5390    6.5990    8.2270 C.3    66  PRO66       0.0296
    109  CG        21.2310    5.1870    8.6350 C.3    66  PRO66       0.0237
    110  CD        20.1040    5.2900    9.6700 C.3    66  PRO66       0.0939
    111  N         17.8830    9.1810    6.2390 N.3    69  PHE69      -0.1241
    112  CA        16.5210    8.6960    6.3780 C.3    69  PHE69       0.1605
    113  C         15.6810    9.3540    7.4720 C.2    69  PHE69       0.2264
    114  O         14.5210    8.9500    7.6980 O.2    69  PHE69      -0.2867
    115  CB        16.5100    7.1660    6.4650 C.3    69  PHE69       0.0534
    116  CG        17.1800    6.5270    5.2850 C.ar   69  PHE69      -0.0203
    117  CD1       16.6330    6.6930    4.0030 C.ar   69  PHE69      -0.0042
    118  CD2       18.3790    5.8380    5.4390 C.ar   69  PHE69      -0.0042
    119  CE1       17.2620    6.1390    2.8910 C.ar   69  PHE69      -0.0003
    120  CE2       19.0210    5.2880    4.3220 C.ar   69  PHE69      -0.0003
    121  CZ        18.4580    5.4380    3.0560 C.ar   69  PHE69      -0.0000
    122  N         11.5040   10.6360    9.3370 N.3    72  LEU72      -0.1245
    123  CA        10.8070    9.6810    8.5030 C.3    72  LEU72       0.1561
    124  C          9.7500   10.4140    7.7100 C.2    72  LEU72       0.2260
    125  O          8.8220   11.0300    8.2730 O.2    72  LEU72      -0.2867
    126  CB        10.2430    8.5220    9.3710 C.3    72  LEU72       0.0270
    127  CG        11.3100    7.8270   10.2590 C.3    72  LEU72       0.0019
    128  CD1       10.7270    6.7910   11.2450 C.3    72  LEU72       0.0001
    129  CD2       12.4300    7.1610    9.4720 C.3    72  LEU72       0.0001
    130  N          5.0920   11.2070    7.5460 N.3    75  ARG75      -0.1245
    131  CA         4.5440   10.8920    8.8880 C.3    75  ARG75       0.1563
    132  C          4.9560   12.0660    9.8100 C.2    75  ARG75       0.2260
    133  O          5.9720   12.7200    9.6010 O.2    75  ARG75      -0.2867
    134  CB         5.0600    9.5270    9.4940 C.3    75  ARG75       0.0307
    135  CG         4.6190    8.2950    8.6790 C.3    75  ARG75       0.0489
    136  CD         5.6810    7.2080    8.6990 C.3    75  ARG75       0.2205
    137  NE         6.8100    7.5390    7.7580 N.pl3  75  ARG75      -0.0865
    138  CZ         7.8220    6.7380    7.4370 C.cat  75  ARG75       0.5346
    139  NH1        7.9660    5.5340    7.9850 N.pl3  75  ARG75       0.1354
    140  NH2        8.7210    7.1260    6.5360 N.pl3  75  ARG75       0.1354
    141  N          7.5840    3.4210   17.6870 N.3   123  ILE123     -0.1245
    142  CA         8.5430    2.6600   16.8080 C.3   123  ILE123      0.1561
    143  C          9.8920    2.2720   17.4740 C.2   123  ILE123      0.2260
    144  O         10.8220    1.8170   16.7470 O.2   123  ILE123     -0.2867
    145  CB         8.8200    3.4430   15.4550 C.3   123  ILE123      0.0252
    146  CG1        9.7100    4.6600   15.7890 C.3   123  ILE123      0.0019
    147  CG2        7.4690    3.8240   14.7590 C.3   123  ILE123      0.0019
    148  CD1       10.3950    5.2680   14.5580 C.3   123  ILE123      0.0001
    149  N          9.5060    1.4320   24.3540 N.3   129  TYR129     -0.1241
    150  CA         8.5670    0.2930   24.2560 C.3   129  TYR129      0.1605
    151  C          8.1060   -0.1170   25.6700 C.2   129  TYR129      0.2264
    152  O          6.9780   -0.6110   25.8420 O.2   129  TYR129     -0.2867
    153  CB         9.2180   -0.9370   23.6730 C.3   129  TYR129      0.0534
    154  CG         9.4700   -0.9590   22.1600 C.ar  129  TYR129     -0.0201
    155  CD1        8.5130   -0.4480   21.2730 C.ar  129  TYR129     -0.0009
    156  CD2       10.6660   -1.5110   21.6050 C.ar  129  TYR129     -0.0009
    157  CE1        8.6940   -0.5160   19.8580 C.ar  129  TYR129      0.0417
    158  CE2       10.8810   -1.5860   20.2190 C.ar  129  TYR129      0.0417
    159  CZ         9.8740   -1.0600   19.3140 C.ar  129  TYR129      0.1957
    160  OH        10.0530   -1.1360   17.9290 O.3   129  TYR129     -0.2866
    161  N          7.3900   -8.1210   13.6380 N.3   144  THR144     -0.1218
    162  CA         8.0780   -8.9010   12.5990 C.3   144  THR144      0.1862
    163  C          8.8920   -9.8960   13.3570 C.2   144  THR144      0.2287
    164  O          9.8370   -9.4890   14.0580 O.2   144  THR144     -0.2866
    165  CB         8.9490   -8.0180   11.7280 C.3   144  THR144      0.1770
    166  OG1        8.0840   -7.1070   11.0430 O.3   144  THR144     -0.2211
    167  CG2        9.6260   -8.8330   10.5720 C.3   144  THR144      0.0375
@<TRIPOS>BOND
     1   119   121   ar
     2   119   117   ar
     3   121   120   ar
     4   117   116   ar
     5   120   118   ar
     6    60    61    1
     7    43    44    1
     8   116   118   ar
     9   116   115    1
    10    61    64    1
    11    61    62    1
    12    54    55    2
    13    54    53    1
    14    64    65    1
    15    56    58    1
    16    56    53    1
    17    56    57    1
    18    52    53    1
    19    52    45   am
    20   111   112    1
    21    66    65   ar
    22    66    68   ar
    23    44    45    1
    24    44    47    1
    25   112   115    1
    26   112   113    1
    27    62    63    2
    28    62    72   am
    29    45    46    2
    30   140   138    1
    31    65    67   ar
    32    57    59    1
    33    68    70   ar
    34    72    73    1
    35    47    48    1
    36   138   137    2
    37   138   139    1
    38   113   114    2
    39   130   131    1
    40    74    75    2
    41    74    73    1
    42   124   125    2
    43   124   123    1
    44   137   136    1
    45    67    69   ar
    46   108   109    1
    47   108   105    1
    48    73    76    1
    49    70    69   ar
    50    70    71    1
    51   123   122    1
    52   123   126    1
    53    48    49    1
    54   109   110    1
    55   107   106    2
    56   135   136    1
    57   135   134    1
    58   131   134    1
    59   131   132    1
    60    76    77    1
    61   106   105    1
    62    79    77   ar
    63    79    81   ar
    64   126   127    1
    65    49    50   ar
    66    49    51   ar
    67   105   104    1
    68   129   127    1
    69   133   132    2
    70   110   104    1
    71    31    32    2
    72    31    30    1
    73    77    78   ar
    74    81    82   ar
    75   127   128    1
    76   104    98   am
    77   102   100    1
    78   167   165    1
    79    33    30    1
    80    33    34    1
    81    30    29    1
    82    35    34   ar
    83    35    37   ar
    84   166   165    1
    85    78    80   ar
    86    98    99    2
    87    98    97    1
    88    34    36   ar
    89    82    80   ar
    90     8     6    1
    91   165   162    1
    92    37    38   ar
    93   100    97    1
    94   100   101    1
    95    97    96    1
    96    27    26    1
    97   162   163    1
    98   162   161    1
    99   103   101    1
   100    36    38   ar
   101    36    39   ar
   102    38    40   ar
   103    93    92    2
   104     6     5    1
   105    25    26    1
   106    25    22    1
   107    26    28    1
   108    20    17    1
   109   163   164    2
   110    96    92   am
   111    24    23    2
   112    39    41   ar
   113    92    91    1
   114     7     5    1
   115    23    22    1
   116     5     2    1
   117    40    42   ar
   118    22    21    1
   119    17    16    1
   120    17    18    1
   121   148   146    1
   122   147   145    1
   123    12    11    2
   124    41    42   ar
   125    16    11   am
   126    91    94    1
   127    91    90    1
   128    11    10    1
   129   145   146    1
   130   145   142    1
   131    95    94    1
   132     2     3    1
   133     2     1    1
   134    18    19    2
   135     9     3   am
   136     9    10    1
   137    86    85    2
   138     3     4    2
   139    10    13    1
   140   144   143    2
   141   142   143    1
   142   142   141    1
   143    89    87    1
   144    85    84    1
   145    13    14    1
   146    13    15    1
   147   160   159    1
   148    84    87    1
   149    84    83    1
   150    87    88    1
   151   159   157   ar
   152   159   158   ar
   153   157   155   ar
   154   158   156   ar
   155   155   154   ar
   156   156   154   ar
   157   154   153    1
   158   153   150    1
   159   150   149    1
   160   150   151    1
   161   151   152    2
