@<TRIPOS>MOLECULE
tmp/4qkdA00.pdb
 134 123 0 0 0
SMALL
GASTEIGER

@<TRIPOS>ATOM
      1  N         -2.3670    2.2610    1.0140 N.3    55  ILE55      -0.1245
      2  CA        -2.8960    3.3930    1.7510 C.3    55  ILE55       0.1561
      3  C         -3.4120    4.4720    0.8100 C.2    55  ILE55       0.2260
      4  O         -2.7690    4.7570   -0.1890 O.2    55  ILE55      -0.2867
      5  CB        -1.8440    3.9850    2.7000 C.3    55  ILE55       0.0252
      6  CG1       -1.1400    2.9060    3.5170 C.3    55  ILE55       0.0019
      7  CG2       -2.5090    4.9640    3.6500 C.3    55  ILE55       0.0019
      8  CD1       -0.0660    3.4590    4.4270 C.3    55  ILE55       0.0001
      9  N          6.5180    4.8790   12.7890 N.3    92  HIS92      -0.1241
     10  CA         5.7380    5.3110   11.6310 C.3    92  HIS92       0.1621
     11  C          4.4840    5.9980   12.1310 C.2    92  HIS92       0.2264
     12  O          3.7300    5.4480   12.9350 O.2    92  HIS92      -0.2867
     13  CB         5.3810    4.0800   10.8110 C.3    92  HIS92       0.0745
     14  CG         4.5410    4.3580    9.6120 C.ar   92  HIS92       0.0817
     15  ND1        3.6620    3.4230    9.1250 N.ar   92  HIS92      -0.2268
     16  CD2        4.4080    5.4500    8.8220 C.ar   92  HIS92       0.1154
     17  CE1        3.0500    3.9110    8.0630 C.ar   92  HIS92       0.1986
     18  NE2        3.4580    5.1520    7.8800 N.ar   92  HIS92      -0.2212
     19  N         -4.5470    9.5710    8.1840 N.3    95  LEU95      -0.1245
     20  CA        -5.5710    9.2620    7.1900 C.3    95  LEU95       0.1561
     21  C         -6.6410   10.3210    7.2400 C.2    95  LEU95       0.2260
     22  O         -7.2100   10.5490    8.2890 O.2    95  LEU95      -0.2867
     23  CB        -6.2440    7.9300    7.5220 C.3    95  LEU95       0.0270
     24  CG        -5.4400    6.6540    7.4280 C.3    95  LEU95       0.0019
     25  CD1       -6.3730    5.4920    7.7370 C.3    95  LEU95       0.0001
     26  CD2       -4.8460    6.5180    6.0320 C.3    95  LEU95       0.0001
     27  N         -7.2440    2.0800    4.1810 N.3   101  ILE101     -0.1245
     28  CA        -6.1340    1.2040    3.8750 C.3   101  ILE101      0.1561
     29  C         -6.7020   -0.0950    3.3300 C.2   101  ILE101      0.2260
     30  O         -7.5610   -0.7020    3.9700 O.2   101  ILE101     -0.2867
     31  CB        -5.2670    0.9370    5.1130 C.3   101  ILE101      0.0252
     32  CG1       -4.7980    2.2570    5.7280 C.3   101  ILE101      0.0019
     33  CG2       -4.0830    0.0550    4.7510 C.3   101  ILE101      0.0019
     34  CD1       -3.8980    2.0760    6.9290 C.3   101  ILE101      0.0001
     35  N         -3.5340   -5.8320    3.0590 N.3   104  HIS104     -0.1241
     36  CA        -2.1460   -6.0900    2.7750 C.3   104  HIS104      0.1621
     37  C         -1.5380   -6.8100    3.9620 C.2   104  HIS104      0.2264
     38  O         -2.0830   -6.7630    5.0670 O.2   104  HIS104     -0.2867
     39  CB        -1.3690   -4.7830    2.5060 C.3   104  HIS104      0.0745
     40  CG        -1.2480   -3.9130    3.7100 C.ar  104  HIS104      0.0817
     41  ND1       -2.2960   -3.1380    4.1350 N.ar  104  HIS104     -0.2268
     42  CD2       -0.2800   -3.8050    4.6460 C.ar  104  HIS104      0.1154
     43  CE1       -1.9570   -2.5390    5.2600 C.ar  104  HIS104      0.1986
     44  NE2       -0.7510   -2.9510    5.6060 N.ar  104  HIS104     -0.2212
     45  N          2.1180   -6.6790    5.9610 N.3   106  ASP106     -0.1239
     46  CA         3.2920   -5.8220    6.0370 C.3   106  ASP106      0.1674
     47  C          4.5090   -6.5780    5.5360 C.2   106  ASP106      0.2266
     48  O          4.7070   -7.7440    5.8790 O.2   106  ASP106     -0.2867
     49  CB         3.5390   -5.2980    7.4660 C.3   106  ASP106      0.1410
     50  CG         2.6400   -4.1360    7.8060 C.2   106  ASP106      0.3668
     51  OD1        1.5980   -4.0340    7.1490 O.co2 106  ASP106     -0.2456
     52  OD2        2.9600   -3.3960    8.7580 O.co2 106  ASP106     -0.2456
     53  N          3.6260   -6.1110   15.0810 N.3   115  ILE115     -0.1245
     54  CA         3.1930   -4.7560   14.7880 C.3   115  ILE115      0.1561
     55  C          2.3180   -4.3020   15.9470 C.2   115  ILE115      0.2260
     56  O          1.4260   -5.0220   16.3830 O.2   115  ILE115     -0.2867
     57  CB         2.3030   -4.7540   13.5440 C.3   115  ILE115      0.0252
     58  CG1        3.0050   -5.3560   12.3300 C.3   115  ILE115      0.0019
     59  CG2        1.8560   -3.3310   13.2320 C.3   115  ILE115      0.0019
     60  CD1        2.0870   -5.7870   11.1950 C.3   115  ILE115      0.0001
     61  N        -10.4280   -2.2650   11.8320 N.3   126  MET126     -0.1245
     62  CA        -9.4170   -3.0390   11.1470 C.3   126  MET126      0.1570
     63  C         -9.9580   -4.4300   10.8770 C.2   126  MET126      0.2261
     64  O        -10.3490   -5.1130   11.8100 O.2   126  MET126     -0.2867
     65  CB        -8.1560   -3.1320   12.0070 C.3   126  MET126      0.0387
     66  CG        -7.0420   -3.9120   11.3330 C.3   126  MET126      0.0595
     67  SD        -5.4830   -3.8730   12.2140 S.3   126  MET126     -0.1393
     68  CE        -4.9050   -2.2780   11.6840 C.3   126  MET126      0.0692
     69  N         -3.4750   -1.6660   19.4140 N.3   148  TYR148     -0.1241
     70  CA        -3.6330   -3.0240   18.8750 C.3   148  TYR148      0.1605
     71  C         -2.2730   -3.6320   18.6820 C.2   148  TYR148      0.2264
     72  O         -1.2720   -2.9480   18.4900 O.2   148  TYR148     -0.2867
     73  CB        -4.4450   -3.0790   17.5610 C.3   148  TYR148      0.0534
     74  CG        -3.7520   -2.4850   16.3610 C.ar  148  TYR148     -0.0201
     75  CD1       -2.8380   -3.2230   15.6340 C.ar  148  TYR148     -0.0009
     76  CD2       -4.0390   -1.2020   15.9200 C.ar  148  TYR148     -0.0009
     77  CE1       -2.2060   -2.7210   14.5210 C.ar  148  TYR148      0.0417
     78  CE2       -3.3910   -0.6830   14.8210 C.ar  148  TYR148      0.0417
     79  CZ        -2.4610   -1.4230   14.1310 C.ar  148  TYR148      0.1957
     80  OH        -1.8260   -0.9790   12.9980 O.3   148  TYR148     -0.2866
     81  N         -4.3510   -7.1830    6.8090 N.3   160  HIS160     -0.1241
     82  CA        -5.1080   -6.1970    7.5720 C.3   160  HIS160      0.1621
     83  C         -5.4350   -4.9800    6.6950 C.2   160  HIS160      0.2264
     84  O         -4.7730   -4.7280    5.6760 O.2   160  HIS160     -0.2867
     85  CB        -4.3990   -5.7810    8.8680 C.3   160  HIS160      0.0745
     86  CG        -3.0300   -5.2760    8.6590 C.ar  160  HIS160      0.0817
     87  ND1       -1.9190   -6.0590    8.7720 N.ar  160  HIS160     -0.2268
     88  CD2       -2.5880   -4.0530    8.3160 C.ar  160  HIS160      0.1154
     89  CE1       -0.8430   -5.3520    8.5110 C.ar  160  HIS160      0.1986
     90  NE2       -1.2250   -4.1150    8.2650 N.ar  160  HIS160     -0.2212
     91  N         -7.9230   -1.0030    6.8970 N.3   162  ILE162     -0.1245
     92  CA        -8.7370   -0.0500    7.6600 C.3   162  ILE162      0.1561
     93  C         -9.8590    0.4120    6.7380 C.2   162  ILE162      0.2260
     94  O         -9.6130    0.9490    5.6640 O.2   162  ILE162     -0.2867
     95  CB        -7.9400    1.1580    8.1500 C.3   162  ILE162      0.0252
     96  CG1       -6.8480    0.7090    9.1370 C.3   162  ILE162      0.0019
     97  CG2       -8.8810    2.1970    8.7510 C.3   162  ILE162      0.0019
     98  CD1       -7.3320    0.2690   10.4940 C.3   162  ILE162      0.0001
     99  N         -7.8650   10.2330   11.0500 N.3   180  ARG180     -0.1245
    100  CA        -7.2620    9.3720   12.0410 C.3   180  ARG180      0.1563
    101  C         -5.7590    9.4990   11.9590 C.2   180  ARG180      0.2260
    102  O         -5.1810    9.4700   10.8710 O.2   180  ARG180     -0.2867
    103  CB        -7.6620    7.9190   11.7680 C.3   180  ARG180      0.0307
    104  CG        -6.9830    6.8830   12.6630 C.3   180  ARG180      0.0489
    105  CD        -7.4410    5.4750   12.3110 C.3   180  ARG180      0.2205
    106  NE        -6.7730    4.3840   13.0130 N.pl3 180  ARG180     -0.0865
    107  CZ        -5.7470    3.7060   12.5410 C.cat 180  ARG180      0.5346
    108  NH1       -5.2450    3.9700   11.3530 N.pl3 180  ARG180      0.1354
    109  NH2       -5.2510    2.6940   13.2370 N.pl3 180  ARG180      0.1354
    110  N         -2.3760    7.4050   13.3540 N.3   182  SER182     -0.1217
    111  CA        -1.8980    6.2090   14.0040 C.3   182  SER182      0.1889
    112  C         -0.3990    6.2600   14.1590 C.2   182  SER182      0.2288
    113  O          0.3150    6.8870   13.3890 O.2   182  SER182     -0.2866
    114  CB        -2.3820    4.9520   13.2800 C.3   182  SER182      0.2089
    115  OG        -2.0550    5.0180   11.9340 O.3   182  SER182     -0.2183
    116  N          2.7370    3.6930   14.7700 N.3   184  ILE184     -0.1245
    117  CA         2.9750    2.2650   14.5640 C.3   184  ILE184      0.1561
    118  C          4.4320    1.9270   14.8450 C.2   184  ILE184      0.2260
    119  O          5.3510    2.4160   14.2080 O.2   184  ILE184     -0.2867
    120  CB         2.5850    1.8140   13.1290 C.3   184  ILE184      0.0252
    121  CG1        1.1520    2.2520   12.7660 C.3   184  ILE184      0.0019
    122  CG2        2.7200    0.2930   12.9960 C.3   184  ILE184      0.0019
    123  CD1        1.0640    3.4340   11.8310 C.3   184  ILE184      0.0001
    124  N          7.1330   -1.2640   14.9700 N.3   186  ARG186     -0.1245
    125  CA         7.3640   -2.5520   14.3110 C.3   186  ARG186      0.1563
    126  C          8.6640   -3.1450   14.7840 C.2   186  ARG186      0.2260
    127  O          9.5800   -2.4430   15.1310 O.2   186  ARG186     -0.2867
    128  CB         7.3970   -2.3690   12.7930 C.3   186  ARG186      0.0307
    129  CG         6.0370   -2.0370   12.1780 C.3   186  ARG186      0.0489
    130  CD         6.1610   -1.8170   10.7030 C.3   186  ARG186      0.2205
    131  NE         4.8950   -1.5520   10.0240 N.pl3 186  ARG186     -0.0865
    132  CZ         4.3800   -0.3410    9.7650 C.cat 186  ARG186      0.5346
    133  NH1        4.9830    0.7600   10.2010 N.pl3 186  ARG186      0.1354
    134  NH2        3.2410   -0.2370    9.0780 N.pl3 186  ARG186      0.1354
@<TRIPOS>BOND
     1     4     3    2
     2     3     2    1
     3     1     2    1
     4     2     5    1
     5    39    36    1
     6    39    40    1
     7     5     6    1
     8     5     7    1
     9    36    35    1
    10    36    37    1
    11    29    28    1
    12    29    30    2
    13     6     8    1
    14    40    41   ar
    15    40    42   ar
    16    28    27    1
    17    28    31    1
    18    37    38    2
    19    41    43   ar
    20    42    44   ar
    21    33    31    1
    22    31    32    1
    23    43    44   ar
    24    47    48    2
    25    47    46    1
    26    94    93    2
    27    84    83    2
    28    32    34    1
    29    45    46    1
    30    26    24    1
    31    46    49    1
    32    83    82    1
    33    93    92    1
    34    81    82    1
    35    91    92    1
    36    51    50   ar
    37    20    21    1
    38    20    23    1
    39    20    19    1
    40    21    22    2
    41    24    23    1
    42    24    25    1
    43    49    50    1
    44    82    85    1
    45    92    95    1
    46    50    52   ar
    47    18    17   ar
    48    18    16   ar
    49    17    15   ar
    50    95    97    1
    51    95    96    1
    52    90    88   ar
    53    90    89   ar
    54    88    86   ar
    55    89    87   ar
    56    86    87   ar
    57    86    85    1
    58    16    14   ar
    59   134   132    1
    60    15    14   ar
    61    96    98    1
    62    14    13    1
    63   132   131    2
    64   132   133    1
    65   131   130    1
    66   130   129    1
    67    13    10    1
    68   102   101    2
    69    63    62    1
    70    63    64    2
    71    99   100    1
    72    62    61    1
    73    62    65    1
    74    60    58    1
    75    66    65    1
    76    66    67    1
    77   108   107    1
    78    10    11    1
    79    10     9    1
    80    68    67    1
    81   103   100    1
    82   103   104    1
    83   123   121    1
    84   115   114    1
    85   101   100    1
    86    11    12    2
    87   129   128    1
    88   105   104    1
    89   105   106    1
    90    58    57    1
    91   107   106    2
    92   107   109    1
    93   121   120    1
    94   128   125    1
    95   122   120    1
    96    80    79    1
    97   120   117    1
    98    59    57    1
    99   114   111    1
   100   110   111    1
   101   113   112    2
   102    57    54    1
   103   111   112    1
   104    79    77   ar
   105    79    78   ar
   106   119   118    2
   107   125   126    1
   108   125   124    1
   109    77    75   ar
   110   117   116    1
   111   117   118    1
   112   126   127    2
   113    54    53    1
   114    54    55    1
   115    78    76   ar
   116    75    74   ar
   117    76    74   ar
   118    55    56    2
   119    74    73    1
   120    73    70    1
   121    72    71    2
   122    71    70    1
   123    70    69    1
