@<TRIPOS>MOLECULE
tmp/4qkfC00.pdb
 134 123 0 0 0
SMALL
GASTEIGER

@<TRIPOS>ATOM
      1  N        -16.6300    3.4600   56.9370 N.3    55  ILE55      -0.1245
      2  CA       -15.7460    4.6430   57.0530 C.3    55  ILE55       0.1561
      3  C        -16.3920    5.7620   57.8830 C.2    55  ILE55       0.2260
      4  O        -17.4830    6.1940   57.5540 O.2    55  ILE55      -0.2867
      5  CB       -15.3840    5.2450   55.6710 C.3    55  ILE55       0.0252
      6  CG1      -14.9000    4.1650   54.6880 C.3    55  ILE55       0.0019
      7  CG2      -14.3070    6.3150   55.8650 C.3    55  ILE55       0.0019
      8  CD1      -14.5290    4.7380   53.3270 C.3    55  ILE55       0.0001
      9  N        -10.6910    6.5720   43.4430 N.3    92  HIS92      -0.1241
     10  CA       -11.3130    6.8600   44.7310 C.3    92  HIS92       0.1621
     11  C        -10.3740    7.5940   45.6940 C.2    92  HIS92       0.2264
     12  O         -9.3800    7.0550   46.1770 O.2    92  HIS92      -0.2867
     13  CB       -11.8070    5.5540   45.3700 C.3    92  HIS92       0.0745
     14  CG       -12.4680    5.7470   46.6960 C.ar   92  HIS92       0.0817
     15  ND1      -12.0440    5.1130   47.8460 N.ar   92  HIS92      -0.2268
     16  CD2      -13.5230    6.5100   47.0550 C.ar   92  HIS92       0.1154
     17  CE1      -12.8040    5.4860   48.8560 C.ar   92  HIS92       0.1986
     18  NE2      -13.7090    6.3330   48.4030 N.ar   92  HIS92      -0.2212
     19  N        -10.0710    9.3380   49.2580 N.3    94  LEU94      -0.1245
     20  CA       -10.6720    9.3500   50.6190 C.3    94  LEU94       0.1561
     21  C         -9.8230   10.1710   51.5880 C.2    94  LEU94       0.2260
     22  O         -8.6710    9.8550   51.8270 O.2    94  LEU94      -0.2867
     23  CB       -10.8130    7.9240   51.1680 C.3    94  LEU94       0.0270
     24  CG       -11.1980    7.7360   52.6410 C.3    94  LEU94       0.0019
     25  CD1      -12.5320    8.3740   52.9300 C.3    94  LEU94       0.0001
     26  CD2      -11.2870    6.2570   52.9860 C.3    94  LEU94       0.0001
     27  N        -11.3980    3.7760   59.7390 N.3   102  ILE102     -0.1245
     28  CA       -12.1890    2.8130   58.9520 C.3   102  ILE102      0.1561
     29  C        -12.2530    1.4740   59.6810 C.2   102  ILE102      0.2260
     30  O        -11.2440    0.9820   60.2040 O.2   102  ILE102     -0.2867
     31  CB       -11.6300    2.6220   57.5150 C.3   102  ILE102      0.0252
     32  CG1      -11.5910    3.9720   56.7760 C.3   102  ILE102      0.0019
     33  CG2      -12.5180    1.6600   56.7310 C.3   102  ILE102      0.0019
     34  CD1      -10.7990    3.9460   55.4820 C.3   102  ILE102      0.0001
     35  N        -13.8940   -4.3070   56.8660 N.3   105  HIS105     -0.1241
     36  CA       -14.7980   -4.5860   55.7600 C.3   105  HIS105      0.1621
     37  C        -14.0310   -5.2870   54.6500 C.2   105  HIS105      0.2264
     38  O        -12.8210   -5.2700   54.6280 O.2   105  HIS105     -0.2867
     39  CB       -15.3950   -3.3070   55.1790 C.3   105  HIS105      0.0745
     40  CG       -14.3630   -2.3440   54.6830 C.ar  105  HIS105      0.0817
     41  ND1      -13.3290   -1.9040   55.4690 N.ar  105  HIS105     -0.2268
     42  CD2      -14.2010   -1.7440   53.4810 C.ar  105  HIS105      0.1154
     43  CE1      -12.5750   -1.0660   54.7790 C.ar  105  HIS105      0.1986
     44  NE2      -13.0920   -0.9450   53.5750 N.ar  105  HIS105     -0.2212
     45  N        -14.0240   -4.9980   50.6330 N.3   107  ASP107     -0.1239
     46  CA       -14.5190   -4.1970   49.5130 C.3   107  ASP107      0.1674
     47  C        -15.5140   -4.9270   48.6540 C.2   107  ASP107      0.2266
     48  O        -15.3460   -6.1030   48.3840 O.2   107  ASP107     -0.2867
     49  CB       -13.3580   -3.6650   48.6520 C.3   107  ASP107      0.1410
     50  CG       -12.7660   -2.4300   49.2290 C.2   107  ASP107      0.3668
     51  OD1      -13.2190   -2.0330   50.3310 O.co2 107  ASP107     -0.2456
     52  OD2      -11.8180   -1.8540   48.6490 O.co2 107  ASP107     -0.2456
     53  N         -6.7570   -4.2240   44.7810 N.3   116  ILE116     -0.1245
     54  CA        -6.9030   -2.9010   45.3620 C.3   116  ILE116      0.1561
     55  C         -5.5070   -2.3590   45.5150 C.2   116  ILE116      0.2260
     56  O         -4.6140   -3.0680   45.9080 O.2   116  ILE116     -0.2867
     57  CB        -7.5920   -2.9530   46.7380 C.3   116  ILE116      0.0252
     58  CG1       -8.9260   -3.6980   46.6350 C.3   116  ILE116      0.0019
     59  CG2       -7.8350   -1.5430   47.2770 C.3   116  ILE116      0.0019
     60  CD1       -9.4700   -4.1810   47.9670 C.3   116  ILE116      0.0001
     61  N         -2.9230   -0.4260   58.5850 N.3   127  MET127     -0.1245
     62  CA        -3.9780   -1.2260   58.0080 C.3   127  MET127      0.1570
     63  C         -3.9850   -2.5870   58.7050 C.2   127  MET127      0.2261
     64  O         -2.9390   -3.1790   58.8850 O.2   127  MET127     -0.2867
     65  CB        -3.7560   -1.3970   56.5050 C.3   127  MET127      0.0387
     66  CG        -4.9490   -2.0120   55.7870 C.3   127  MET127      0.0595
     67  SD        -4.7650   -2.1470   53.9990 S.3   127  MET127     -0.1393
     68  CE        -5.8750   -0.8730   53.4050 C.3   127  MET127      0.0692
     69  N          0.2070    0.3800   48.7290 N.3   149  TYR149     -0.1241
     70  CA        -0.1560   -0.9670   49.1520 C.3   149  TYR149      0.1605
     71  C         -1.0380   -1.5710   48.1010 C.2   149  TYR149      0.2264
     72  O         -1.7370   -0.8660   47.3750 O.2   149  TYR149     -0.2867
     73  CB        -0.8700   -0.9750   50.5250 C.3   149  TYR149      0.0534
     74  CG        -2.2610   -0.4210   50.4880 C.ar  149  TYR149     -0.0201
     75  CD1       -3.3500   -1.2250   50.1560 C.ar  149  TYR149     -0.0009
     76  CD2       -2.5030    0.9050   50.8280 C.ar  149  TYR149     -0.0009
     77  CE1       -4.6390   -0.7120   50.1380 C.ar  149  TYR149      0.0417
     78  CE2       -3.7810    1.4230   50.8360 C.ar  149  TYR149      0.0417
     79  CZ        -4.8450    0.6140   50.4890 C.ar  149  TYR149      0.1957
     80  OH        -6.1110    1.1270   50.4760 O.3   149  TYR149     -0.2866
     81  N        -10.3620   -5.6370   55.8840 N.3   161  HIS161     -0.1241
     82  CA        -9.3360   -4.6500   56.2510 C.3   161  HIS161      0.1621
     83  C         -9.9670   -3.3700   56.7690 C.2   161  HIS161      0.2264
     84  O        -11.1560   -3.1070   56.5730 O.2   161  HIS161     -0.2867
     85  CB        -8.3750   -4.3790   55.0590 C.3   161  HIS161      0.0745
     86  CG        -9.0910   -3.8880   53.8640 C.ar  161  HIS161      0.0817
     87  ND1       -9.4260   -4.7070   52.8150 N.ar  161  HIS161     -0.2268
     88  CD2       -9.6660   -2.6940   53.6120 C.ar  161  HIS161      0.1154
     89  CE1      -10.1440   -4.0310   51.9440 C.ar  161  HIS161      0.1986
     90  NE2      -10.2970   -2.7970   52.3970 N.ar  161  HIS161     -0.2212
     91  N         -8.6860    0.8330   58.5960 N.3   163  ILE163     -0.1245
     92  CA        -7.6680    1.7830   59.0900 C.3   163  ILE163      0.1561
     93  C         -7.9650    2.1030   60.5550 C.2   163  ILE163      0.2260
     94  O         -9.0770    2.5200   60.8870 O.2   163  ILE163     -0.2867
     95  CB        -7.6520    3.0950   58.2790 C.3   163  ILE163      0.0252
     96  CG1       -7.4890    2.8040   56.7740 C.3   163  ILE163      0.0019
     97  CG2       -6.5800    4.0520   58.8100 C.3   163  ILE163      0.0019
     98  CD1       -6.2590    2.0190   56.3920 C.3   163  ILE163      0.0001
     99  N         -5.5730   12.2590   56.8620 N.3   181  ARG181     -0.1245
    100  CA        -5.0270   11.2870   55.9110 C.3   181  ARG181      0.1563
    101  C         -5.8060   11.2640   54.6070 C.2   181  ARG181      0.2260
    102  O         -7.0110   11.1160   54.5840 O.2   181  ARG181     -0.2867
    103  CB        -4.9860    9.8570   56.5070 C.3   181  ARG181      0.0307
    104  CG        -4.2420    8.8590   55.6210 C.3   181  ARG181      0.0489
    105  CD        -4.5610    7.4100   55.9790 C.3   181  ARG181      0.2205
    106  NE        -4.1250    6.4740   54.9340 N.pl3 181  ARG181     -0.0865
    107  CZ        -4.9140    5.7300   54.1660 C.cat 181  ARG181      0.5346
    108  NH1       -6.2480    5.7860   54.2690 N.pl3 181  ARG181      0.1354
    109  NH2       -4.3590    4.9210   53.2590 N.pl3 181  ARG181      0.1354
    110  N         -6.1230    9.2390   50.9930 N.3   183  SER183     -0.1217
    111  CA        -5.7300    8.0320   50.2990 C.3   183  SER183      0.1889
    112  C         -6.3410    8.1000   48.9400 C.2   183  SER183      0.2288
    113  O         -7.3990    8.6550   48.7630 O.2   183  SER183     -0.2866
    114  CB        -6.1540    6.7750   51.0620 C.3   183  SER183      0.2089
    115  OG        -7.5010    6.8660   51.4510 O.3   183  SER183     -0.2183
    116  N         -7.2900    5.6500   45.8330 N.3   185  ILE185     -0.1245
    117  CA        -7.5130    4.2000   45.7630 C.3   185  ILE185      0.1561
    118  C         -7.9760    3.8170   44.3710 C.2   185  ILE185      0.2260
    119  O         -9.0420    4.2570   43.9290 O.2   185  ILE185     -0.2867
    120  CB        -8.5000    3.6760   46.8430 C.3   185  ILE185      0.0252
    121  CG1       -8.0290    4.0430   48.2580 C.3   185  ILE185      0.0019
    122  CG2       -8.5660    2.1500   46.7860 C.3   185  ILE185      0.0019
    123  CD1       -9.0150    3.6830   49.3510 C.3   185  ILE185      0.0001
    124  N         -9.0020    0.6210   41.9610 N.3   187  ARG187     -0.1245
    125  CA        -9.5580   -0.7240   42.0390 C.3   187  ARG187      0.1563
    126  C         -9.6760   -1.2750   40.6330 C.2   187  ARG187      0.2260
    127  O         -9.5540   -0.5270   39.6710 O.2   187  ARG187     -0.2867
    128  CB       -10.9320   -0.6690   42.7020 C.3   187  ARG187      0.0307
    129  CG       -10.8880   -0.1510   44.1450 C.3   187  ARG187      0.0489
    130  CD       -12.2660   -0.0680   44.7810 C.3   187  ARG187      0.2205
    131  NE       -12.1810    0.1720   46.2340 N.pl3 187  ARG187     -0.0865
    132  CZ       -11.9510    1.3540   46.8090 C.cat 187  ARG187      0.5346
    133  NH1      -11.7820    2.4430   46.0630 N.pl3 187  ARG187      0.1354
    134  NH2      -11.8770    1.4440   48.1430 N.pl3 187  ARG187      0.1354
@<TRIPOS>BOND
     1   127   126    2
     2   126   125    1
     3   124   125    1
     4   125   128    1
     5   128   129    1
     6     9    10    1
     7   119   118    2
     8   129   130    1
     9   118   117    1
    10    10    13    1
    11    10    11    1
    12   130   131    1
    13    53    54    1
    14    54    55    1
    15    54    57    1
    16    13    14    1
    17    55    56    2
    18    11    12    2
    19   117   116    1
    20   117   120    1
    21   133   132    1
    22   131   132    2
    23    58    57    1
    24    58    60    1
    25    14    16   ar
    26    14    15   ar
    27    57    59    1
    28   122   120    1
    29   132   134    1
    30   120   121    1
    31    16    18   ar
    32    72    71    2
    33    15    17   ar
    34    71    70    1
    35   121   123    1
    36    48    47    2
    37    18    17   ar
    38    52    50   ar
    39    49    50    1
    40    49    46    1
    41    47    46    1
    42    69    70    1
    43   113   112    2
    44   112   111    1
    45    70    73    1
    46    50    51   ar
    47    19    20    1
    48    46    45    1
    49    77    75   ar
    50    77    79   ar
    51    75    74   ar
    52   111   110    1
    53   111   114    1
    54    80    79    1
    55    74    73    1
    56    74    76   ar
    57    79    78   ar
    58    20    23    1
    59    20    21    1
    60    76    78   ar
    61   114   115    1
    62    23    24    1
    63    21    22    2
    64    89    90   ar
    65    89    87   ar
    66    90    88   ar
    67    24    25    1
    68    24    26    1
    69    87    86   ar
    70   109   107    1
    71     8     6    1
    72    68    67    1
    73    42    44   ar
    74    42    40   ar
    75    44    43   ar
    76    88    86   ar
    77    86    85    1
    78    67    66    1
    79   107   108    1
    80   107   106    2
    81   102   101    2
    82   101   100    1
    83    38    37    2
    84    37    36    1
    85    40    39    1
    86    40    41   ar
    87     6     5    1
    88    43    41   ar
    89   106   105    1
    90    85    82    1
    91    39    36    1
    92    34    32    1
    93   104   105    1
    94   104   103    1
    95     5     7    1
    96     5     2    1
    97    36    35    1
    98    66    65    1
    99    81    82    1
   100   100   103    1
   101   100    99    1
   102    82    83    1
   103    98    96    1
   104    65    62    1
   105    84    83    2
   106    33    31    1
   107    96    95    1
   108    32    31    1
   109     1     2    1
   110     2     3    1
   111    31    28    1
   112     4     3    2
   113    62    61    1
   114    62    63    1
   115    95    97    1
   116    95    92    1
   117    91    92    1
   118    63    64    2
   119    28    29    1
   120    28    27    1
   121    92    93    1
   122    29    30    2
   123    93    94    2
