@<TRIPOS>MOLECULE
tmp/4qknA01.pdb
 161 159 0 0 0
SMALL
GASTEIGER

@<TRIPOS>ATOM
      1  N        169.2460  -14.1590   18.8410 N.3    56  VAL56      -0.1245
      2  CA       168.4800  -12.9830   19.1490 C.3    56  VAL56       0.1561
      3  C        168.3750  -12.2400   17.8380 C.2    56  VAL56       0.2260
      4  O        169.0200  -12.6270   16.8640 O.2    56  VAL56      -0.2867
      5  CB       169.2320  -12.2280   20.2780 C.3    56  VAL56       0.0252
      6  CG1      169.4880  -10.7660   19.9630 C.3    56  VAL56       0.0019
      7  CG2      168.5490  -12.4270   21.6070 C.3    56  VAL56       0.0019
      8  N        168.4440   -8.2890   16.2100 N.3    58  ILE58      -0.1245
      9  CA       168.5430   -6.8630   16.4280 C.3    58  ILE58       0.1561
     10  C        168.7920   -6.1430   15.0980 C.2    58  ILE58       0.2260
     11  O        169.5720   -6.6170   14.2570 O.2    58  ILE58      -0.2867
     12  CB       169.5530   -6.5160   17.5530 C.3    58  ILE58       0.0252
     13  CG1      170.3670   -5.2740   17.2120 C.3    58  ILE58       0.0019
     14  CG2      170.4560   -7.6770   17.8530 C.3    58  ILE58       0.0019
     15  CD1      171.0340   -4.6730   18.4340 C.3    58  ILE58       0.0001
     16  N        171.9470  -12.5610   15.6740 N.3    63  LEU63      -0.1231
     17  CA       173.2030  -12.4980   16.4170 C.3    63  LEU63       0.1693
     18  C        173.1270  -13.3470   17.6640 C.2    63  LEU63       0.2592
     19  O        172.1010  -13.3620   18.3340 O.2    63  LEU63      -0.2718
     20  CB       173.4850  -11.0680   16.8670 C.3    63  LEU63       0.0284
     21  CG       173.5190   -9.9670   15.8170 C.3    63  LEU63       0.0019
     22  CD1      173.5370   -8.6050   16.4970 C.3    63  LEU63       0.0001
     23  CD2      174.7340  -10.1440   14.9580 C.3    63  LEU63       0.0001
     24  N        174.2170  -14.0370   17.9850 N.am   64  LEU64      -0.1966
     25  CA       174.2920  -14.8070   19.2080 C.3    64  LEU64       0.1728
     26  C        174.7770  -13.8870   20.2990 C.2    64  LEU64       0.2617
     27  O        175.5860  -13.0010   20.0400 O.2    64  LEU64      -0.2715
     28  CB       175.2920  -15.9400   19.0560 C.3    64  LEU64       0.0311
     29  CG       174.8730  -17.1650   18.2530 C.3    64  LEU64       0.0022
     30  CD1      176.0410  -18.1290   18.1690 C.3    64  LEU64       0.0001
     31  CD2      173.6890  -17.8310   18.9140 C.3    64  LEU64       0.0001
     32  N        174.2890  -14.0740   21.5200 N.am   65  THR65      -0.1937
     33  CA       174.7820  -13.2630   22.6250 C.3    65  THR65       0.2013
     34  C        176.1630  -13.7620   23.0620 C.2    65  THR65       0.2484
     35  O        176.3640  -14.9630   23.2290 O.2    65  THR65      -0.2729
     36  CB       173.8120  -13.2600   23.8310 C.3    65  THR65       0.1807
     37  OG1      173.5960  -14.6020   24.2990 O.3    65  THR65      -0.2208
     38  CG2      172.4810  -12.6370   23.4420 C.3    65  THR65       0.0379
     39  N        177.1140  -12.8380   23.2460 N.am   66  PRO66      -0.2715
     40  CA       178.4280  -13.2280   23.7640 C.3    66  PRO66       0.1536
     41  C        178.2360  -13.9690   25.0740 C.2    66  PRO66       0.2598
     42  O        178.8850  -14.9730   25.3860 O.2    66  PRO66      -0.2715
     43  CB       179.1050  -11.8830   24.0410 C.3    66  PRO66       0.0310
     44  CG       178.4120  -10.9090   23.1630 C.3    66  PRO66       0.0237
     45  CD       176.9900  -11.3770   23.0940 C.3    66  PRO66       0.0939
     46  N        177.2870  -13.4600   25.8300 N.am   67  VAL67      -0.1978
     47  CA       177.0100  -13.9450   27.1590 C.3    67  VAL67       0.1596
     48  C        176.0770  -15.1640   27.0560 C.2    67  VAL67       0.2287
     49  O        175.2560  -15.2470   26.1370 O.2    67  VAL67      -0.2864
     50  CB       176.4010  -12.7740   27.9770 C.3    67  VAL67       0.0276
     51  CG1      174.8790  -12.9110   28.1350 C.3    67  VAL67       0.0022
     52  CG2      177.1100  -12.6160   29.2970 C.3    67  VAL67       0.0022
     53  N        173.1840  -17.5150   29.0790 N.3    69  ARG69      -0.1245
     54  CA       172.1690  -17.1550   30.0610 C.3    69  ARG69       0.1563
     55  C        171.1520  -18.2450   30.3430 C.2    69  ARG69       0.2260
     56  O        171.0480  -19.2250   29.6140 O.2    69  ARG69      -0.2867
     57  CB       171.4170  -15.8690   29.6450 C.3    69  ARG69       0.0307
     58  CG       171.8230  -15.2840   28.2970 C.3    69  ARG69       0.0489
     59  CD       171.1350  -13.9430   27.9950 C.3    69  ARG69       0.2205
     60  NE       171.5290  -12.8910   28.9330 N.pl3  69  ARG69      -0.0865
     61  CZ       171.4430  -11.5910   28.6760 C.cat  69  ARG69       0.5346
     62  NH1      170.9810  -11.1740   27.5040 N.pl3  69  ARG69       0.1354
     63  NH2      171.8180  -10.7090   29.5920 N.pl3  69  ARG69       0.1354
     64  N        163.0900  -10.1500   25.5130 N.3    81  TYR81      -0.1227
     65  CA       163.9650   -9.1050   24.9800 C.3    81  TYR81       0.1736
     66  C        164.4790   -9.4610   23.5770 C.2    81  TYR81       0.2595
     67  O        164.6080  -10.6510   23.2500 O.2    81  TYR81      -0.2718
     68  CB       165.1490   -8.8740   25.9150 C.3    81  TYR81       0.0548
     69  CG       166.2170   -9.9550   25.8640 C.ar   81  TYR81      -0.0200
     70  CD1      165.9360  -11.2580   26.2540 C.ar   81  TYR81      -0.0009
     71  CD2      167.5090   -9.6660   25.4370 C.ar   81  TYR81      -0.0009
     72  CE1      166.9080  -12.2420   26.2180 C.ar   81  TYR81       0.0417
     73  CE2      168.4930  -10.6470   25.3960 C.ar   81  TYR81       0.0417
     74  CZ       168.1840  -11.9320   25.7930 C.ar   81  TYR81       0.1957
     75  OH       169.1450  -12.9180   25.7650 O.3    81  TYR81      -0.2866
     76  N        164.7850   -8.4360   22.7750 N.am   82  LEU82      -0.1980
     77  CA       165.3130   -8.6070   21.4090 C.3    82  LEU82       0.1596
     78  C        164.5590   -9.7140   20.6520 C.2    82  LEU82       0.2287
     79  O        165.1560  -10.6800   20.1620 O.2    82  LEU82      -0.2864
     80  CB       166.8430   -8.8480   21.4270 C.3    82  LEU82       0.0297
     81  CG       167.7100   -7.8670   22.2540 C.3    82  LEU82       0.0022
     82  CD1      169.1930   -8.2470   22.3440 C.3    82  LEU82       0.0001
     83  CD2      167.5940   -6.4250   21.7800 C.3    82  LEU82       0.0001
     84  N        183.5520   -6.4950   21.6940 N.3   160  LYS160     -0.1245
     85  CA       183.6280   -5.1740   21.0910 C.3   160  LYS160      0.1561
     86  C        184.2930   -4.2090   22.0650 C.2   160  LYS160      0.2260
     87  O        184.2890   -4.4270   23.2750 O.2   160  LYS160     -0.2867
     88  CB       182.2120   -4.7030   20.7240 C.3   160  LYS160      0.0271
     89  CG       182.1200   -3.3940   19.9470 C.3   160  LYS160      0.0035
     90  CD       180.6580   -2.9940   19.7210 C.3   160  LYS160      0.0206
     91  CE       180.5280   -1.6320   19.0300 C.3   160  LYS160      0.1093
     92  NZ       180.9490   -1.6580   17.5920 N.3   160  LYS160     -0.1314
     93  N        183.4510   -4.9960   26.1120 N.3   170  MET170     -0.1230
     94  CA       182.1040   -5.1340   26.6380 C.3   170  MET170      0.1702
     95  C        181.5970   -6.5650   26.5500 C.2   170  MET170      0.2592
     96  O        181.4620   -7.1160   25.4570 O.2   170  MET170     -0.2718
     97  CB       181.1390   -4.2010   25.8820 C.3   170  MET170      0.0401
     98  CG       181.5260   -2.7270   25.8840 C.3   170  MET170      0.0596
     99  SD       180.2850   -1.6900   25.0530 S.3   170  MET170     -0.1393
    100  CE       180.2800   -2.4170   23.3960 C.3   170  MET170      0.0692
    101  N        181.3200   -7.1770   27.6910 N.am  171  ALA171     -0.1966
    102  CA       180.5720   -8.4260   27.6950 C.3   171  ALA171      0.1728
    103  C        179.1730   -8.1760   27.1310 C.2   171  ALA171      0.2616
    104  O        178.6290   -9.0080   26.4070 O.2   171  ALA171     -0.2715
    105  CB       180.4690   -8.9760   29.1080 C.3   171  ALA171      0.0334
    106  N        178.5880   -7.0340   27.5040 N.am  172  VAL172     -0.1963
    107  CA       177.2700   -6.6140   27.0270 C.3   172  VAL172      0.1727
    108  C        177.3330   -5.1410   26.6020 C.2   172  VAL172      0.2617
    109  O        177.8790   -4.2960   27.3190 O.2   172  VAL172     -0.2715
    110  CB       176.1840   -6.8130   28.0990 C.3   172  VAL172      0.0290
    111  CG1      174.7820   -6.5200   27.5210 C.3   172  VAL172      0.0023
    112  CG2      176.2490   -8.2290   28.6710 C.3   172  VAL172      0.0023
    113  N        176.7980   -4.8370   25.4250 N.am  173  SER173     -0.1936
    114  CA       176.8570   -3.4830   24.8910 C.3   173  SER173      0.2055
    115  C        175.8230   -2.5610   25.5590 C.2   173  SER173      0.2643
    116  O        174.8600   -3.0420   26.1410 O.2   173  SER173     -0.2714
    117  CB       176.5970   -3.5450   23.3810 C.3   173  SER173      0.2130
    118  OG       177.2020   -2.4530   22.7110 O.3   173  SER173     -0.2179
    119  N        176.0260   -1.2490   25.4590 N.am  174  TRP174     -0.1959
    120  CA       175.0600   -0.2450   25.9180 C.3   174  TRP174      0.1771
    121  C        173.6040   -0.5680   25.5700 C.2   174  TRP174      0.2620
    122  O        173.2960   -0.8620   24.4140 O.2   174  TRP174     -0.2715
    123  CB       175.3670    1.1020   25.2920 C.3   174  TRP174      0.0590
    124  CG       176.6000    1.7280   25.7870 C.ar  174  TRP174      0.0006
    125  CD1      177.7320    2.0280   25.0570 C.ar  174  TRP174      0.0946
    126  CD2      176.8590    2.1650   27.1340 C.ar  174  TRP174      0.0152
    127  NE1      178.6700    2.6340   25.8740 N.ar  174  TRP174     -0.2442
    128  CE2      178.1680    2.7220   27.1480 C.ar  174  TRP174      0.0810
    129  CE3      176.1170    2.1380   28.3230 C.ar  174  TRP174      0.0012
    130  CZ2      178.7420    3.2430   28.3130 C.ar  174  TRP174      0.0191
    131  CZ3      176.6880    2.6530   29.4840 C.ar  174  TRP174      0.0001
    132  CH2      177.9900    3.2040   29.4690 C.ar  174  TRP174      0.0015
    133  N        172.7170   -0.4880   26.5640 N.am  175  HIS175     -0.1959
    134  CA       171.3130   -0.8280   26.3680 C.3   175  HIS175      0.1787
    135  C        170.4330   -0.3600   27.5150 C.2   175  HIS175      0.2620
    136  O        170.9240    0.0360   28.5710 O.2   175  HIS175     -0.2715
    137  CB       171.1540   -2.3460   26.1660 C.3   175  HIS175      0.0785
    138  CG       171.3580   -3.1640   27.4070 C.ar  175  HIS175      0.0821
    139  ND1      172.6010   -3.3930   27.9670 N.ar  175  HIS175     -0.2267
    140  CD2      170.4670   -3.8100   28.1980 C.ar  175  HIS175      0.1154
    141  CE1      172.4610   -4.1330   29.0530 C.ar  175  HIS175      0.1986
    142  NE2      171.1770   -4.4010   29.2140 N.ar  175  HIS175     -0.2212
    143  N        169.1230   -0.4040   27.2860 N.am  176  HIS176     -0.1973
    144  CA       168.1290   -0.3780   28.3560 C.3   176  HIS176      0.1656
    145  C        167.5990   -1.7850   28.4690 C.2   176  HIS176      0.2291
    146  O        167.4500   -2.4710   27.4510 O.2   176  HIS176     -0.2864
    147  CB       166.9440    0.5020   27.9920 C.3   176  HIS176      0.0771
    148  CG       167.2910    1.9350   27.7490 C.ar  176  HIS176      0.0820
    149  ND1      167.4600    2.8500   28.7700 N.ar  176  HIS176     -0.2267
    150  CD2      167.4600    2.6210   26.5910 C.ar  176  HIS176      0.1154
    151  CE1      167.7420    4.0330   28.2460 C.ar  176  HIS176      0.1986
    152  NE2      167.7540    3.9190   26.9290 N.ar  176  HIS176     -0.2212
    153  N        164.6880   -4.1690   28.4760 N.3   178  GLU178     -0.1245
    154  CA       163.3380   -4.1400   27.9010 C.3   178  GLU178      0.1567
    155  C        162.2910   -4.8440   28.7720 C.2   178  GLU178      0.2260
    156  O        162.6430   -5.5560   29.7290 O.2   178  GLU178     -0.2867
    157  CB       163.3300   -4.8280   26.5310 C.3   178  GLU178      0.0388
    158  CG       164.2020   -4.1650   25.4620 C.3   178  GLU178      0.1160
    159  CD       164.2570   -4.9860   24.1600 C.2   178  GLU178      0.3649
    160  OE1      165.2390   -4.8540   23.3940 O.co2 178  GLU178     -0.2457
    161  OE2      163.3200   -5.7650   23.9010 O.co2 178  GLU178     -0.2457
@<TRIPOS>BOND
     1    11    10    2
     2    23    21    1
     3    10     9    1
     4    16    17    1
     5    21    22    1
     6    21    20    1
     7     8     9    1
     8    17    20    1
     9    17    18    1
    10     9    12    1
    11     4     3    2
    12    13    12    1
    13    13    15    1
    14    12    14    1
    15    92    91    1
    16    18    24   am
    17    18    19    2
    18     3     2    1
    19    24    25    1
    20    30    29    1
    21    29    31    1
    22    29    28    1
    23     1     2    1
    24    91    90    1
    25    28    25    1
    26     2     5    1
    27    25    26    1
    28    90    89    1
    29    89    88    1
    30     6     5    1
    31    27    26    2
    32    79    78    2
    33     5     7    1
    34    26    32   am
    35    78    77    1
    36    88    85    1
    37    85    84    1
    38    85    86    1
    39    77    80    1
    40    77    76    1
    41    80    81    1
    42    32    33    1
    43    83    81    1
    44    86    87    2
    45    81    82    1
    46    33    34    1
    47    33    36    1
    48   118   117    1
    49    76    66   am
    50    34    35    2
    51    34    39   am
    52    45    44    1
    53    45    39    1
    54    44    43    1
    55    39    40    1
    56    67    66    2
    57   117   114    1
    58   160   159   ar
    59   100    99    1
    60    38    36    1
    61    66    65    1
    62    40    43    1
    63    40    41    1
    64    36    37    1
    65   161   159   ar
    66   159   158    1
    67   122   121    2
    68   114   113    1
    69   114   115    1
    70    65    64    1
    71    65    68    1
    72    99    98    1
    73   125   124   ar
    74   125   127   ar
    75    41    42    2
    76    41    46   am
    77   123   124    1
    78   123   120    1
    79    73    71   ar
    80    73    74   ar
    81   113   108   am
    82    71    69   ar
    83    96    95    2
    84   119   115   am
    85   119   120    1
    86   158   157    1
    87   115   116    2
    88   121   120    1
    89   121   133   am
    90    75    74    1
    91   124   126   ar
    92    74    72   ar
    93    46    47    1
    94    69    68    1
    95    69    70   ar
    96   127   128   ar
    97    97    98    1
    98    97    94    1
    99    93    94    1
   100    49    48    2
   101   137   134    1
   102   137   138    1
   103    72    70   ar
   104   134   133    1
   105   134   135    1
   106   104   103    2
   107   157   154    1
   108    95    94    1
   109    95   101   am
   110   150   152   ar
   111   150   148   ar
   112   108   107    1
   113   108   109    2
   114   152   151   ar
   115   107   106    1
   116   107   110    1
   117    48    47    1
   118   103   106   am
   119   103   102    1
   120   126   128   ar
   121   126   129   ar
   122   128   130   ar
   123    47    50    1
   124   143   135   am
   125   143   144    1
   126   138   139   ar
   127   138   140   ar
   128   146   145    2
   129    62    61    1
   130   135   136    2
   131   111   110    1
   132   101   102    1
   133   102   105    1
   134   148   147    1
   135   148   149   ar
   136   154   153    1
   137   154   155    1
   138   139   141   ar
   139    50    51    1
   140    50    52    1
   141   147   144    1
   142    59    58    1
   143    59    60    1
   144   110   112    1
   145   140   142   ar
   146   151   149   ar
   147    58    57    1
   148   130   132   ar
   149   129   131   ar
   150   144   145    1
   151    61    60    2
   152    61    63    1
   153   155   156    2
   154   141   142   ar
   155    53    54    1
   156   132   131   ar
   157    56    55    2
   158    57    54    1
   159    54    55    1
