@<TRIPOS>MOLECULE
tmp/4qkxA00.pdb
 243 241 0 0 0
SMALL
GASTEIGER

@<TRIPOS>ATOM
      1  N         13.6430  -24.1620  -50.3650 N.3   233  GLY233     -0.1225
      2  CA        13.0440  -22.9850  -50.9640 C.3   233  GLY233      0.1811
      3  C         14.0980  -22.0300  -51.4830 C.2   233  GLY233      0.2280
      4  O         14.0080  -21.5390  -52.6080 O.2   233  GLY233     -0.2866
      5  N         16.3330  -23.1250  -54.6620 N.3   236  CYS236     -0.1221
      6  CA        15.7760  -22.9950  -56.0020 C.3   236  CYS236      0.1808
      7  C         15.8390  -21.5490  -56.4820 C.2   236  CYS236      0.2601
      8  O         16.2320  -21.2860  -57.6190 O.2   236  CYS236     -0.2717
      9  CB        14.3290  -23.4990  -56.0520 C.3   236  CYS236      0.0970
     10  SG        13.1030  -22.2080  -55.6900 S.3   236  CYS236     -0.0800
     11  N         15.4600  -20.6220  -55.6050 N.am  237  ILE237     -0.1979
     12  CA        15.4640  -19.1910  -55.9080 C.3   237  ILE237      0.1595
     13  C         16.8280  -18.7100  -56.3990 C.2   237  ILE237      0.2287
     14  O         16.9200  -17.9280  -57.3470 O.2   237  ILE237     -0.2864
     15  CB        15.0420  -18.3610  -54.6740 C.3   237  ILE237      0.0276
     16  CG1       13.6370  -18.7580  -54.2200 C.3   237  ILE237      0.0022
     17  CG2       15.1010  -16.8680  -54.9740 C.3   237  ILE237      0.0022
     18  CD1       13.1690  -18.0230  -52.9890 C.3   237  ILE237      0.0001
     19  N         17.5050  -20.4830  -59.7300 N.3   240  LYS240     -0.1231
     20  CA        16.4700  -20.1490  -60.7140 C.3   240  LYS240      0.1693
     21  C         15.5980  -21.3330  -61.1500 C.2   240  LYS240      0.2593
     22  O         14.6110  -21.1470  -61.8610 O.2   240  LYS240     -0.2718
     23  CB        17.0770  -19.4610  -61.9450 C.3   240  LYS240      0.0285
     24  CG        18.0810  -18.3590  -61.6310 C.3   240  LYS240      0.0035
     25  CD        17.4340  -17.1760  -60.9320 C.3   240  LYS240      0.0206
     26  CE        18.4510  -16.0700  -60.6870 C.3   240  LYS240      0.1093
     27  NZ        17.8380  -14.8680  -60.0580 N.3   240  LYS240     -0.1314
     28  N         15.9560  -22.5430  -60.7280 N.am  241  THR241     -0.1939
     29  CA        15.2100  -23.7410  -61.1050 C.3   241  THR241      0.2028
     30  C         15.0780  -24.7280  -59.9470 C.2   241  THR241      0.2642
     31  O         15.7190  -24.5710  -58.9080 O.2   241  THR241     -0.2714
     32  CB        15.8580  -24.4660  -62.3080 C.3   241  THR241      0.1808
     33  OG1       17.2770  -24.5260  -62.1250 O.3   241  THR241     -0.2208
     34  CG2       15.5560  -23.7360  -63.6070 C.3   241  THR241      0.0379
     35  N         14.2410  -25.7430  -60.1380 N.am  242  TRP242     -0.1973
     36  CA        14.0370  -26.7880  -59.1390 C.3   242  TRP242      0.1640
     37  C         14.6090  -28.1110  -59.6410 C.2   242  TRP242      0.2290
     38  O         14.1240  -28.6710  -60.6240 O.2   242  TRP242     -0.2864
     39  CB        12.5480  -26.9380  -58.8260 C.3   242  TRP242      0.0576
     40  CG        12.2280  -28.0990  -57.9380 C.ar  242  TRP242      0.0006
     41  CD1       11.8940  -29.3630  -58.3300 C.ar  242  TRP242      0.0946
     42  CD2       12.2040  -28.1040  -56.5060 C.ar  242  TRP242      0.0152
     43  NE1       11.6670  -30.1560  -57.2310 N.ar  242  TRP242     -0.2442
     44  CE2       11.8510  -29.4070  -56.0990 C.ar  242  TRP242      0.0810
     45  CE3       12.4490  -27.1350  -55.5280 C.ar  242  TRP242      0.0012
     46  CZ2       11.7370  -29.7640  -54.7560 C.ar  242  TRP242      0.0191
     47  CZ3       12.3360  -27.4920  -54.1970 C.ar  242  TRP242      0.0001
     48  CH2       11.9830  -28.7950  -53.8230 C.ar  242  TRP242      0.0015
     49  N          7.7020  -31.5450  -50.8560 N.3   252  TRP252     -0.1227
     50  CA         8.2680  -30.3720  -50.2030 C.3   252  TRP252      0.1737
     51  C          7.1910  -29.3110  -50.0130 C.2   252  TRP252      0.2596
     52  O          7.1980  -28.5720  -49.0290 O.2   252  TRP252     -0.2718
     53  CB         9.4380  -29.8180  -51.0220 C.3   252  TRP252      0.0564
     54  CG         9.8280  -28.4200  -50.6640 C.ar  252  TRP252      0.0003
     55  CD1       10.5530  -28.0230  -49.5790 C.ar  252  TRP252      0.0946
     56  CD2        9.5230  -27.2310  -51.4010 C.ar  252  TRP252      0.0152
     57  NE1       10.7130  -26.6580  -49.5910 N.ar  252  TRP252     -0.2442
     58  CE2       10.0900  -26.1490  -50.7000 C.ar  252  TRP252      0.0810
     59  CE3        8.8230  -26.9760  -52.5840 C.ar  252  TRP252      0.0012
     60  CZ2        9.9790  -24.8330  -51.1430 C.ar  252  TRP252      0.0191
     61  CZ3        8.7140  -25.6700  -53.0220 C.ar  252  TRP252      0.0001
     62  CH2        9.2890  -24.6140  -52.3030 C.ar  252  TRP252      0.0015
     63  N          6.2600  -29.2500  -50.9600 N.am  253  THR253     -0.1953
     64  CA         5.1220  -28.3470  -50.8600 C.3   253  THR253      0.1897
     65  C          4.1890  -28.8170  -49.7520 C.2   253  THR253      0.2313
     66  O          3.6320  -28.0080  -49.0110 O.2   253  THR253     -0.2863
     67  CB         4.3360  -28.2900  -52.1790 C.3   253  THR253      0.1794
     68  OG1        5.2260  -27.9570  -53.2510 O.3   253  THR253     -0.2208
     69  CG2        3.2270  -27.2500  -52.0980 C.3   253  THR253      0.0378
     70  N          5.6110  -27.8980  -46.4700 N.3   256  ASP256     -0.1225
     71  CA         5.4220  -26.4610  -46.3170 C.3   256  ASP256      0.1805
     72  C          4.0650  -26.1480  -45.7020 C.2   256  ASP256      0.2597
     73  O          3.9840  -25.5930  -44.6060 O.2   256  ASP256     -0.2718
     74  CB         5.5430  -25.7730  -47.6760 C.3   256  ASP256      0.1424
     75  CG         5.6680  -24.2620  -47.5640 C.2   256  ASP256      0.3668
     76  OD1        5.2540  -23.6960  -46.5300 O.co2 256  ASP256     -0.2456
     77  OD2        6.1730  -23.6340  -48.5200 O.co2 256  ASP256     -0.2456
     78  N          3.0050  -26.5130  -46.4160 N.am  257  VAL257     -0.1980
     79  CA         1.6470  -26.2280  -45.9720 C.3   257  VAL257      0.1595
     80  C          1.3660  -26.8690  -44.6160 C.2   257  VAL257      0.2287
     81  O          0.6560  -26.3010  -43.7870 O.2   257  VAL257     -0.2864
     82  CB         0.6020  -26.6990  -47.0040 C.3   257  VAL257      0.0276
     83  CG1       -0.7950  -26.3040  -46.5620 C.3   257  VAL257      0.0022
     84  CG2        0.9050  -26.1110  -48.3710 C.3   257  VAL257      0.0022
     85  N          3.5880  -24.8660  -41.7520 N.3   260  VAL260     -0.1245
     86  CA         3.1300  -23.4870  -41.6190 C.3   260  VAL260      0.1561
     87  C          1.7720  -23.4300  -40.9270 C.2   260  VAL260      0.2260
     88  O          1.5440  -22.5900  -40.0550 O.2   260  VAL260     -0.2867
     89  CB         3.0670  -22.7680  -42.9860 C.3   260  VAL260      0.0252
     90  CG1        2.3500  -21.4310  -42.8610 C.3   260  VAL260      0.0019
     91  CG2        4.4670  -22.5700  -43.5440 C.3   260  VAL260      0.0019
     92  N          8.6220  -25.9800  -60.1670 N.3   334  CYS334     -0.1221
     93  CA         7.9150  -26.3020  -58.9340 C.3   334  CYS334      0.1808
     94  C          7.2300  -25.0550  -58.3870 C.2   334  CYS334      0.2601
     95  O          7.4590  -24.6560  -57.2490 O.2   334  CYS334     -0.2717
     96  CB         8.8730  -26.8860  -57.8910 C.3   334  CYS334      0.0970
     97  SG         8.0450  -27.5380  -56.4200 S.3   334  CYS334     -0.0800
     98  N          6.3880  -24.4400  -59.2090 N.am  335  ASP335     -0.1959
     99  CA         5.6440  -23.2660  -58.7840 C.3   335  ASP335      0.1840
    100  C          4.3600  -23.6680  -58.0690 C.2   335  ASP335      0.2622
    101  O          3.8070  -24.7410  -58.3130 O.2   335  ASP335     -0.2715
    102  CB         5.3380  -22.3540  -59.9710 C.3   335  ASP335      0.1450
    103  CG         6.5900  -21.7440  -60.5780 C.2   335  ASP335      0.3671
    104  OD1        7.6120  -21.6490  -59.8640 O.co2 335  ASP335     -0.2456
    105  OD2        6.5480  -21.3520  -61.7660 O.co2 335  ASP335     -0.2456
    106  N          3.8900  -22.7940  -57.1870 N.am  336  PHE336     -0.1974
    107  CA         2.7220  -23.0890  -56.3730 C.3   336  PHE336      0.1639
    108  C          1.4400  -22.6050  -57.0400 C.2   336  PHE336      0.2290
    109  O          0.9640  -21.5050  -56.7650 O.2   336  PHE336     -0.2864
    110  CB         2.8760  -22.4550  -54.9910 C.3   336  PHE336      0.0560
    111  CG         1.8310  -22.8830  -54.0070 C.ar  336  PHE336     -0.0200
    112  CD1        1.8090  -24.1800  -53.5220 C.ar  336  PHE336     -0.0042
    113  CD2        0.8760  -21.9870  -53.5570 C.ar  336  PHE336     -0.0042
    114  CE1        0.8490  -24.5790  -52.6140 C.ar  336  PHE336     -0.0003
    115  CE2       -0.0860  -22.3790  -52.6480 C.ar  336  PHE336     -0.0003
    116  CZ        -0.1000  -23.6780  -52.1750 C.ar  336  PHE336     -0.0000
    117  N         -8.8980  -24.1800  -53.0650 N.3   342  TYR342     -0.1227
    118  CA        -7.8250  -24.5050  -52.1290 C.3   342  TYR342      0.1736
    119  C         -7.1440  -23.2590  -51.5700 C.2   342  TYR342      0.2595
    120  O         -6.7360  -23.2400  -50.4100 O.2   342  TYR342     -0.2718
    121  CB        -6.7850  -25.4190  -52.7820 C.3   342  TYR342      0.0548
    122  CG        -5.7410  -25.9320  -51.8120 C.ar  342  TYR342     -0.0200
    123  CD1       -5.9690  -27.0780  -51.0610 C.ar  342  TYR342     -0.0009
    124  CD2       -4.5320  -25.2680  -51.6430 C.ar  342  TYR342     -0.0009
    125  CE1       -5.0230  -27.5490  -50.1720 C.ar  342  TYR342      0.0417
    126  CE2       -3.5810  -25.7320  -50.7540 C.ar  342  TYR342      0.0417
    127  CZ        -3.8320  -26.8730  -50.0230 C.ar  342  TYR342      0.1957
    128  OH        -2.8900  -27.3430  -49.1380 O.3   342  TYR342     -0.2866
    129  N         -7.0200  -22.2270  -52.3970 N.am  343  ALA343     -0.1980
    130  CA        -6.3540  -20.9970  -51.9840 C.3   343  ALA343      0.1597
    131  C         -7.0890  -20.3270  -50.8310 C.2   343  ALA343      0.2287
    132  O         -6.4680  -19.8230  -49.8970 O.2   343  ALA343     -0.2864
    133  CB        -6.2270  -20.0440  -53.1550 C.3   343  ALA343      0.0319
    134  N         -7.3980  -23.0830  -47.6310 N.3   346  SER346     -0.1217
    135  CA        -6.1670  -23.1980  -46.8600 C.3   346  SER346      0.1889
    136  C         -5.9230  -21.9360  -46.0440 C.2   346  SER346      0.2288
    137  O         -5.6090  -22.0120  -44.8600 O.2   346  SER346     -0.2866
    138  CB        -4.9670  -23.4810  -47.7700 C.3   346  SER346      0.2089
    139  OG        -4.6020  -22.3350  -48.5210 O.3   346  SER346     -0.2183
    140  N         -5.2670  -22.1030  -42.3170 N.3   350  SER350     -0.1217
    141  CA        -3.8630  -21.8860  -41.9890 C.3   350  SER350      0.1889
    142  C         -3.6380  -20.5680  -41.2570 C.2   350  SER350      0.2288
    143  O         -2.8190  -20.4980  -40.3440 O.2   350  SER350     -0.2866
    144  CB        -2.9890  -21.9220  -43.2490 C.3   350  SER350      0.2089
    145  OG        -3.0890  -23.1640  -43.9250 O.3   350  SER350     -0.2183
    146  N          3.1060  -12.6800  -41.4990 N.3   398  TRP398     -0.1241
    147  CA         2.2480  -13.5430  -42.3080 C.3   398  TRP398      0.1605
    148  C          1.1170  -12.8210  -43.0420 C.2   398  TRP398      0.2264
    149  O          0.7510  -13.2110  -44.1510 O.2   398  TRP398     -0.2867
    150  CB         1.6700  -14.6820  -41.4640 C.3   398  TRP398      0.0550
    151  CG         2.5920  -15.8510  -41.3020 C.ar  398  TRP398      0.0003
    152  CD1        3.0630  -16.3640  -40.1310 C.ar  398  TRP398      0.0946
    153  CD2        3.1520  -16.6560  -42.3470 C.ar  398  TRP398      0.0152
    154  NE1        3.8800  -17.4410  -40.3790 N.ar  398  TRP398     -0.2442
    155  CE2        3.9520  -17.6390  -41.7330 C.ar  398  TRP398      0.0810
    156  CE3        3.0570  -16.6400  -43.7420 C.ar  398  TRP398      0.0012
    157  CZ2        4.6490  -18.5970  -42.4640 C.ar  398  TRP398      0.0191
    158  CZ3        3.7500  -17.5920  -44.4650 C.ar  398  TRP398      0.0001
    159  CH2        4.5370  -18.5560  -43.8250 C.ar  398  TRP398      0.0015
    160  N          1.4230  -11.8310  -46.7540 N.3   401  PHE401     -0.1227
    161  CA         1.3980  -12.9580  -47.6780 C.3   401  PHE401      0.1736
    162  C         -0.0100  -13.4790  -47.9520 C.2   401  PHE401      0.2595
    163  O         -0.4290  -13.5720  -49.1050 O.2   401  PHE401     -0.2718
    164  CB         2.2790  -14.1010  -47.1780 C.3   401  PHE401      0.0547
    165  CG         2.0920  -15.3770  -47.9440 C.ar  401  PHE401     -0.0202
    166  CD1        2.5650  -15.4940  -49.2380 C.ar  401  PHE401     -0.0042
    167  CD2        1.4320  -16.4540  -47.3750 C.ar  401  PHE401     -0.0042
    168  CE1        2.3890  -16.6620  -49.9510 C.ar  401  PHE401     -0.0003
    169  CE2        1.2540  -17.6270  -48.0820 C.ar  401  PHE401     -0.0003
    170  CZ         1.7330  -17.7320  -49.3720 C.ar  401  PHE401     -0.0000
    171  N         -0.7330  -13.8270  -46.8920 N.am  402  PHE402     -0.1976
    172  CA        -2.0460  -14.4480  -47.0380 C.3   402  PHE402      0.1639
    173  C         -3.1000  -13.5150  -47.6300 C.2   402  PHE402      0.2290
    174  O         -4.0830  -13.9730  -48.2110 O.2   402  PHE402     -0.2864
    175  CB        -2.5240  -15.0320  -45.7080 C.3   402  PHE402      0.0560
    176  CG        -1.8190  -16.2970  -45.3200 C.ar  402  PHE402     -0.0200
    177  CD1       -2.1480  -17.4990  -45.9240 C.ar  402  PHE402     -0.0042
    178  CD2       -0.8260  -16.2860  -44.3570 C.ar  402  PHE402     -0.0042
    179  CE1       -1.5020  -18.6670  -45.5730 C.ar  402  PHE402     -0.0003
    180  CE2       -0.1790  -17.4510  -43.9990 C.ar  402  PHE402     -0.0003
    181  CZ        -0.5150  -18.6430  -44.6090 C.ar  402  PHE402     -0.0000
    182  N         -1.9980  -13.7480  -51.1960 N.3   405  ASN405     -0.1240
    183  CA        -2.3670  -15.0990  -51.6100 C.3   405  ASN405      0.1653
    184  C         -3.8460  -15.2040  -51.9810 C.2   405  ASN405      0.2266
    185  O         -4.2250  -15.9940  -52.8460 O.2   405  ASN405     -0.2867
    186  CB        -2.0240  -16.1080  -50.5100 C.3   405  ASN405      0.1155
    187  CG        -2.2560  -17.5460  -50.9390 C.2   405  ASN405      0.2627
    188  OD1       -2.2210  -17.8660  -52.1270 O.2   405  ASN405     -0.2716
    189  ND2       -2.4930  -18.4230  -49.9690 N.am  405  ASN405     -0.0877
    190  N          5.2450  -12.1730  -54.5380 N.3   420  TYR420     -0.1227
    191  CA         4.5850  -13.3430  -53.9680 C.3   420  TYR420      0.1736
    192  C          5.5570  -14.2110  -53.1740 C.2   420  TYR420      0.2595
    193  O          5.2400  -14.6690  -52.0760 O.2   420  TYR420     -0.2718
    194  CB         3.9110  -14.1700  -55.0650 C.3   420  TYR420      0.0548
    195  CG         3.0870  -15.3290  -54.5480 C.ar  420  TYR420     -0.0200
    196  CD1        1.7660  -15.1490  -54.1580 C.ar  420  TYR420     -0.0009
    197  CD2        3.6280  -16.6060  -54.4550 C.ar  420  TYR420     -0.0009
    198  CE1        1.0100  -16.2060  -53.6860 C.ar  420  TYR420      0.0417
    199  CE2        2.8800  -17.6680  -53.9850 C.ar  420  TYR420      0.0417
    200  CZ         1.5720  -17.4620  -53.6020 C.ar  420  TYR420      0.1957
    201  OH         0.8270  -18.5200  -53.1340 O.3   420  TYR420     -0.2866
    202  N          6.7410  -14.4320  -53.7320 N.am  421  ILE421     -0.1980
    203  CA         7.7440  -15.2620  -53.0770 C.3   421  ILE421      0.1595
    204  C          8.4040  -14.5180  -51.9180 C.2   421  ILE421      0.2287
    205  O          8.7080  -15.1110  -50.8810 O.2   421  ILE421     -0.2864
    206  CB         8.8130  -15.7370  -54.0770 C.3   421  ILE421      0.0276
    207  CG1        8.1430  -16.3640  -55.3010 C.3   421  ILE421      0.0022
    208  CG2        9.7580  -16.7270  -53.4190 C.3   421  ILE421      0.0022
    209  CD1        9.1160  -16.8720  -56.3400 C.3   421  ILE421      0.0001
    210  N          6.2700  -14.5390  -48.8180 N.3   424  ASN424     -0.1225
    211  CA         6.2470  -15.8650  -48.2170 C.3   424  ASN424      0.1785
    212  C          7.4260  -16.0110  -47.2690 C.2   424  ASN424      0.2597
    213  O          7.3240  -16.6430  -46.2170 O.2   424  ASN424     -0.2718
    214  CB         6.3210  -16.9440  -49.2940 C.3   424  ASN424      0.1169
    215  CG         5.5460  -18.1970  -48.9240 C.2   424  ASN424      0.2627
    216  OD1        4.6730  -18.6320  -49.6720 O.2   424  ASN424     -0.2716
    217  ND2        5.8590  -18.7820  -47.7690 N.am  424  ASN424     -0.0877
    218  N          8.5470  -15.4120  -47.6550 N.am  425  TRP425     -0.1976
    219  CA         9.7590  -15.4560  -46.8490 C.3   425  TRP425      0.1640
    220  C          9.6610  -14.5750  -45.6100 C.2   425  TRP425      0.2290
    221  O         10.2430  -14.8880  -44.5720 O.2   425  TRP425     -0.2864
    222  CB        10.9770  -15.0800  -47.6930 C.3   425  TRP425      0.0576
    223  CG        11.5800  -16.2620  -48.3720 C.ar  425  TRP425      0.0006
    224  CD1       11.1350  -16.8730  -49.5070 C.ar  425  TRP425      0.0946
    225  CD2       12.7350  -16.9940  -47.9480 C.ar  425  TRP425      0.0152
    226  NE1       11.9450  -17.9370  -49.8200 N.ar  425  TRP425     -0.2442
    227  CE2       12.9350  -18.0330  -48.8780 C.ar  425  TRP425      0.0810
    228  CE3       13.6220  -16.8700  -46.8740 C.ar  425  TRP425      0.0012
    229  CZ2       13.9850  -18.9410  -48.7670 C.ar  425  TRP425      0.0191
    230  CZ3       14.6630  -17.7720  -46.7660 C.ar  425  TRP425      0.0001
    231  CH2       14.8360  -18.7940  -47.7070 C.ar  425  TRP425      0.0015
    232  N          8.2190  -16.7420  -43.4950 N.3   428  TYR428     -0.1241
    233  CA         9.1710  -17.7940  -43.1480 C.3   428  TYR428      0.1605
    234  C         10.0180  -17.4280  -41.9350 C.2   428  TYR428      0.2264
    235  O         10.3150  -18.2800  -41.0970 O.2   428  TYR428     -0.2867
    236  CB        10.0880  -18.1040  -44.3340 C.3   428  TYR428      0.0534
    237  CG         9.4870  -19.0320  -45.3630 C.ar  428  TYR428     -0.0201
    238  CD1        8.4610  -19.9040  -45.0260 C.ar  428  TYR428     -0.0009
    239  CD2        9.9500  -19.0410  -46.6720 C.ar  428  TYR428     -0.0009
    240  CE1        7.9120  -20.7570  -45.9630 C.ar  428  TYR428      0.0417
    241  CE2        9.4060  -19.8900  -47.6170 C.ar  428  TYR428      0.0417
    242  CZ         8.3880  -20.7460  -47.2570 C.ar  428  TYR428      0.1957
    243  OH         7.8430  -21.5920  -48.1940 O.3   428  TYR428     -0.2866
@<TRIPOS>BOND
     1    34    32    1
     2    32    33    1
     3    32    29    1
     4    23    24    1
     5    23    20    1
     6    22    21    2
     7   105   103   ar
     8    24    25    1
     9    21    28   am
    10    21    20    1
    11    29    28    1
    12    29    30    1
    13    25    26    1
    14    20    19    1
    15    26    27    1
    16    38    37    2
    17   103   102    1
    18   103   104   ar
    19    92    93    1
    20    35    30   am
    21    35    36    1
    22   102    99    1
    23    30    31    2
    24    37    36    1
    25    98    99    1
    26    98    94   am
    27    36    39    1
    28    93    94    1
    29    93    96    1
    30    39    40    1
    31    99   100    1
    32    94    95    2
    33    41    40   ar
    34    41    43   ar
    35   101   100    2
    36   100   106   am
    37    40    42   ar
    38    96    97    1
    39     8     7    2
    40    14    13    2
    41    43    44   ar
    42   106   107    1
    43   108   109    2
    44   108   107    1
    45    42    44   ar
    46    42    45   ar
    47     7     6    1
    48     7    11   am
    49    13    12    1
    50   107   110    1
    51   209   207    1
    52    44    46   ar
    53     9     6    1
    54     9    10    1
    55     6     5    1
    56    12    11    1
    57    12    15    1
    58    45    47   ar
    59   207   206    1
    60   194   195    1
    61   194   191    1
    62   110   111    1
    63    17    15    1
    64    46    48   ar
    65    15    16    1
    66   195   197   ar
    67   195   196   ar
    68   190   191    1
    69   197   199   ar
    70    16    18    1
    71    47    48   ar
    72   196   198   ar
    73   206   208    1
    74   206   203    1
    75   111   113   ar
    76   111   112   ar
    77   199   200   ar
    78   191   192    1
    79   202   192   am
    80   202   203    1
    81   198   200   ar
    82   200   201    1
    83   113   115   ar
    84   112   114   ar
    85    68    67    1
    86   192   193    2
    87   133   130    1
    88   203   204    1
    89   117   118    1
    90    61    59   ar
    91    61    62   ar
    92   185   184    2
    93   121   118    1
    94   121   122    1
    95   115   116   ar
    96   114   116   ar
    97     4     3    2
    98    59    56   ar
    99   129   130    1
   100   129   119   am
   101    62    60   ar
   102    67    69    1
   103    67    64    1
   104   118   119    1
   105   188   187    2
   106   130   131    1
   107   184   183    1
   108   204   205    2
   109   122   124   ar
   110   122   123   ar
   111   124   126   ar
   112   183   182    1
   113   183   186    1
   114   119   120    2
   115     3     2    1
   116    56    58   ar
   117    56    54   ar
   118    60    58   ar
   119   123   125   ar
   120    53    54    1
   121    53    50    1
   122     2     1    1
   123    63    64    1
   124    63    51   am
   125   187   186    1
   126   187   189   am
   127    64    65    1
   128    49    50    1
   129   131   132    2
   130   126   127   ar
   131    58    57   ar
   132    54    55   ar
   133    50    51    1
   134   125   127   ar
   135   127   128    1
   136    51    52    2
   137   168   170   ar
   138   168   166   ar
   139   226   224   ar
   140   226   227   ar
   141    65    66    2
   142   216   215    2
   143    57    55   ar
   144   224   223   ar
   145   170   169   ar
   146   214   215    1
   147   214   211    1
   148   166   165   ar
   149   163   162    2
   150   215   217   am
   151   227   229   ar
   152   227   225   ar
   153   210   211    1
   154   229   231   ar
   155   139   138    1
   156    77    75   ar
   157   223   225   ar
   158   223   222    1
   159    84    82    1
   160   211   212    1
   161   174   173    2
   162   243   242    1
   163   169   167   ar
   164   162   161    1
   165   162   171   am
   166   225   228   ar
   167   165   167   ar
   168   165   164    1
   169   138   135    1
   170   231   230   ar
   171   222   219    1
   172   161   164    1
   173   161   160    1
   174    74    75    1
   175    74    71    1
   176   218   212   am
   177   218   219    1
   178   134   135    1
   179   173   172    1
   180   241   242   ar
   181   241   239   ar
   182    75    76   ar
   183   212   213    2
   184   242   240   ar
   185   172   171    1
   186   172   175    1
   187    82    83    1
   188    82    79    1
   189   228   230   ar
   190   135   136    1
   191   219   220    1
   192   239   237   ar
   193    70    71    1
   194    78    79    1
   195    78    72   am
   196    71    72    1
   197   136   137    2
   198    79    80    1
   199   240   238   ar
   200   177   179   ar
   201   177   176   ar
   202   175   176    1
   203    72    73    2
   204   220   221    2
   205   179   181   ar
   206   237   238   ar
   207   237   236    1
   208   176   178   ar
   209    80    81    2
   210   181   180   ar
   211   158   159   ar
   212   158   156   ar
   213   178   180   ar
   214   236   233    1
   215   149   148    2
   216   145   144    1
   217   159   157   ar
   218   156   153   ar
   219    91    89    1
   220   232   233    1
   221   144   141    1
   222   233   234    1
   223   148   147    1
   224    89    90    1
   225    89    86    1
   226   157   155   ar
   227   153   155   ar
   228   153   151   ar
   229   140   141    1
   230   147   146    1
   231   147   150    1
   232   141   142    1
   233   234   235    2
   234    85    86    1
   235   155   154   ar
   236    86    87    1
   237   150   151    1
   238   151   152   ar
   239   142   143    2
   240    87    88    2
   241   154   152   ar
