@<TRIPOS>MOLECULE
tmp/4qkzA00.pdb
 162 161 0 0 0
SMALL
GASTEIGER

@<TRIPOS>ATOM
      1  N         16.2380    5.2600   25.8940 N.3    79  GLY79      -0.1210
      2  CA        16.3540    5.1800   24.4360 C.3    79  GLY79       0.1956
      3  C         15.0480    5.5130   23.7330 C.2    79  GLY79       0.2612
      4  O         14.4690    6.5550   23.9870 O.2    79  GLY79      -0.2717
      5  N         14.6050    4.6370   22.8410 N.am   80  ILE80      -0.1965
      6  CA        13.3660    4.8730   22.1380 C.3    80  ILE80       0.1727
      7  C         12.2230    4.7500   23.1470 C.2    80  ILE80       0.2616
      8  O         12.0900    3.7560   23.8580 O.2    80  ILE80      -0.2715
      9  CB        13.1540    3.8270   21.0340 C.3    80  ILE80       0.0290
     10  CG1       14.2890    3.8490   20.0000 C.3    80  ILE80       0.0022
     11  CG2       11.7950    4.0370   20.3680 C.3    80  ILE80       0.0023
     12  CD1       14.3120    2.5980   19.1360 C.3    80  ILE80       0.0001
     13  N         11.3930    5.7750   23.1970 N.am   81  LEU81      -0.1963
     14  CA        10.2640    5.8230   24.1290 C.3    81  LEU81       0.1728
     15  C          8.9330    5.4120   23.4940 C.2    81  LEU81       0.2616
     16  O          8.0700    4.8540   24.1670 O.2    81  LEU81      -0.2715
     17  CB        10.0930    7.2400   24.6770 C.3    81  LEU81       0.0311
     18  CG        11.3250    7.8450   25.3360 C.3    81  LEU81       0.0022
     19  CD1       11.0280    9.2820   25.7460 C.3    81  LEU81       0.0001
     20  CD2       11.8670    7.0180   26.4960 C.3    81  LEU81       0.0001
     21  N          8.7610    5.7200   22.2190 N.am   82  ALA82      -0.1963
     22  CA         7.4720    5.6150   21.5440 C.3    82  ALA82       0.1728
     23  C          7.7150    5.8890   20.0760 C.2    82  ALA82       0.2616
     24  O          8.7770    6.4270   19.6900 O.2    82  ALA82      -0.2715
     25  CB         6.4920    6.6410   22.1150 C.3    82  ALA82       0.0334
     26  N          6.7250    5.5570   19.2460 N.am   83  HIS83      -0.1959
     27  CA         6.7480    5.9610   17.8580 C.3    83  HIS83       0.1787
     28  C          5.3210    5.9740   17.3390 C.2    83  HIS83       0.2620
     29  O          4.4210    5.4420   17.9750 O.2    83  HIS83      -0.2715
     30  CB         7.6600    5.0890   16.9730 C.3    83  HIS83       0.0785
     31  CG         7.3690    3.6320   17.0030 C.ar   83  HIS83       0.0821
     32  ND1        8.3820    2.7090   17.0670 N.ar   83  HIS83      -0.2267
     33  CD2        6.2180    2.9280   16.9380 C.ar   83  HIS83       0.1154
     34  CE1        7.8710    1.4970   17.0390 C.ar   83  HIS83       0.1986
     35  NE2        6.5630    1.6020   16.9770 N.ar   83  HIS83      -0.2212
     36  N          5.1230    6.5690   16.1810 N.am   84  ALA84      -0.1977
     37  CA         3.7890    6.7140   15.6150 C.3    84  ALA84       0.1597
     38  C          3.8760    6.7460   14.1140 C.2    84  ALA84       0.2287
     39  O          4.8830    7.1660   13.5480 O.2    84  ALA84      -0.2864
     40  CB         3.0820    7.9690   16.1430 C.3    84  ALA84       0.0319
     41  N          3.4270   14.1540   27.8070 N.3   114  LEU114     -0.1231
     42  CA         4.3070   14.8390   26.8860 C.3   114  LEU114      0.1693
     43  C          4.7430   13.9570   25.7160 C.2   114  LEU114      0.2591
     44  O          4.7770   14.4040   24.5820 O.2   114  LEU114     -0.2718
     45  CB         5.5320   15.3880   27.6230 C.3   114  LEU114      0.0284
     46  CG         5.2270   16.5630   28.5600 C.3   114  LEU114      0.0019
     47  CD1        6.4740   16.8760   29.3750 C.3   114  LEU114      0.0001
     48  CD2        4.7250   17.7780   27.7880 C.3   114  LEU114      0.0001
     49  N          5.0770   12.6970   25.9870 N.am  115  VAL115     -0.1980
     50  CA         5.5070   11.8080   24.9130 C.3   115  VAL115      0.1595
     51  C          4.3450   11.5480   23.9530 C.2   115  VAL115      0.2287
     52  O          4.5140   11.6010   22.7530 O.2   115  VAL115     -0.2864
     53  CB         6.0780   10.5010   25.4680 C.3   115  VAL115      0.0276
     54  CG1        6.4200    9.5530   24.3270 C.3   115  VAL115      0.0022
     55  CG2        7.3320   10.8050   26.2860 C.3   115  VAL115      0.0022
     56  N          3.6740   14.5790   21.6810 N.3   118  HIS118     -0.1226
     57  CA         4.6570   14.5960   20.5980 C.3   118  HIS118      0.1752
     58  C          4.3120   13.5630   19.5390 C.2   118  HIS118      0.2595
     59  O          4.2810   13.8660   18.3580 O.2   118  HIS118     -0.2718
     60  CB         6.0440   14.3490   21.1820 C.3   118  HIS118      0.0759
     61  CG         7.1140   14.1850   20.1630 C.ar  118  HIS118      0.0818
     62  ND1        7.9620   15.2000   19.7930 N.ar  118  HIS118     -0.2268
     63  CD2        7.4640   13.1190   19.4250 C.ar  118  HIS118      0.1154
     64  CE1        8.8130   14.7480   18.8870 C.ar  118  HIS118      0.1986
     65  NE2        8.5360   13.4810   18.6540 N.ar  118  HIS118     -0.2212
     66  N          4.0360   12.3240   19.9560 N.am  119  GLU119     -0.1979
     67  CA         3.7560   11.2760   18.9910 C.3   119  GLU119      0.1602
     68  C          2.5120   11.5820   18.1950 C.2   119  GLU119      0.2287
     69  O          2.4620   11.3100   17.0070 O.2   119  GLU119     -0.2864
     70  CB         3.6750    9.8980   19.6750 C.3   119  GLU119      0.0415
     71  CG         5.0310    9.4280   20.2100 C.3   119  GLU119      0.1163
     72  CD         6.0790    9.2940   19.1280 C.2   119  GLU119      0.3649
     73  OE1        5.7150    9.0570   17.9640 O.co2 119  GLU119     -0.2457
     74  OE2        7.2960    9.4020   19.4460 O.co2 119  GLU119     -0.2457
     75  N          3.1020   13.3920   15.0360 N.3   122  HIS122     -0.1241
     76  CA         3.4200   12.4840   13.9300 C.3   122  HIS122      0.1621
     77  C          2.1540   11.8040   13.3850 C.2   122  HIS122      0.2264
     78  O          1.9570   11.7400   12.1900 O.2   122  HIS122     -0.2867
     79  CB         4.4030   11.4130   14.3750 C.3   122  HIS122      0.0745
     80  CG         5.7540   11.9360   14.7810 C.ar  122  HIS122      0.0817
     81  ND1        6.4480   12.8780   14.0530 N.ar  122  HIS122     -0.2268
     82  CD2        6.5640   11.6070   15.8210 C.ar  122  HIS122      0.1154
     83  CE1        7.6230   13.1020   14.6240 C.ar  122  HIS122      0.1986
     84  NE2        7.7300   12.3300   15.6910 N.ar  122  HIS122     -0.2212
     85  N          9.7180   16.4480   12.5840 N.3   128  HIS128     -0.1241
     86  CA        10.4330   17.1390   13.6470 C.3   128  HIS128      0.1621
     87  C         10.7010   18.5760   13.3040 C.2   128  HIS128      0.2264
     88  O         10.9850   18.9340   12.1770 O.2   128  HIS128     -0.2867
     89  CB        11.7260   16.4320   14.0220 C.3   128  HIS128      0.0745
     90  CG        11.5020   15.1130   14.6690 C.ar  128  HIS128      0.0817
     91  ND1       10.5760   14.8590   15.6560 N.ar  128  HIS128     -0.2268
     92  CD2       12.1400   13.9490   14.4490 C.ar  128  HIS128      0.1154
     93  CE1       10.6420   13.5770   15.9800 C.ar  128  HIS128      0.1986
     94  NE2       11.6140   13.0190   15.2870 N.ar  128  HIS128     -0.2212
     95  N          9.9840   23.6780   20.5750 N.3   134  ALA134     -0.1231
     96  CA         8.7970   23.0180   20.0210 C.3   134  ALA134      0.1694
     97  C          8.5310   21.6390   20.6260 C.2   134  ALA134      0.2591
     98  O          9.4710   20.9010   20.9240 O.2   134  ALA134     -0.2718
     99  CB         8.9290   22.8910   18.5160 C.3   134  ALA134      0.0304
    100  N          7.2630   21.2930   20.7890 N.am  135  LEU135     -0.1980
    101  CA         6.8950   19.9390   21.1710 C.3   135  LEU135      0.1596
    102  C          7.4620   18.9060   20.2050 C.2   135  LEU135      0.2287
    103  O          7.8650   17.8240   20.6260 O.2   135  LEU135     -0.2864
    104  CB         5.3790   19.8370   21.2750 C.3   135  LEU135      0.0297
    105  CG         4.8380   18.4770   21.6710 C.3   135  LEU135      0.0022
    106  CD1        5.3760   17.9810   23.0030 C.3   135  LEU135      0.0001
    107  CD2        3.3210   18.5120   21.6570 C.3   135  LEU135      0.0001
    108  N         10.2540   18.9520   18.6330 N.3   137  TYR137     -0.1228
    109  CA        11.7070   18.7780   18.6550 C.3   137  TYR137      0.1721
    110  C         12.0480   17.2950   18.8530 C.2   137  TYR137      0.2437
    111  O         11.3050   16.5810   19.5090 O.2   137  TYR137     -0.2733
    112  CB        12.2870   19.6330   19.7940 C.3   137  TYR137      0.0547
    113  CG        13.7870   19.7260   19.8040 C.ar  137  TYR137     -0.0200
    114  CD1       14.4470   20.4960   18.8690 C.ar  137  TYR137     -0.0009
    115  CD2       14.5420   19.0520   20.7580 C.ar  137  TYR137     -0.0009
    116  CE1       15.8280   20.5880   18.8760 C.ar  137  TYR137      0.0417
    117  CE2       15.9180   19.1500   20.7880 C.ar  137  TYR137      0.0417
    118  CZ        16.5530   19.9260   19.8450 C.ar  137  TYR137      0.1957
    119  OH        17.9210   20.0250   19.8660 O.3   137  TYR137     -0.2866
    120  N         13.1740   16.8170   18.2920 N.am  138  PRO138     -0.2718
    121  CA        13.3850   15.3490   18.3270 C.3   138  PRO138      0.1535
    122  C         13.7140   14.6950   19.6660 C.2   138  PRO138      0.2599
    123  O         13.6780   13.4600   19.7560 O.2   138  PRO138     -0.2715
    124  CB        14.5810   15.1320   17.4080 C.3   138  PRO138      0.0310
    125  CG        14.6560   16.3510   16.5750 C.3   138  PRO138      0.0237
    126  CD        14.1280   17.4790   17.3900 C.3   138  PRO138      0.0939
    127  N         14.1250   15.4630   20.6630 N.am  139  ASN139     -0.1959
    128  CA        14.5170   14.8580   21.9520 C.3   139  ASN139      0.1819
    129  C         13.5670   15.2770   23.0710 C.2   139  ASN139      0.2621
    130  O         13.1520   16.4190   23.1470 O.2   139  ASN139     -0.2715
    131  CB        15.9720   15.1790   22.3210 C.3   139  ASN139      0.1195
    132  CG        16.9900   14.4140   21.4720 C.2   139  ASN139      0.2630
    133  OD1       16.7300   13.3060   20.9970 O.2   139  ASN139     -0.2716
    134  ND2       18.1680   14.9740   21.3300 N.am  139  ASN139     -0.0877
    135  N         13.2150   14.3180   23.9140 N.am  140  TYR140     -0.1960
    136  CA        12.3480   14.5250   25.0640 C.3   140  TYR140      0.1771
    137  C         12.9620   15.4940   26.0650 C.2   140  TYR140      0.2619
    138  O         14.1540   15.4140   26.3690 O.2   140  TYR140     -0.2715
    139  CB        12.1290   13.1860   25.7700 C.3   140  TYR140      0.0574
    140  CG        11.4250   13.2710   27.1230 C.ar  140  TYR140     -0.0198
    141  CD1       12.1320   13.4410   28.3140 C.ar  140  TYR140     -0.0009
    142  CD2       10.0510   13.1860   27.2040 C.ar  140  TYR140     -0.0009
    143  CE1       11.4670   13.5310   29.5250 C.ar  140  TYR140      0.0417
    144  CE2        9.3880   13.2400   28.4050 C.ar  140  TYR140      0.0417
    145  CZ        10.0910   13.4450   29.5600 C.ar  140  TYR140      0.1957
    146  OH         9.3850   13.4960   30.7520 O.3   140  TYR140     -0.2866
    147  N         12.1240   16.3730   26.6060 N.am  141  ALA141     -0.1977
    148  CA        12.4670   17.1810   27.7750 C.3   141  ALA141      0.1597
    149  C         11.1920   17.4680   28.5440 C.2   141  ALA141      0.2287
    150  O         10.1430   17.6970   27.9460 O.2   141  ALA141     -0.2864
    151  CB        13.1530   18.4710   27.3620 C.3   141  ALA141      0.0319
    152  N          8.5710   19.6070   30.5510 N.3   143  ARG143     -0.1245
    153  CA         8.0900   21.0000   30.8200 C.3   143  ARG143      0.1563
    154  C          6.8320   20.8780   31.5780 C.2   143  ARG143      0.2260
    155  O          6.1700   19.8380   31.6330 O.2   143  ARG143     -0.2867
    156  CB         7.8300   21.7200   29.5200 C.3   143  ARG143      0.0307
    157  CG         8.7800   21.3500   28.4200 C.3   143  ARG143      0.0489
    158  CD         8.0200   20.5100   27.4400 C.3   143  ARG143      0.2205
    159  NE         8.1900   21.0700   26.1100 N.pl3 143  ARG143     -0.0865
    160  CZ         9.2800   20.8400   25.3900 C.cat 143  ARG143      0.5346
    161  NH1       10.2500   20.0900   25.8900 N.pl3 143  ARG143      0.1354
    162  NH2        9.3900   21.3600   24.1600 N.pl3 143  ARG143      0.1354
@<TRIPOS>BOND
     1    88    87    2
     2    78    77    2
     3    85    86    1
     4    87    86    1
     5    77    76    1
     6    39    38    2
     7    86    89    1
     8    76    79    1
     9    76    75    1
    10    89    90    1
    11    81    83   ar
    12    81    80   ar
    13    38    37    1
    14    79    80    1
    15    92    90   ar
    16    92    94   ar
    17    83    84   ar
    18    90    91   ar
    19    80    82   ar
    20    94    93   ar
    21    37    40    1
    22    37    36    1
    23    91    93   ar
    24    84    82   ar
    25    36    28   am
    26   125   126    1
    27   125   124    1
    28    33    35   ar
    29    33    31   ar
    30    30    31    1
    31    30    27    1
    32    35    34   ar
    33    31    32   ar
    34    69    68    2
    35    34    32   ar
    36    28    27    1
    37    28    29    2
    38   126   120    1
    39   124   121    1
    40    27    26    1
    41    73    72   ar
    42    68    67    1
    43   120   121    1
    44   120   110   am
    45   121   122    1
    46    59    58    2
    47    99    96    1
    48   108   109    1
    49    65    64   ar
    50    65    63   ar
    51   109   110    1
    52   109   112    1
    53   110   111    2
    54   114   116   ar
    55   114   113   ar
    56   116   118   ar
    57    64    62   ar
    58    67    70    1
    59    67    66    1
    60    72    74   ar
    61    72    71    1
    62    12    10    1
    63    26    23   am
    64    63    61   ar
    65    58    66   am
    66    58    57    1
    67   122   123    2
    68   122   127   am
    69    70    71    1
    70    24    23    2
    71    62    61   ar
    72   112   113    1
    73   113   115   ar
    74   118   119    1
    75   118   117   ar
    76    10     9    1
    77    96    95    1
    78    96    97    1
    79    23    22    1
    80    61    60    1
    81   102   103    2
    82   102   101    1
    83    11     9    1
    84    57    60    1
    85    57    56    1
    86    97   100   am
    87    97    98    2
    88   127   128    1
    89   115   117   ar
    90   100   101    1
    91   133   132    2
    92     9     6    1
    93   101   104    1
    94   104   105    1
    95   134   132   am
    96   132   131    1
    97    22    25    1
    98    22    21    1
    99   107   105    1
   100   105   106    1
   101   128   131    1
   102   128   129    1
   103     6     5    1
   104     6     7    1
   105    21    15   am
   106    52    51    2
   107     5     3   am
   108   129   130    2
   109   129   135   am
   110     7    13   am
   111     7     8    2
   112    13    14    1
   113    15    14    1
   114    15    16    2
   115     3     4    2
   116     3     2    1
   117   135   136    1
   118    51    50    1
   119    14    17    1
   120   162   160    1
   121    54    53    1
   122     2     1    1
   123    44    43    2
   124    17    18    1
   125    50    53    1
   126    50    49    1
   127   136   139    1
   128   136   137    1
   129    18    19    1
   130    18    20    1
   131   160   161    1
   132   160   159    2
   133    53    55    1
   134    43    49   am
   135    43    42    1
   136   139   140    1
   137   137   138    2
   138   137   147   am
   139   159   158    1
   140   147   148    1
   141    42    45    1
   142    42    41    1
   143   140   142   ar
   144   140   141   ar
   145   142   144   ar
   146   151   148    1
   147   158   157    1
   148    45    46    1
   149   148   149    1
   150    48    46    1
   151   150   149    2
   152   141   143   ar
   153   144   145   ar
   154   157   156    1
   155    46    47    1
   156   156   153    1
   157   143   145   ar
   158   145   146    1
   159   152   153    1
   160   153   154    1
   161   154   155    2
