@<TRIPOS>MOLECULE
tmp/4ql1B00.pdb
 169 161 0 0 0
SMALL
GASTEIGER

@<TRIPOS>ATOM
      1  N        -22.4710  -14.0270   49.2080 N.3    17  ALA17      -0.1245
      2  CA       -23.3460  -15.1860   48.9380 C.3    17  ALA17       0.1562
      3  C        -24.0450  -15.0460   47.5950 C.2    17  ALA17       0.2260
      4  O        -24.4930  -13.9570   47.2280 O.2    17  ALA17      -0.2867
      5  CB       -24.4010  -15.3150   50.0260 C.3    17  ALA17       0.0290
      6  N        -27.3790  -15.9190   45.7910 N.3    19  SER19      -0.1202
      7  CA       -28.7410  -16.1960   46.2770 C.3    19  SER19       0.2020
      8  C        -29.6240  -17.0030   45.3360 C.2    19  SER19       0.2619
      9  O        -30.4690  -17.7570   45.8000 O.2    19  SER19      -0.2717
     10  CB       -29.4370  -14.8880   46.6310 C.3    19  SER19       0.2103
     11  OG       -29.3900  -13.9910   45.5270 O.3    19  SER19      -0.2182
     12  N        -29.4050  -16.8740   44.0320 N.am   20  SER20      -0.1951
     13  CA       -30.2930  -17.5060   43.0500 C.3    20  SER20       0.1924
     14  C        -29.5910  -17.6630   41.7190 C.2    20  SER20       0.2314
     15  O        -28.7910  -16.8110   41.3280 O.2    20  SER20      -0.2863
     16  CB       -31.5240  -16.6580   42.8780 C.3    20  SER20       0.2116
     17  OG       -32.5360  -17.3650   42.2300 O.3    20  SER20      -0.2180
     18  N        -25.8420  -11.3700   47.2650 N.3    35  ALA35      -0.1245
     19  CA       -25.8250  -10.3900   48.3340 C.3    35  ALA35       0.1562
     20  C        -24.8770   -9.2110   48.0250 C.2    35  ALA35       0.2260
     21  O        -24.9450   -8.1890   48.6940 O.2    35  ALA35      -0.2867
     22  CB       -25.4380  -11.0690   49.6320 C.3    35  ALA35       0.0290
     23  N        -28.4710   -6.1000   48.7860 N.3    59  GLY59      -0.1210
     24  CA       -28.3940   -7.4650   48.2450 C.3    59  GLY59       0.1956
     25  C        -29.6200   -7.8670   47.4900 C.2    59  GLY59       0.2612
     26  O        -30.7010   -7.3540   47.7380 O.2    59  GLY59      -0.2717
     27  N        -29.4470   -8.8270   46.5970 N.am   60  ILE60      -0.1965
     28  CA       -30.5120   -9.3690   45.7590 C.3    60  ILE60       0.1727
     29  C        -30.7830  -10.8100   46.1810 C.2    60  ILE60       0.2617
     30  O        -29.8570  -11.5920   46.3000 O.2    60  ILE60      -0.2715
     31  CB       -30.1180   -9.3040   44.2680 C.3    60  ILE60       0.0290
     32  CG1      -29.7600   -7.8670   43.8660 C.3    60  ILE60       0.0022
     33  CG2      -31.2440   -9.8640   43.4000 C.3    60  ILE60       0.0023
     34  CD1      -29.1910   -7.7370   42.4940 C.3    60  ILE60       0.0001
     35  N        -32.0630  -11.1550   46.4010 N.am   61  SER61      -0.1936
     36  CA       -32.4750  -12.4700   46.8420 C.3    61  SER61       0.2055
     37  C        -32.9090  -13.3720   45.6680 C.2    61  SER61       0.2643
     38  O        -32.8790  -14.5760   45.7820 O.2    61  SER61      -0.2714
     39  CB       -33.6440  -12.2860   47.8170 C.3    61  SER61       0.2130
     40  OG       -34.1150  -13.4920   48.3420 O.3    61  SER61      -0.2179
     41  N        -33.3320  -12.7830   44.5550 N.am   62  ASP62      -0.1971
     42  CA       -33.9020  -13.5970   43.4760 C.3    62  ASP62       0.1709
     43  C        -33.8410  -12.8740   42.1390 C.2    62  ASP62       0.2293
     44  O        -33.7980  -11.6420   42.0900 O.2    62  ASP62      -0.2864
     45  CB       -35.3810  -13.9410   43.7970 C.3    62  ASP62       0.1436
     46  CG       -35.8740  -15.2310   43.1230 C.2    62  ASP62       0.3671
     47  OD1      -35.1010  -15.9690   42.4820 O.co2  62  ASP62      -0.2456
     48  OD2      -37.0900  -15.5290   43.2280 O.co2  62  ASP62      -0.2456
     49  N        -33.3000   -6.5960   48.8330 N.3    77  ASP77      -0.1239
     50  CA       -33.4220   -6.1480   50.2330 C.3    77  ASP77       0.1674
     51  C        -33.6630   -4.6360   50.2910 C.2    77  ASP77       0.2266
     52  O        -34.0420   -4.1230   51.3500 O.2    77  ASP77      -0.2867
     53  CB       -32.1210   -6.4730   51.0010 C.3    77  ASP77       0.1410
     54  CG       -31.9460   -7.9660   51.2690 C.2    77  ASP77       0.3668
     55  OD1      -32.9210   -8.7280   51.1410 O.co2  77  ASP77      -0.2456
     56  OD2      -30.8100   -8.3920   51.6210 O.co2  77  ASP77      -0.2456
     57  N        -38.1880  -10.8860   48.5630 N.3   103  PHE103     -0.1227
     58  CA       -37.4170  -12.1200   48.5810 C.3   103  PHE103      0.1736
     59  C        -37.5320  -12.9600   47.3180 C.2   103  PHE103      0.2595
     60  O        -36.6480  -13.7410   47.0480 O.2   103  PHE103     -0.2718
     61  CB       -37.8420  -12.9960   49.7650 C.3   103  PHE103      0.0547
     62  CG       -37.4050  -12.4920   51.1230 C.ar  103  PHE103     -0.0202
     63  CD1      -36.1470  -11.9370   51.3220 C.ar  103  PHE103     -0.0042
     64  CD2      -38.2110  -12.6760   52.2200 C.ar  103  PHE103     -0.0042
     65  CE1      -35.7420  -11.4960   52.5660 C.ar  103  PHE103     -0.0003
     66  CE2      -37.8140  -12.2300   53.4760 C.ar  103  PHE103     -0.0003
     67  CZ       -36.5640  -11.6720   53.6500 C.ar  103  PHE103     -0.0000
     68  N        -38.6120  -12.8570   46.5770 N.am  104  CYS104     -0.1970
     69  CA       -38.8780  -13.7810   45.4960 C.3   104  CYS104      0.1712
     70  C        -39.6790  -13.1090   44.3940 C.2   104  CYS104      0.2296
     71  O        -40.3990  -12.1470   44.6320 O.2   104  CYS104     -0.2864
     72  CB       -39.5960  -14.9940   46.0600 C.3   104  CYS104      0.0983
     73  SG       -41.0560  -14.6610   47.0880 S.3   104  CYS104     -0.0798
     74  N        -40.7760   -9.9880   52.8680 N.3   119  PHE119     -0.1241
     75  CA       -40.7800   -9.9970   54.3120 C.3   119  PHE119      0.1605
     76  C        -42.0010   -9.2920   54.9080 C.2   119  PHE119      0.2264
     77  O        -42.4630   -9.6590   56.0050 O.2   119  PHE119     -0.2867
     78  CB       -39.4700   -9.3670   54.8110 C.3   119  PHE119      0.0534
     79  CG       -39.2480   -9.5130   56.3000 C.ar  119  PHE119     -0.0203
     80  CD1      -39.7340   -8.5520   57.1770 C.ar  119  PHE119     -0.0042
     81  CD2      -38.5590  -10.5940   56.8200 C.ar  119  PHE119     -0.0042
     82  CE1      -39.5400   -8.6770   58.5500 C.ar  119  PHE119     -0.0003
     83  CE2      -38.3680  -10.7330   58.1950 C.ar  119  PHE119     -0.0003
     84  CZ       -38.8660   -9.7680   59.0560 C.ar  119  PHE119     -0.0000
     85  N        -43.1840  -13.7490   56.7710 N.3   143  PRO143     -0.2116
     86  CA       -42.4970  -13.5090   55.5280 C.3   143  PRO143      0.1372
     87  C        -42.8580  -14.4990   54.4160 C.2   143  PRO143      0.2244
     88  O        -42.9500  -15.7030   54.6610 O.2   143  PRO143     -0.2868
     89  CB       -41.0260  -13.6230   55.9280 C.3   143  PRO143      0.0268
     90  CG       -41.0020  -13.1530   57.3520 C.3   143  PRO143      0.0207
     91  CD       -42.3100  -13.5800   57.9460 C.3   143  PRO143      0.0892
     92  N        -41.7990  -16.5770   51.2840 N.3   145  SER145     -0.1217
     93  CA       -40.5120  -17.1750   50.8910 C.3   145  SER145      0.1889
     94  C        -40.4280  -17.5460   49.3980 C.2   145  SER145      0.2288
     95  O        -39.3290  -17.6420   48.8620 O.2   145  SER145     -0.2866
     96  CB       -40.2670  -18.4220   51.7130 C.3   145  SER145      0.2089
     97  OG       -41.3200  -19.3490   51.5710 O.3   145  SER145     -0.2183
     98  N        -43.3910  -18.3770   56.0040 N.3   161  TYR161     -0.1241
     99  CA       -42.9950  -18.7550   57.3400 C.3   161  TYR161      0.1605
    100  C        -44.1900  -18.9840   58.2700 C.2   161  TYR161      0.2264
    101  O        -44.0260  -19.5770   59.3310 O.2   161  TYR161     -0.2867
    102  CB       -42.0720  -17.6950   57.9300 C.3   161  TYR161      0.0534
    103  CG       -40.6170  -17.9430   57.6670 C.ar  161  TYR161     -0.0201
    104  CD1      -40.1460  -18.0770   56.3750 C.ar  161  TYR161     -0.0009
    105  CD2      -39.7190  -18.0210   58.7030 C.ar  161  TYR161     -0.0009
    106  CE1      -38.7970  -18.3000   56.1310 C.ar  161  TYR161      0.0417
    107  CE2      -38.3720  -18.2410   58.4640 C.ar  161  TYR161      0.0417
    108  CZ       -37.9270  -18.3800   57.1740 C.ar  161  TYR161      0.1957
    109  OH       -36.5760  -18.6080   56.9220 O.3   161  TYR161     -0.2866
    110  N        -32.9190  -23.8830   58.1890 N.3   227  LYS227     -0.1231
    111  CA       -32.6750  -22.4650   58.3750 C.3   227  LYS227      0.1693
    112  C        -32.8780  -21.5840   57.1350 C.2   227  LYS227      0.2592
    113  O        -33.5110  -20.5250   57.2090 O.2   227  LYS227     -0.2718
    114  CB       -31.2570  -22.2750   58.9130 C.3   227  LYS227      0.0285
    115  CG       -30.9120  -20.8270   59.2150 C.3   227  LYS227      0.0035
    116  CD       -29.6020  -20.7340   59.9650 C.3   227  LYS227      0.0206
    117  CE       -29.1300  -19.2960   60.0410 C.3   227  LYS227      0.1093
    118  NZ       -27.8560  -19.2480   60.8070 N.3   227  LYS227     -0.1314
    119  N        -32.3220  -22.0070   56.0120 N.am  228  TYR228     -0.1962
    120  CA       -32.3260  -21.1980   54.8000 C.3   228  TYR228      0.1771
    121  C        -33.4570  -21.6260   53.8640 C.2   228  TYR228      0.2619
    122  O        -33.9380  -22.7740   53.9100 O.2   228  TYR228     -0.2715
    123  CB       -30.9560  -21.3110   54.1180 C.3   228  TYR228      0.0574
    124  CG       -29.8520  -20.6830   54.9390 C.ar  228  TYR228     -0.0198
    125  CD1      -29.6800  -19.3030   54.9600 C.ar  228  TYR228     -0.0009
    126  CD2      -29.0210  -21.4610   55.7450 C.ar  228  TYR228     -0.0009
    127  CE1      -28.6810  -18.7230   55.7190 C.ar  228  TYR228      0.0417
    128  CE2      -28.0360  -20.8860   56.5250 C.ar  228  TYR228      0.0417
    129  CZ       -27.8620  -19.5270   56.4970 C.ar  228  TYR228      0.1957
    130  OH       -26.8770  -18.9480   57.2750 O.3   228  TYR228     -0.2866
    131  N        -33.8750  -20.6930   53.0250 N.am  229  CYS229     -0.1968
    132  CA       -34.9170  -20.9410   52.0480 C.3   229  CYS229      0.1712
    133  C        -34.2650  -21.4030   50.7690 C.2   229  CYS229      0.2296
    134  O        -33.8170  -20.5890   49.9490 O.2   229  CYS229     -0.2864
    135  CB       -35.7700  -19.6910   51.8510 C.3   229  CYS229      0.0983
    136  SG       -36.8120  -19.4310   53.3130 S.3   229  CYS229     -0.0798
    137  N        -33.9860  -23.4650   47.2640 N.3   231  PHE231     -0.1241
    138  CA       -34.8300  -23.6630   46.1050 C.3   231  PHE231      0.1605
    139  C        -34.7180  -25.1170   45.6550 C.2   231  PHE231      0.2264
    140  O        -33.6250  -25.6960   45.7030 O.2   231  PHE231     -0.2867
    141  CB       -34.3380  -22.6980   45.0160 C.3   231  PHE231      0.0534
    142  CG       -35.3430  -22.3850   43.9640 C.ar  231  PHE231     -0.0203
    143  CD1      -35.4530  -23.1950   42.8630 C.ar  231  PHE231     -0.0042
    144  CD2      -36.1070  -21.2280   44.0310 C.ar  231  PHE231     -0.0042
    145  CE1      -36.3630  -22.9100   41.8650 C.ar  231  PHE231     -0.0003
    146  CE2      -37.0080  -20.9170   43.0210 C.ar  231  PHE231     -0.0003
    147  CZ       -37.1330  -21.7680   41.9380 C.ar  231  PHE231     -0.0000
    148  N        -27.8450  -22.8760   48.4120 N.3   273  ILE273     -0.1231
    149  CA       -29.1570  -22.2610   48.5810 C.3   273  ILE273      0.1692
    150  C        -30.0310  -22.3000   47.3380 C.2   273  ILE273      0.2592
    151  O        -31.2690  -22.1730   47.4170 O.2   273  ILE273     -0.2718
    152  CB       -29.0290  -20.8150   49.0940 C.3   273  ILE273      0.0266
    153  CG1      -30.3660  -20.3660   49.6930 C.3   273  ILE273      0.0019
    154  CG2      -28.6100  -19.8610   47.9910 C.3   273  ILE273      0.0020
    155  CD1      -30.2950  -19.1120   50.5190 C.3   273  ILE273      0.0001
    156  N        -29.4230  -22.4520   46.1750 N.am  274  SER274     -0.1952
    157  CA       -30.2140  -22.4390   44.9400 C.3   274  SER274      0.1924
    158  C        -29.6980  -23.4570   43.9620 C.2   274  SER274      0.2314
    159  O        -28.4840  -23.7120   43.8640 O.2   274  SER274     -0.2863
    160  CB       -30.2140  -21.0300   44.3150 C.3   274  SER274      0.2116
    161  OG       -30.8820  -20.9530   43.0510 O.3   274  SER274     -0.2180
    162  N        -23.5740  -20.1040   49.5610 N.3   289  LEU289     -0.1245
    163  CA       -23.4660  -18.9300   50.4050 C.3   289  LEU289      0.1561
    164  C        -22.0160  -18.5020   50.5960 C.2   289  LEU289      0.2260
    165  O        -21.1130  -19.0230   49.9400 O.2   289  LEU289     -0.2867
    166  CB       -24.1850  -19.1820   51.7500 C.3   289  LEU289      0.0270
    167  CG       -25.6860  -19.4610   51.6080 C.3   289  LEU289      0.0019
    168  CD1      -26.3220  -19.5250   52.9890 C.3   289  LEU289      0.0001
    169  CD2      -26.3350  -18.3740   50.7600 C.3   289  LEU289      0.0001
@<TRIPOS>BOND
     1    15    14    2
     2    14    13    1
     3   145   147   ar
     4   145   143   ar
     5   147   146   ar
     6    44    43    2
     7    43    42    1
     8    17    16    1
     9    47    46   ar
    10    34    32    1
    11   143   142   ar
    12    16    13    1
    13   146   144   ar
    14    13    12    1
    15   161   160    1
    16    46    48   ar
    17    46    45    1
    18    33    31    1
    19    42    45    1
    20    42    41    1
    21   159   158    2
    22    32    31    1
    23   158   157    1
    24   142   144   ar
    25   142   141    1
    26    12     8   am
    27    31    28    1
    28   160   157    1
    29    70    71    2
    30    70    69    1
    31    41    37   am
    32   157   156    1
    33   141   138    1
    34     8     9    2
    35     8     7    1
    36    69    72    1
    37    69    68    1
    38    11    10    1
    39   139   140    2
    40   139   138    1
    41    37    38    2
    42    37    36    1
    43    28    29    1
    44    28    27    1
    45     6     7    1
    46    72    73    1
    47   138   137    1
    48   156   150   am
    49    29    30    2
    50    29    35   am
    51     7    10    1
    52    35    36    1
    53    68    59   am
    54    27    25   am
    55    36    39    1
    56    60    59    2
    57     4     3    2
    58    18    19    1
    59    59    58    1
    60   150   151    2
    61   150   149    1
    62    25    26    2
    63    25    24    1
    64     3     2    1
    65    39    40    1
    66   154   152    1
    67    20    19    1
    68    20    21    2
    69    24    23    1
    70    19    22    1
    71   148   149    1
    72    57    58    1
    73    58    61    1
    74   149   152    1
    75    49    50    1
    76    95    94    2
    77     2     1    1
    78     2     5    1
    79   152   153    1
    80    94    93    1
    81   162   163    1
    82   153   155    1
    83    61    62    1
    84   165   164    2
    85   134   133    2
    86    50    51    1
    87    50    53    1
    88    51    52    2
    89   163   164    1
    90   163   166    1
    91   169   167    1
    92   133   132    1
    93    93    92    1
    94    93    96    1
    95    53    54    1
    96    62    63   ar
    97    62    64   ar
    98    55    54   ar
    99    54    56   ar
   100    63    65   ar
   101    97    96    1
   102   167   166    1
   103   167   168    1
   104   135   132    1
   105   135   136    1
   106   132   131    1
   107    64    66   ar
   108    65    67   ar
   109    74    75    1
   110   131   121   am
   111    66    67   ar
   112   121   122    2
   113   121   120    1
   114   123   120    1
   115   123   124    1
   116    75    78    1
   117    75    76    1
   118    87    88    2
   119    87    86    1
   120   120   119    1
   121    78    79    1
   122    76    77    2
   123   124   125   ar
   124   124   126   ar
   125   125   127   ar
   126    86    89    1
   127    86    85    1
   128   127   129   ar
   129   126   128   ar
   130    89    90    1
   131    98    99    1
   132   119   112   am
   133   106   104   ar
   134   106   108   ar
   135    79    81   ar
   136    79    80   ar
   137   104   103   ar
   138   129   128   ar
   139   129   130    1
   140    85    91    1
   141    81    83   ar
   142   109   108    1
   143   112   113    2
   144   112   111    1
   145   108   107   ar
   146    80    82   ar
   147    99   102    1
   148    99   100    1
   149    90    91    1
   150   103   102    1
   151   103   105   ar
   152   110   111    1
   153    83    84   ar
   154   100   101    2
   155   111   114    1
   156   107   105   ar
   157    82    84   ar
   158   114   115    1
   159   115   116    1
   160   116   117    1
   161   117   118    1
