@<TRIPOS>MOLECULE
tmp/4ql8A00.pdb
 178 166 0 0 0
SMALL
GASTEIGER

@<TRIPOS>ATOM
      1  N         32.1770    0.2220   -3.3940 N.3    31  LEU31      -0.1245
      2  CA        32.1550   -0.0390   -1.9560 C.3    31  LEU31       0.1561
      3  C         33.3160    0.6110   -1.2090 C.2    31  LEU31       0.2260
      4  O         33.1850    0.9220   -0.0250 O.2    31  LEU31      -0.2867
      5  CB        32.0930   -1.5410   -1.6710 C.3    31  LEU31       0.0270
      6  CG        30.6810   -2.1070   -1.8690 C.3    31  LEU31       0.0019
      7  CD1       30.4350   -2.4980   -3.3120 C.3    31  LEU31       0.0001
      8  CD2       30.4490   -3.2870   -0.9700 C.3    31  LEU31       0.0001
      9  N         31.7860    3.8960   -0.7250 N.3    34  LEU34      -0.1231
     10  CA        30.8220    3.7770    0.3750 C.3    34  LEU34       0.1693
     11  C         31.5430    3.7420    1.7200 C.2    34  LEU34       0.2592
     12  O         31.1080    4.3810    2.6760 O.2    34  LEU34      -0.2718
     13  CB        29.9500    2.5240    0.2250 C.3    34  LEU34       0.0284
     14  CG        28.7820    2.5960   -0.7630 C.3    34  LEU34       0.0019
     15  CD1       28.1940    1.2080   -0.9890 C.3    34  LEU34       0.0001
     16  CD2       27.7080    3.5630   -0.2770 C.3    34  LEU34       0.0001
     17  N         32.6420    2.9920    1.7840 N.am   35  ASN35      -0.1974
     18  CA        33.4720    2.9400    2.9880 C.3    35  ASN35       0.1688
     19  C         34.0810    4.3000    3.3190 C.2    35  ASN35       0.2292
     20  O         34.1110    4.7070    4.4780 O.2    35  ASN35      -0.2864
     21  CB        34.5860    1.8940    2.8410 C.3    35  ASN35       0.1181
     22  CG        34.0740    0.4630    2.9410 C.2    35  ASN35       0.2629
     23  OD1       34.8170   -0.4870    2.6930 O.2    35  ASN35      -0.2716
     24  ND2       32.8070    0.3030    3.3040 N.am   35  ASN35      -0.0877
     25  N         32.8400    7.2090    2.3290 N.3    37  LEU37      -0.1231
     26  CA        31.6950    8.0290    2.7250 C.3    37  LEU37       0.1693
     27  C         31.2710    7.7270    4.1620 C.2    37  LEU37       0.2592
     28  O         30.9110    8.6360    4.9120 O.2    37  LEU37      -0.2718
     29  CB        30.5170    7.8000    1.7730 C.3    37  LEU37       0.0284
     30  CG        29.2410    8.6040    2.0440 C.3    37  LEU37       0.0019
     31  CD1       29.5050   10.1010    1.9710 C.3    37  LEU37       0.0001
     32  CD2       28.1540    8.2060    1.0630 C.3    37  LEU37       0.0001
     33  N         31.3100    6.4500    4.5380 N.am   38  GLY38      -0.1957
     34  CA        31.0090    6.0390    5.9070 C.3    38  GLY38       0.1869
     35  C         31.9570    6.6580    6.9210 C.2    38  GLY38       0.2309
     36  O         31.5410    7.0270    8.0200 O.2    38  GLY38      -0.2863
     37  N         30.9630   10.4660    6.9550 N.3    41  GLN41      -0.1245
     38  CA        29.6870   10.5880    7.6650 C.3    41  GLN41       0.1566
     39  C         29.8370   10.3780    9.1740 C.2    41  GLN41       0.2260
     40  O         29.1840   11.0590    9.9640 O.2    41  GLN41      -0.2867
     41  CB        28.6510    9.6060    7.1010 C.3    41  GLN41       0.0367
     42  CG        27.9930   10.0680    5.8010 C.3    41  GLN41       0.0905
     43  CD        27.0550   11.2530    5.9930 C.2    41  GLN41       0.2608
     44  OE1       26.8490   11.7300    7.1100 O.2    41  GLN41      -0.2717
     45  NE2       26.4800   11.7330    4.8940 N.am   41  GLN41      -0.0878
     46  N         25.5600    4.3230   14.6030 N.3    71  TRP71      -0.1227
     47  CA        26.1600    4.9160   13.4020 C.3    71  TRP71       0.1737
     48  C         25.5320    4.4540   12.0790 C.2    71  TRP71       0.2595
     49  O         25.1490    5.2830   11.2530 O.2    71  TRP71      -0.2718
     50  CB        27.6720    4.6520   13.4140 C.3    71  TRP71       0.0564
     51  CG        28.3720    4.8610   12.1130 C.ar   71  TRP71       0.0003
     52  CD1       28.4550    6.0200   11.3950 C.ar   71  TRP71       0.0946
     53  CD2       29.1180    3.8820   11.3840 C.ar   71  TRP71       0.0152
     54  NE1       29.1990    5.8180   10.2560 N.ar   71  TRP71      -0.2442
     55  CE2       29.6170    4.5140   10.2260 C.ar   71  TRP71       0.0810
     56  CE3       29.4080    2.5290   11.5960 C.ar   71  TRP71       0.0012
     57  CZ2       30.3900    3.8370    9.2810 C.ar   71  TRP71       0.0191
     58  CZ3       30.1760    1.8570   10.6560 C.ar   71  TRP71       0.0001
     59  CH2       30.6590    2.5130    9.5140 C.ar   71  TRP71       0.0015
     60  N         25.4160    3.1420   11.8890 N.am   72  MET72      -0.1979
     61  CA        24.8820    2.5850   10.6410 C.3    72  MET72       0.1605
     62  C         23.4130    2.9650   10.4320 C.2    72  MET72       0.2287
     63  O         23.0330    3.4080    9.3470 O.2    72  MET72      -0.2864
     64  CB        25.0440    1.0590   10.6160 C.3    72  MET72       0.0413
     65  CG        24.6040    0.3860    9.3120 C.3    72  MET72       0.0598
     66  SD        25.5680    0.8790    7.8660 S.3    72  MET72      -0.1393
     67  CE        27.0960   -0.0090    8.1560 C.3    72  MET72       0.0692
     68  N         23.0450    6.6530    9.5390 N.3    75  MET75      -0.1230
     69  CA        23.4260    6.8710    8.1390 C.3    75  MET75       0.1702
     70  C         22.3130    6.4490    7.1810 C.2    75  MET75       0.2592
     71  O         21.9830    7.1810    6.2480 O.2    75  MET75      -0.2718
     72  CB        24.7130    6.1130    7.7900 C.3    75  MET75       0.0401
     73  CG        25.9900    6.7720    8.2900 C.3    75  MET75       0.0596
     74  SD        27.4560    6.1840    7.4170 S.3    75  MET75      -0.1393
     75  CE        27.3310    4.4170    7.6720 C.3    75  MET75       0.0692
     76  N         21.7390    5.2730    7.4280 N.am   76  VAL76      -0.1980
     77  CA        20.6610    4.7290    6.5950 C.3    76  VAL76       0.1595
     78  C         19.4180    5.6220    6.6120 C.2    76  VAL76       0.2287
     79  O         18.8120    5.8690    5.5680 O.2    76  VAL76      -0.2864
     80  CB        20.2690    3.2950    7.0460 C.3    76  VAL76       0.0276
     81  CG1       18.9850    2.8220    6.3560 C.3    76  VAL76       0.0022
     82  CG2       21.4040    2.3190    6.7680 C.3    76  VAL76       0.0022
     83  N         20.0500    8.9370    4.8270 N.3    79  MET79      -0.1245
     84  CA        20.2060    8.6510    3.3980 C.3    79  MET79       0.1570
     85  C         18.8480    8.4360    2.7320 C.2    79  MET79       0.2261
     86  O         18.6160    8.9140    1.6200 O.2    79  MET79      -0.2867
     87  CB        21.1080    7.4280    3.1940 C.3    79  MET79       0.0387
     88  CG        21.4700    7.1400    1.7410 C.3    79  MET79       0.0595
     89  SD        20.2190    6.2090    0.8360 S.3    79  MET79      -0.1393
     90  CE        20.3490    4.6050    1.6180 C.3    79  MET79       0.0692
     91  N         17.3440   11.9450    2.3810 N.3    82  ARG82      -0.1245
     92  CA        18.0290   12.5010    1.2080 C.3    82  ARG82       0.1563
     93  C         17.4260   11.9780   -0.0850 C.2    82  ARG82       0.2260
     94  O         17.0800   12.7050   -0.9280 O.2    82  ARG82      -0.2867
     95  CB        19.5490   12.1880    1.2090 C.3    82  ARG82       0.0307
     96  CG        20.3580   13.0080    2.1560 C.3    82  ARG82       0.0489
     97  CD        21.8000   13.0370    1.8170 C.3    82  ARG82       0.2205
     98  NE        22.4650   11.7810    1.8860 N.pl3  82  ARG82      -0.0865
     99  CZ        22.7760   11.1420    2.9990 C.cat  82  ARG82       0.5346
    100  NH1       22.4840   11.6430    4.1730 N.pl3  82  ARG82       0.1354
    101  NH2       23.4040   10.0080    2.9170 N.pl3  82  ARG82       0.1354
    102  N         23.1560    8.3810   -1.5420 N.3    94  PHE94      -0.1241
    103  CA        24.1980    8.2800   -0.5120 C.3    94  PHE94       0.1605
    104  C         24.9680    9.5970   -0.4140 C.2    94  PHE94       0.2264
    105  O         25.2860   10.0670    0.6780 O.2    94  PHE94      -0.2867
    106  CB        25.1710    7.1340   -0.8110 C.3    94  PHE94       0.0534
    107  CG        24.5610    5.7640   -0.6920 C.ar   94  PHE94      -0.0203
    108  CD1       24.0830    5.1000   -1.8150 C.ar   94  PHE94      -0.0042
    109  CD2       24.4770    5.1330    0.5420 C.ar   94  PHE94      -0.0042
    110  CE1       23.5250    3.8300   -1.7070 C.ar   94  PHE94      -0.0003
    111  CE2       23.9200    3.8660    0.6590 C.ar   94  PHE94      -0.0003
    112  CZ        23.4430    3.2130   -0.4680 C.ar   94  PHE94      -0.0000
    113  N         24.6330   -5.5590   -3.0310 N.3   110  MET110     -0.1245
    114  CA        23.8000   -5.2220   -1.8790 C.3   110  MET110      0.1570
    115  C         22.3720   -4.9560   -2.3370 C.2   110  MET110      0.2261
    116  O         21.6740   -4.1330   -1.7410 O.2   110  MET110     -0.2867
    117  CB        24.3090   -3.9520   -1.1970 C.3   110  MET110      0.0387
    118  CG        25.6850   -4.0290   -0.5920 C.3   110  MET110      0.0595
    119  SD        26.2620   -2.3950   -0.0780 S.3   110  MET110     -0.1393
    120  CE        24.8200   -1.7310    0.7510 C.3   110  MET110      0.0692
    121  N         16.1870   -0.1840    1.6510 N.3   117  MET117     -0.1245
    122  CA        16.4900    1.2260    1.9050 C.3   117  MET117      0.1570
    123  C         15.7030    2.1390    0.9630 C.2   117  MET117      0.2261
    124  O         15.3600    3.2640    1.3310 O.2   117  MET117     -0.2867
    125  CB        17.9940    1.4940    1.7820 C.3   117  MET117      0.0387
    126  CG        18.8180    0.8160    2.8670 C.3   117  MET117      0.0595
    127  SD        20.5800    1.1820    2.7980 S.3   117  MET117     -0.1393
    128  CE        21.1120    0.1630    1.4260 C.3   117  MET117      0.0692
    129  N         23.1880   -4.6480    6.7800 N.3   196  LEU196     -0.1245
    130  CA        24.3520   -3.8640    6.3650 C.3   196  LEU196      0.1561
    131  C         25.5600   -4.1370    7.2630 C.2   196  LEU196      0.2260
    132  O         26.6890   -4.2200    6.7760 O.2   196  LEU196     -0.2867
    133  CB        24.0240   -2.3700    6.3700 C.3   196  LEU196      0.0270
    134  CG        22.9930   -1.9260    5.3290 C.3   196  LEU196      0.0019
    135  CD1       22.4290   -0.5660    5.6840 C.3   196  LEU196      0.0001
    136  CD2       23.5940   -1.9110    3.9300 C.3   196  LEU196      0.0001
    137  N         26.8970   -7.4670    6.1990 N.3   199  PHE199     -0.1227
    138  CA        27.5080   -7.3640    4.8790 C.3   199  PHE199      0.1736
    139  C         28.8720   -6.6680    4.9190 C.2   199  PHE199      0.2596
    140  O         29.8300   -7.1490    4.3130 O.2   199  PHE199     -0.2718
    141  CB        26.5700   -6.6370    3.9140 C.3   199  PHE199      0.0547
    142  CG        27.1090   -6.5230    2.5220 C.ar  199  PHE199     -0.0202
    143  CD1       27.8440   -5.4110    2.1470 C.ar  199  PHE199     -0.0042
    144  CD2       26.8930   -7.5280    1.5900 C.ar  199  PHE199     -0.0042
    145  CE1       28.3520   -5.2950    0.8700 C.ar  199  PHE199     -0.0003
    146  CE2       27.3990   -7.4200    0.2990 C.ar  199  PHE199     -0.0003
    147  CZ        28.1310   -6.2990   -0.0610 C.ar  199  PHE199     -0.0000
    148  N         28.9560   -5.5410    5.6250 N.am  200  THR200     -0.1953
    149  CA        30.2180   -4.8050    5.7420 C.3   200  THR200      0.1897
    150  C         31.2450   -5.5610    6.5950 C.2   200  THR200      0.2313
    151  O         32.4500   -5.4410    6.3690 O.2   200  THR200     -0.2863
    152  CB        30.0110   -3.3700    6.2980 C.3   200  THR200      0.1794
    153  OG1       31.1860   -2.5870    6.0530 O.3   200  THR200     -0.2208
    154  CG2       29.7110   -3.3770    7.7920 C.3   200  THR200      0.0378
    155  N         32.6630   -8.2110    4.2960 N.3   203  LEU203     -0.1245
    156  CA        33.5000   -7.5170    3.3240 C.3   203  LEU203      0.1561
    157  C         34.8500   -7.1150    3.9190 C.2   203  LEU203      0.2260
    158  O         35.8680   -7.1710    3.2330 O.2   203  LEU203     -0.2867
    159  CB        32.7710   -6.2840    2.7870 C.3   203  LEU203      0.0270
    160  CG        33.4220   -5.5620    1.6060 C.3   203  LEU203      0.0019
    161  CD1       33.5390   -6.4890    0.4010 C.3   203  LEU203      0.0001
    162  CD2       32.6190   -4.3220    1.2660 C.3   203  LEU203      0.0001
    163  N         36.9630    3.1620   10.2670 N.3   218  MET218     -0.1245
    164  CA        36.0410    2.1070    9.7860 C.3   218  MET218      0.1570
    165  C         36.4050    0.7090   10.2080 C.2   218  MET218      0.2261
    166  O         35.5730    0.0360   10.7170 O.2   218  MET218     -0.2867
    167  CB        35.8130    2.0980    8.2210 C.3   218  MET218      0.0387
    168  CG        35.2660    3.3580    7.6990 C.3   218  MET218      0.0595
    169  SD        33.5680    3.6410    8.1640 S.3   218  MET218     -0.1393
    170  CE        33.6570    4.8630    9.4640 C.3   218  MET218      0.0692
    171  N         33.9750   -1.6290   12.8370 N.3   222  ILE222     -0.1245
    172  CA        33.4110   -2.8460   12.2510 C.3   222  ILE222      0.1561
    173  C         34.0570   -4.1150   12.8300 C.2   222  ILE222      0.2260
    174  O         33.4490   -5.1850   12.8010 O.2   222  ILE222     -0.2867
    175  CB        33.5000   -2.8210   10.6990 C.3   222  ILE222      0.0252
    176  CG1       32.6340   -1.6830   10.1490 C.3   222  ILE222      0.0019
    177  CG2       33.0480   -4.1610   10.0950 C.3   222  ILE222      0.0019
    178  CD1       32.9050   -1.3350    8.7010 C.3   222  ILE222      0.0001
@<TRIPOS>BOND
     1     1     2    1
     2     7     6    1
     3   113   114    1
     4   115   114    1
     5   115   116    2
     6     2     5    1
     7     2     3    1
     8   114   117    1
     9     6     5    1
    10     6     8    1
    11   108   110   ar
    12   108   107   ar
    13   110   112   ar
    14   102   103    1
    15     3     4    2
    16   117   118    1
    17    15    14    1
    18    94    93    2
    19   106   107    1
    20   106   103    1
    21    14    16    1
    22    14    13    1
    23     9    10    1
    24   107   109   ar
    25   118   119    1
    26   103   104    1
    27   112   111   ar
    28   104   105    2
    29    93    92    1
    30   119   120    1
    31   147   146   ar
    32   147   145   ar
    33    13    10    1
    34   146   144   ar
    35    10    11    1
    36   161   160    1
    37   109   111   ar
    38    89    90    1
    39    89    88    1
    40   145   143   ar
    41   123   124    2
    42   123   122    1
    43    32    30    1
    44    92    95    1
    45    92    91    1
    46    95    96    1
    47   162   160    1
    48   128   127    1
    49   144   142   ar
    50   160   159    1
    51    86    85    2
    52   121   122    1
    53    11    17   am
    54    11    12    2
    55    88    87    1
    56    29    30    1
    57    29    26    1
    58   125   122    1
    59   125   126    1
    60    17    18    1
    61    97    98    1
    62    97    96    1
    63    98    99    2
    64    31    30    1
    65   143   142   ar
    66    25    26    1
    67   142   141    1
    68    23    22    2
    69    26    27    1
    70    85    84    1
    71   159   156    1
    72   127   126    1
    73    21    22    1
    74    21    18    1
    75   101    99    1
    76    22    24   am
    77    18    19    1
    78    99   100    1
    79    87    84    1
    80   158   157    2
    81    19    20    2
    82   156   157    1
    83   156   155    1
    84    84    83    1
    85   141   138    1
    86   136   134    1
    87    27    33   am
    88    27    28    2
    89   140   139    2
    90    33    34    1
    91   138   139    1
    92   138   137    1
    93    45    43   am
    94   139   148   am
    95   134   135    1
    96   134   133    1
    97    79    78    2
    98   148   149    1
    99   149   152    1
   100   149   150    1
   101    42    43    1
   102    42    41    1
   103    34    35    1
   104    43    44    2
   105   153   152    1
   106    71    70    2
   107   152   154    1
   108    81    80    1
   109   130   133    1
   110   130   129    1
   111   130   131    1
   112   151   150    2
   113    77    78    1
   114    77    80    1
   115    77    76    1
   116    82    80    1
   117   132   131    2
   118    35    36    2
   119    37    38    1
   120    41    38    1
   121    70    76   am
   122    70    69    1
   123    74    75    1
   124    74    73    1
   125    38    39    1
   126   168   169    1
   127   168   167    1
   128    72    69    1
   129    72    73    1
   130    66    67    1
   131    66    65    1
   132    69    68    1
   133   169   170    1
   134   167   164    1
   135   178   176    1
   136    39    40    2
   137    57    59   ar
   138    57    55   ar
   139    65    64    1
   140    63    62    2
   141    59    58   ar
   142   164   165    1
   143   164   163    1
   144   177   175    1
   145   176   175    1
   146   165   166    2
   147    55    54   ar
   148    55    53   ar
   149    54    52   ar
   150    62    61    1
   151    64    61    1
   152    61    60    1
   153    58    56   ar
   154   175   172    1
   155    49    48    2
   156    53    56   ar
   157    53    51   ar
   158    52    51   ar
   159    60    48   am
   160    48    47    1
   161    51    50    1
   162   172   173    1
   163   172   171    1
   164   174   173    2
   165    47    50    1
   166    47    46    1
