@<TRIPOS>MOLECULE
tmp/4qlaA00.pdb
 74 70 0 0 0
SMALL
GASTEIGER

@<TRIPOS>ATOM
      1  N          1.6200  -19.8120  -14.3220 N.3   261  LEU261     -0.1245
      2  CA         0.4530  -20.2630  -15.0780 C.3   261  LEU261      0.1561
      3  C          0.4580  -19.7340  -16.5070 C.2   261  LEU261      0.2260
      4  O          0.1110  -20.4510  -17.4430 O.2   261  LEU261     -0.2867
      5  CB        -0.8460  -19.8250  -14.3980 C.3   261  LEU261      0.0270
      6  CG        -1.6310  -20.7880  -13.5060 C.3   261  LEU261      0.0019
      7  CD1       -3.0040  -20.1860  -13.2480 C.3   261  LEU261      0.0001
      8  CD2       -1.7730  -22.1770  -14.1210 C.3   261  LEU261      0.0001
      9  N          3.8130  -21.5870  -18.6120 N.3   264  LEU264     -0.1245
     10  CA         4.1210  -23.0220  -18.6410 C.3   264  LEU264      0.1561
     11  C          3.3230  -23.8260  -19.6710 C.2   264  LEU264      0.2260
     12  O          3.3060  -25.0550  -19.6240 O.2   264  LEU264     -0.2867
     13  CB         3.9900  -23.6360  -17.2400 C.3   264  LEU264      0.0270
     14  CG         5.0170  -23.1540  -16.2070 C.3   264  LEU264      0.0019
     15  CD1        4.7630  -23.7920  -14.8410 C.3   264  LEU264      0.0001
     16  CD2        6.4550  -23.3850  -16.6730 C.3   264  LEU264      0.0001
     17  N          5.4250  -26.1920  -21.7640 N.3   267  MET267     -0.1230
     18  CA         5.8710  -27.3040  -20.9170 C.3   267  MET267      0.1702
     19  C          4.7640  -28.3440  -20.7150 C.2   267  MET267      0.2592
     20  O          5.0100  -29.5520  -20.7970 O.2   267  MET267     -0.2718
     21  CB         6.3930  -26.7630  -19.5740 C.3   267  MET267      0.0401
     22  CG         6.5340  -27.7820  -18.4570 C.3   267  MET267      0.0596
     23  SD         7.6530  -27.2050  -17.1660 S.3   267  MET267     -0.1393
     24  CE         6.6640  -27.4960  -15.7030 C.3   267  MET267      0.0692
     25  N          3.5530  -27.8560  -20.4730 N.am  268  HIS268     -0.1976
     26  CA         2.3770  -28.7030  -20.3340 C.3   268  HIS268      0.1656
     27  C          2.1740  -29.5360  -21.5890 C.2   268  HIS268      0.2291
     28  O          2.0530  -30.7580  -21.5000 O.2   268  HIS268     -0.2864
     29  CB         1.1350  -27.8380  -20.0100 C.3   268  HIS268      0.0771
     30  CG        -0.0020  -28.6440  -19.4560 C.ar  268  HIS268      0.0820
     31  ND1       -1.0660  -28.1440  -18.7220 N.ar  268  HIS268     -0.2267
     32  CD2       -0.2110  -29.9730  -19.5550 C.ar  268  HIS268      0.1154
     33  CE1       -1.8750  -29.1440  -18.4020 C.ar  268  HIS268      0.1986
     34  NE2       -1.3760  -30.2610  -18.8960 N.ar  268  HIS268     -0.2212
     35  N          5.1690  -32.0710  -22.3150 N.3   271  ALA271     -0.1231
     36  CA         5.2120  -33.1670  -21.3530 C.3   271  ALA271      0.1694
     37  C          4.1350  -34.2180  -21.6180 C.2   271  ALA271      0.2592
     38  O          4.2190  -35.3320  -21.1100 O.2   271  ALA271     -0.2718
     39  CB         5.0890  -32.6330  -19.9290 C.3   271  ALA271      0.0304
     40  N          3.1220  -33.8660  -22.4050 N.am  272  THR272     -0.1953
     41  CA         2.0110  -34.7870  -22.6650 C.3   272  THR272      0.1897
     42  C          1.9050  -35.2050  -24.1250 C.2   272  THR272      0.2313
     43  O          1.7920  -36.3940  -24.4160 O.2   272  THR272     -0.2863
     44  CB         0.6590  -34.2130  -22.1940 C.3   272  THR272      0.1794
     45  OG1        0.4720  -32.9130  -22.7630 O.3   272  THR272     -0.2208
     46  CG2        0.6090  -34.1110  -20.6630 C.3   272  THR272      0.0378
     47  N          8.2670  -35.1050  -21.9310 N.3   342  ALA342     -0.1245
     48  CA         7.3410  -36.2250  -21.7110 C.3   342  ALA342      0.1562
     49  C          7.9520  -37.3070  -20.8180 C.2   342  ALA342      0.2260
     50  O          7.3050  -37.7860  -19.8880 O.2   342  ALA342     -0.2867
     51  CB         6.8510  -36.8180  -23.0240 C.3   342  ALA342      0.0290
     52  N          8.4680  -36.1220  -17.0170 N.3   345  PHE345     -0.1227
     53  CA         7.2280  -35.9750  -16.2530 C.3   345  PHE345      0.1736
     54  C          6.5110  -37.2920  -15.9870 C.2   345  PHE345      0.2596
     55  O          5.4520  -37.3050  -15.3660 O.2   345  PHE345     -0.2718
     56  CB         6.2970  -34.9610  -16.9160 C.3   345  PHE345      0.0547
     57  CG         6.6300  -33.5390  -16.5760 C.ar  345  PHE345     -0.0202
     58  CD1        7.6450  -32.8660  -17.2510 C.ar  345  PHE345     -0.0042
     59  CD2        5.9450  -32.8770  -15.5660 C.ar  345  PHE345     -0.0042
     60  CE1        7.9630  -31.5560  -16.9360 C.ar  345  PHE345     -0.0003
     61  CE2        6.2590  -31.5650  -15.2420 C.ar  345  PHE345     -0.0003
     62  CZ         7.2710  -30.9070  -15.9280 C.ar  345  PHE345     -0.0000
     63  N          7.1010  -38.3960  -16.4420 N.am  346  SER346     -0.1938
     64  CA         6.5970  -39.7420  -16.1570 C.3   346  SER346      0.2055
     65  C          6.4210  -40.0070  -14.6670 C.2   346  SER346      0.2643
     66  O          7.0860  -39.3940  -13.8220 O.2   346  SER346     -0.2714
     67  CB         7.5330  -40.8070  -16.7320 C.3   346  SER346      0.2130
     68  OG         7.1890  -41.1220  -18.0650 O.3   346  SER346     -0.2179
     69  N          5.5180  -40.9350  -14.3610 N.am  347  SER347     -0.1949
     70  CA         5.3190  -41.4040  -12.9990 C.3   347  SER347      0.1924
     71  C          6.5930  -42.0840  -12.5000 C.2   347  SER347      0.2314
     72  O          7.0380  -41.8390  -11.3790 O.2   347  SER347     -0.2863
     73  CB         4.1280  -42.3630  -12.9450 C.3   347  SER347      0.2116
     74  OG         2.9930  -41.7770  -13.5580 O.3   347  SER347     -0.2180
@<TRIPOS>BOND
     1    43    42    2
     2    42    41    1
     3    51    48    1
     4    45    44    1
     5    41    40    1
     6    41    44    1
     7    40    37   am
     8    35    36    1
     9    44    46    1
    10    47    48    1
    11    17    18    1
    12    48    49    1
    13    37    36    1
    14    37    38    2
    15    27    28    2
    16    27    26    1
    17    36    39    1
    18    18    19    1
    19    18    21    1
    20    49    50    2
    21    20    19    2
    22    19    25   am
    23    25    26    1
    24    26    29    1
    25    29    30    1
    26    11    12    2
    27    11    10    1
    28    21    22    1
    29    32    30   ar
    30    32    34   ar
    31    30    31   ar
    32    34    33   ar
    33    31    33   ar
    34    10     9    1
    35    10    13    1
    36    22    23    1
    37    68    67    1
    38     4     3    2
    39    58    60   ar
    40    58    57   ar
    41    13    14    1
    42    23    24    1
    43    52    53    1
    44    60    62   ar
    45    56    57    1
    46    56    53    1
    47    67    64    1
    48    16    14    1
    49    57    59   ar
    50     3     2    1
    51    63    64    1
    52    63    54   am
    53    53    54    1
    54    14    15    1
    55    64    65    1
    56    54    55    2
    57    62    61   ar
    58    59    61   ar
    59     2     5    1
    60     2     1    1
    61    65    69   am
    62    65    66    2
    63     5     6    1
    64    69    70    1
    65     8     6    1
    66    74    73    1
    67     6     7    1
    68    70    73    1
    69    70    71    1
    70    71    72    2
