@<TRIPOS>MOLECULE
tmp/4qlfA01.pdb
 128 124 0 0 0
SMALL
GASTEIGER

@<TRIPOS>ATOM
      1  N         -6.4040  -16.5520   28.3550 N.3    43  GLY43      -0.1210
      2  CA        -5.8110  -16.1780   29.6220 C.3    43  GLY43       0.1956
      3  C         -6.6420  -15.1400   30.3460 C.2    43  GLY43       0.2612
      4  O         -7.5090  -14.4600   29.7820 O.2    43  GLY43      -0.2717
      5  N         -6.3820  -14.9670   31.6520 N.am   44  ARG44      -0.1965
      6  CA        -7.2070  -14.0520   32.5010 C.3    44  ARG44       0.1729
      7  C         -7.1290  -12.6350   31.9710 C.2    44  ARG44       0.2616
      8  O         -8.1020  -11.9340   32.0180 O.2    44  ARG44      -0.2715
      9  CB        -6.7880  -14.1480   33.9620 C.3    44  ARG44       0.0348
     10  CG        -7.6300  -13.2150   34.8060 C.3    44  ARG44       0.0492
     11  CD        -7.3210  -13.2430   36.2700 C.3    44  ARG44       0.2205
     12  NE        -5.9410  -12.9280   36.6010 N.pl3  44  ARG44      -0.0865
     13  CZ        -5.4240  -11.7210   36.7810 C.cat  44  ARG44       0.5346
     14  NH1       -6.0420  -10.5660   36.6290 N.pl3  44  ARG44       0.1354
     15  NH2       -4.1430  -11.7040   37.1150 N.pl3  44  ARG44       0.1354
     16  N         -5.9550  -12.1770   31.5580 N.am   45  HIS45      -0.1959
     17  CA        -5.9190  -10.8060   31.0450 C.3    45  HIS45       0.1787
     18  C         -6.7150  -10.5430   29.7950 C.2    45  HIS45       0.2620
     19  O         -7.3290   -9.5280   29.6500 O.2    45  HIS45      -0.2715
     20  CB        -4.4630  -10.3660   30.9080 C.3    45  HIS45       0.0785
     21  CG        -3.7250  -10.4310   32.2050 C.ar   45  HIS45       0.0821
     22  ND1       -4.1620   -9.7550   33.3380 N.ar   45  HIS45      -0.2267
     23  CD2       -2.6020  -11.0950   32.5770 C.ar   45  HIS45       0.1154
     24  CE1       -3.3580  -10.0220   34.3520 C.ar   45  HIS45       0.1986
     25  NE2       -2.4040  -10.8350   33.9120 N.ar   45  HIS45      -0.2212
     26  N         -6.6750  -11.5020   28.8760 N.am   46  THR46      -0.1951
     27  CA        -7.5220  -11.4220   27.6860 C.3    46  THR46       0.1897
     28  C         -9.0300  -11.4040   28.0900 C.2    46  THR46       0.2313
     29  O         -9.8130  -10.5850   27.5640 O.2    46  THR46      -0.2863
     30  CB        -7.2230  -12.5690   26.7160 C.3    46  THR46       0.1794
     31  OG1       -5.9110  -12.3140   26.2040 O.3    46  THR46      -0.2208
     32  CG2       -8.1450  -12.6530   25.5340 C.3    46  THR46       0.0378
     33  N         -8.0860  -19.4320   31.7160 N.3    62  LEU62      -0.1231
     34  CA        -6.9470  -19.8900   32.5320 C.3    62  LEU62       0.1693
     35  C         -6.5510  -18.8680   33.5750 C.2    62  LEU62       0.2593
     36  O         -6.4350  -17.6850   33.2760 O.2    62  LEU62      -0.2718
     37  CB        -5.7670  -20.1010   31.6170 C.3    62  LEU62       0.0284
     38  CG        -5.7340  -21.3350   30.8480 C.3    62  LEU62       0.0019
     39  CD1       -4.8590  -21.2030   29.5860 C.3    62  LEU62       0.0001
     40  CD2       -5.0960  -22.4400   31.7360 C.3    62  LEU62       0.0001
     41  N         -6.4760  -19.3040   34.8290 N.am   63  SER63      -0.1938
     42  CA        -5.9840  -18.5050   35.9560 C.3    63  SER63       0.2055
     43  C         -5.5140  -19.4360   37.0110 C.2    63  SER63       0.2644
     44  O         -6.0270  -20.5030   37.2420 O.2    63  SER63      -0.2714
     45  CB        -7.0970  -17.5560   36.5220 C.3    63  SER63       0.2130
     46  OG        -6.6920  -16.8890   37.6880 O.3    63  SER63      -0.2179
     47  N         -4.3340  -19.0580   37.6090 N.am   64  SER64      -0.1935
     48  CA        -3.8740  -19.8010   38.7940 C.3    64  SER64       0.2055
     49  C         -4.7500  -19.7210   40.0510 C.2    64  SER64       0.2642
     50  O         -4.5690  -20.4850   40.9650 O.2    64  SER64      -0.2714
     51  CB        -2.4620  -19.2910   39.1930 C.3    64  SER64       0.2130
     52  OG        -2.4560  -17.9560   39.5860 O.3    64  SER64      -0.2179
     53  N         -5.6740  -18.7250   40.0670 N.am   65  GLN65      -0.1976
     54  CA        -6.4810  -18.4510   41.2120 C.3    65  GLN65       0.1601
     55  C         -7.8640  -18.8810   40.9920 C.2    65  GLN65       0.2287
     56  O         -8.2800  -19.0290   39.8590 O.2    65  GLN65      -0.2864
     57  CB        -6.4670  -16.9350   41.4830 C.3    65  GLN65       0.0394
     58  CG        -5.0530  -16.3830   41.7380 C.3    65  GLN65       0.0908
     59  CD        -4.3480  -17.0740   42.8500 C.2    65  GLN65       0.2608
     60  OE1       -4.8360  -17.1350   43.9960 O.2    65  GLN65      -0.2717
     61  NE2       -3.1660  -17.6710   42.5090 N.am   65  GLN65      -0.0878
     62  N         -7.0840  -24.1870   35.7980 N.3    76  LYS76      -0.1231
     63  CA        -5.7870  -23.8210   36.4260 C.3    76  LYS76       0.1693
     64  C         -4.6520  -24.4080   35.6890 C.2    76  LYS76       0.2593
     65  O         -3.5230  -24.1780   36.2030 O.2    76  LYS76      -0.2718
     66  CB        -5.7740  -24.1950   37.9330 C.3    76  LYS76       0.0285
     67  CG        -6.8790  -23.4410   38.7300 C.3    76  LYS76       0.0035
     68  CD        -6.7340  -23.6070   40.2330 C.3    76  LYS76       0.0206
     69  CE        -7.9480  -23.0900   40.9380 C.3    76  LYS76       0.1093
     70  NZ        -7.8450  -23.2670   42.3780 N.3    76  LYS76      -0.1314
     71  N         -4.8520  -25.0310   34.5300 N.am   77  SER77      -0.1938
     72  CA        -3.6630  -25.5020   33.7580 C.3    77  SER77       0.2055
     73  C         -4.0300  -25.6970   32.3170 C.2    77  SER77       0.2642
     74  O         -5.2350  -25.8780   31.9940 O.2    77  SER77      -0.2714
     75  CB        -3.1560  -26.8520   34.2700 C.3    77  SER77       0.2130
     76  OG        -4.0950  -27.9080   34.1250 O.3    77  SER77      -0.2179
     77  N         -3.0880  -25.8570   31.4310 N.am   78  VAL78      -0.1977
     78  CA        -3.3140  -26.1160   30.0660 C.3    78  VAL78       0.1596
     79  C         -4.0450  -27.4520   29.8880 C.2    78  VAL78       0.2287
     80  O         -5.0320  -27.5380   29.1230 O.2    78  VAL78      -0.2864
     81  CB        -1.9370  -26.1310   29.2680 C.3    78  VAL78       0.0276
     82  CG1       -2.0270  -26.8040   27.9300 C.3    78  VAL78       0.0022
     83  CG2       -1.4230  -24.7300   29.1970 C.3    78  VAL78       0.0022
     84  N         -3.8450  -14.5920   25.6390 N.3    96  GLY96      -0.1210
     85  CA        -2.9380  -13.7030   24.9970 C.3    96  GLY96       0.1956
     86  C         -1.6060  -14.3560   24.7330 C.2    96  GLY96       0.2612
     87  O         -1.4660  -15.5840   24.5690 O.2    96  GLY96      -0.2717
     88  N         -0.5720  -13.5310   24.8230 N.am   97  GLY97      -0.1942
     89  CA         0.7760  -13.9930   24.4980 C.3    97  GLY97       0.2014
     90  C          1.2650  -15.2120   25.2560 C.2    97  GLY97       0.2639
     91  O          1.8100  -16.1140   24.6180 O.2    97  GLY97      -0.2714
     92  N          1.1280  -15.2220   26.5800 N.am   98  ARG98      -0.1963
     93  CA         1.5470  -16.3830   27.3930 C.3    98  ARG98       0.1729
     94  C          0.7900  -17.6350   27.0460 C.2    98  ARG98       0.2616
     95  O          1.3350  -18.6900   26.9950 O.2    98  ARG98      -0.2715
     96  CB         1.3760  -16.0720   28.8810 C.3    98  ARG98       0.0348
     97  CG         1.9980  -17.1540   29.7700 C.3    98  ARG98       0.0492
     98  CD         1.6230  -17.0600   31.2190 C.3    98  ARG98       0.2205
     99  NE         0.1880  -17.0400   31.4370 N.pl3  98  ARG98      -0.0865
    100  CZ        -0.5100  -15.9430   31.7150 C.cat  98  ARG98       0.5346
    101  NH1        0.0790  -14.7580   31.9040 N.pl3  98  ARG98       0.1354
    102  NH2       -1.8460  -15.9650   31.7310 N.pl3  98  ARG98       0.1354
    103  N         -0.4890  -17.4350   26.7600 N.am   99  VAL99      -0.1977
    104  CA        -1.3420  -18.5620   26.3740 C.3    99  VAL99       0.1596
    105  C         -1.0310  -19.0570   24.9890 C.2    99  VAL99       0.2287
    106  O         -0.8580  -20.2400   24.7730 O.2    99  VAL99      -0.2864
    107  CB        -2.8080  -18.2220   26.5800 C.3    99  VAL99       0.0276
    108  CG1       -3.7340  -19.3280   26.0520 C.3    99  VAL99       0.0022
    109  CG2       -3.0350  -17.8600   28.0540 C.3    99  VAL99       0.0022
    110  N          2.0780  -21.3360   25.1390 N.3   102  GLN102     -0.1245
    111  CA         1.9140  -22.6470   25.6700 C.3   102  GLN102      0.1566
    112  C          1.2310  -23.5900   24.7580 C.2   102  GLN102      0.2260
    113  O          1.4970  -24.7930   24.7600 O.2   102  GLN102     -0.2867
    114  CB         1.1850  -22.5640   27.0000 C.3   102  GLN102      0.0367
    115  CG         1.8960  -21.8500   28.1270 C.3   102  GLN102      0.0905
    116  CD         0.9790  -21.5460   29.2920 C.2   102  GLN102      0.2608
    117  OE1        0.8380  -22.3680   30.1850 O.2   102  GLN102     -0.2717
    118  NE2        0.4450  -20.3460   29.3310 N.am  102  GLN102     -0.0878
    119  N          3.1920  -10.0820   20.8060 N.3   122  HIS122     -0.1241
    120  CA         2.2340  -10.8090   21.6180 C.3   122  HIS122      0.1621
    121  C          2.1310  -12.2590   21.1370 C.2   122  HIS122      0.2264
    122  O          2.1790  -13.2150   21.9050 O.2   122  HIS122     -0.2867
    123  CB         0.8770  -10.1090   21.5970 C.3   122  HIS122      0.0745
    124  CG         0.6250   -9.3000   22.8370 C.ar  122  HIS122      0.0817
    125  ND1       -0.0940   -9.7860   23.9130 N.ar  122  HIS122     -0.2268
    126  CD2        1.0560   -8.0660   23.2000 C.ar  122  HIS122      0.1154
    127  CE1       -0.1310   -8.8690   24.8650 C.ar  122  HIS122      0.1986
    128  NE2        0.5600   -7.8170   24.4580 N.ar  122  HIS122     -0.2212
@<TRIPOS>BOND
     1   119   120    1
     2   121   120    1
     3   121   122    2
     4   123   120    1
     5   123   124    1
     6   124   126   ar
     7   124   125   ar
     8   126   128   ar
     9   125   127   ar
    10   128   127   ar
    11    89    88    1
    12    89    90    1
    13    87    86    2
    14    91    90    2
    15    86    88   am
    16    86    85    1
    17   112   113    2
    18   112   111    1
    19   106   105    2
    20   105   104    1
    21    85    84    1
    22   110   111    1
    23    90    92   am
    24    32    30    1
    25   111   114    1
    26   108   107    1
    27    31    30    1
    28   104   107    1
    29   104   103    1
    30    92    93    1
    31   107   109    1
    32    30    27    1
    33   103    94   am
    34    95    94    2
    35   114   115    1
    36    94    93    1
    37    93    96    1
    38    29    28    2
    39    27    28    1
    40    27    26    1
    41    82    81    1
    42   115   116    1
    43     1     2    1
    44    26    18   am
    45    96    97    1
    46    80    79    2
    47    83    81    1
    48    81    78    1
    49   116   118   am
    50   116   117    2
    51    39    38    1
    52     2     3    1
    53    19    18    2
    54    97    98    1
    55     4     3    2
    56    18    17    1
    57    79    78    1
    58    78    77    1
    59     3     5   am
    60    38    37    1
    61    38    40    1
    62    20    17    1
    63    20    21    1
    64    17    16    1
    65    98    99    1
    66    77    73   am
    67    99   100    2
    68    16     7   am
    69    37    34    1
    70     5     6    1
    71   100   102    1
    72   100   101    1
    73    33    34    1
    74     7     8    2
    75     7     6    1
    76    74    73    2
    77    21    23   ar
    78    21    22   ar
    79    73    72    1
    80     6     9    1
    81    34    35    1
    82    23    25   ar
    83    36    35    2
    84    22    24   ar
    85    35    41   am
    86    72    75    1
    87    72    71    1
    88    25    24   ar
    89     9    10    1
    90    76    75    1
    91    71    64   am
    92    10    11    1
    93    41    42    1
    94    64    65    2
    95    64    63    1
    96    62    63    1
    97    42    45    1
    98    42    43    1
    99    11    12    1
   100    63    66    1
   101    45    46    1
   102    12    13    2
   103    14    13    1
   104    13    15    1
   105    43    44    2
   106    43    47   am
   107    47    48    1
   108    66    67    1
   109    67    68    1
   110    48    51    1
   111    48    49    1
   112    51    52    1
   113    56    55    2
   114    49    53   am
   115    49    50    2
   116    53    54    1
   117    68    69    1
   118    69    70    1
   119    55    54    1
   120    54    57    1
   121    57    58    1
   122    58    59    1
   123    61    59   am
   124    59    60    2
