@<TRIPOS>MOLECULE
tmp/4qlkB02.pdb
 82 82 0 0 0
SMALL
GASTEIGER

@<TRIPOS>ATOM
      1  N         28.6420   25.1890   -9.2010 N.3   274  GLY274     -0.1210
      2  CA        27.4540   25.2160  -10.0670 C.3   274  GLY274      0.1956
      3  C         27.5100   24.3860  -11.3430 C.2   274  GLY274      0.2612
      4  O         26.7810   24.6590  -12.2840 O.2   274  GLY274     -0.2717
      5  N         28.3600   23.3640  -11.3710 N.am  275  HIS275     -0.1961
      6  CA        28.3970   22.4170  -12.4920 C.3   275  HIS275      0.1787
      7  C         28.9940   21.0830  -12.0670 C.2   275  HIS275      0.2620
      8  O         29.7040   21.0160  -11.0780 O.2   275  HIS275     -0.2715
      9  CB        29.2020   22.9940  -13.6610 C.3   275  HIS275      0.0785
     10  CG        30.6140   23.3260  -13.3070 C.ar  275  HIS275      0.0821
     11  ND1       31.6120   22.3770  -13.2580 N.ar  275  HIS275     -0.2267
     12  CD2       31.1970   24.5030  -12.9830 C.ar  275  HIS275      0.1154
     13  CE1       32.7500   22.9530  -12.9070 C.ar  275  HIS275      0.1986
     14  NE2       32.5260   24.2460  -12.7430 N.ar  275  HIS275     -0.2212
     15  N         28.6880   20.0210  -12.8090 N.am  276  TYR276     -0.1974
     16  CA        29.3290   18.7390  -12.6120 C.3   276  TYR276      0.1639
     17  C         30.8040   18.8070  -13.0220 C.2   276  TYR276      0.2290
     18  O         31.1780   19.6600  -13.8410 O.2   276  TYR276     -0.2864
     19  CB        28.6170   17.6540  -13.4160 C.3   276  TYR276      0.0560
     20  CG        27.3060   17.2110  -12.8280 C.ar  276  TYR276     -0.0198
     21  CD1       27.2380   16.6900  -11.5290 C.ar  276  TYR276     -0.0009
     22  CD2       26.1290   17.2880  -13.5630 C.ar  276  TYR276     -0.0009
     23  CE1       26.0400   16.2630  -11.0000 C.ar  276  TYR276      0.0417
     24  CE2       24.9310   16.8500  -13.0300 C.ar  276  TYR276      0.0417
     25  CZ        24.8930   16.3440  -11.7490 C.ar  276  TYR276      0.1957
     26  OH        23.6920   15.9130  -11.2170 O.3   276  TYR276     -0.2866
     27  N         31.3560   15.1780  -17.2150 N.3   281  GLN281     -0.1245
     28  CA        30.6820   15.6760  -18.4250 C.3   281  GLN281      0.1566
     29  C         31.2860   15.0350  -19.6850 C.2   281  GLN281      0.2260
     30  O         30.5540   14.5750  -20.5580 O.2   281  GLN281     -0.2867
     31  CB        30.7610   17.1910  -18.5240 C.3   281  GLN281      0.0367
     32  CG        29.9840   17.9290  -17.4460 C.3   281  GLN281      0.0905
     33  CD        30.0660   19.4290  -17.6360 C.2   281  GLN281      0.2608
     34  OE1       29.7960   19.9300  -18.7270 O.2   281  GLN281     -0.2717
     35  NE2       30.4660   20.1520  -16.5940 N.am  281  GLN281     -0.0878
     36  N         24.5560   11.9600  -18.1530 N.3   288  LEU288     -0.1231
     37  CA        24.6720   12.9040  -17.0370 C.3   288  LEU288      0.1678
     38  C         23.6650   14.0380  -17.2340 C.2   288  LEU288      0.2434
     39  O         23.7660   14.7970  -18.2080 O.2   288  LEU288     -0.2733
     40  CB        26.0950   13.4580  -16.9410 C.3   288  LEU288      0.0284
     41  CG        26.4860   14.2780  -15.7060 C.3   288  LEU288      0.0019
     42  CD1       26.4850   13.4230  -14.4460 C.3   288  LEU288      0.0001
     43  CD2       27.8560   14.9080  -15.9290 C.3   288  LEU288      0.0001
     44  N         22.6790   14.1490  -16.3350 N.am  289  PRO289     -0.2718
     45  CA        21.6860   15.2090  -16.5080 C.3   289  PRO289      0.1535
     46  C         22.3280   16.5990  -16.5190 C.2   289  PRO289      0.2598
     47  O         23.3830   16.7930  -15.9250 O.2   289  PRO289     -0.2715
     48  CB        20.7780   15.0420  -15.2920 C.3   289  PRO289      0.0310
     49  CG        20.9410   13.6430  -14.8790 C.3   289  PRO289      0.0237
     50  CD        22.3720   13.3050  -15.1710 C.3   289  PRO289      0.0939
     51  N         21.7020   17.5280  -17.2270 N.am  290  LYS290     -0.1964
     52  CA        22.1640   18.9080  -17.3000 C.3   290  LYS290      0.1728
     53  C         21.3180   19.7910  -16.3940 C.2   290  LYS290      0.2616
     54  O         20.0980   19.8050  -16.4910 O.2   290  LYS290     -0.2715
     55  CB        22.0660   19.4550  -18.7380 C.3   290  LYS290      0.0311
     56  CG        23.2980   19.2640  -19.6110 C.3   290  LYS290      0.0038
     57  CD        23.2870   17.9160  -20.3060 C.3   290  LYS290      0.0206
     58  CE        24.2610   17.8700  -21.4790 C.3   290  LYS290      0.1093
     59  NZ        24.3800   16.4790  -22.0050 N.3   290  LYS290     -0.1314
     60  N         21.9740   20.5310  -15.5120 N.am  291  PHE291     -0.1974
     61  CA        21.3150   21.6100  -14.7950 C.3   291  PHE291      0.1639
     62  C         21.0040   22.7420  -15.7640 C.2   291  PHE291      0.2290
     63  O         21.8560   23.1100  -16.5770 O.2   291  PHE291     -0.2864
     64  CB        22.2140   22.1810  -13.7050 C.3   291  PHE291      0.0560
     65  CG        22.4860   21.2300  -12.5740 C.ar  291  PHE291     -0.0200
     66  CD1       21.5140   20.9780  -11.6180 C.ar  291  PHE291     -0.0042
     67  CD2       23.7200   20.5950  -12.4630 C.ar  291  PHE291     -0.0042
     68  CE1       21.7550   20.1030  -10.5700 C.ar  291  PHE291     -0.0003
     69  CE2       23.9670   19.7120  -11.4160 C.ar  291  PHE291     -0.0003
     70  CZ        22.9800   19.4700  -10.4710 C.ar  291  PHE291     -0.0000
     71  N         20.5250   26.8050  -16.3090 N.3   293  PRO293     -0.2116
     72  CA        21.1900   27.9110  -15.6260 C.3   293  PRO293      0.1372
     73  C         20.5450   28.2900  -14.2900 C.2   293  PRO293      0.2244
     74  O         21.2670   28.5310  -13.3200 O.2   293  PRO293     -0.2868
     75  CB        21.0770   29.0600  -16.6430 C.3   293  PRO293      0.0268
     76  CG        21.0880   28.3550  -17.9540 C.3   293  PRO293      0.0207
     77  CD        20.2740   27.1170  -17.7300 C.3   293  PRO293      0.0892
     78  N         21.3090   25.4760  -11.7340 N.3   296  ALA296     -0.1245
     79  CA        22.7090   25.5620  -11.3230 C.3   296  ALA296      0.1562
     80  C         22.9300   26.7060  -10.3100 C.2   296  ALA296      0.2260
     81  O         23.6800   26.5510   -9.3420 O.2   296  ALA296     -0.2867
     82  CB        23.6160   25.7310  -12.5280 C.3   296  ALA296      0.0290
@<TRIPOS>BOND
     1    59    58    1
     2    58    57    1
     3    30    29    2
     4    57    56    1
     5    29    28    1
     6    56    55    1
     7    55    52    1
     8    34    33    2
     9    31    28    1
    10    31    32    1
    11    28    27    1
    12    39    38    2
    13    36    37    1
    14    76    77    1
    15    76    75    1
    16    77    71    1
    17    33    32    1
    18    33    35   am
    19    52    51    1
    20    52    53    1
    21    38    37    1
    22    38    44   am
    23    51    46   am
    24    37    40    1
    25    40    41    1
    26    75    72    1
    27    63    62    2
    28    46    45    1
    29    46    47    2
    30    45    44    1
    31    45    48    1
    32    54    53    2
    33    53    60   am
    34    44    50    1
    35    71    72    1
    36    43    41    1
    37    62    61    1
    38    41    42    1
    39    72    73    1
    40    60    61    1
    41    48    49    1
    42    50    49    1
    43    61    64    1
    44    73    74    2
    45    18    17    2
    46    64    65    1
    47     9    10    1
    48     9     6    1
    49    22    24   ar
    50    22    20   ar
    51    19    20    1
    52    19    16    1
    53    10    11   ar
    54    10    12   ar
    55    11    13   ar
    56    24    25   ar
    57    17    16    1
    58    12    14   ar
    59    13    14   ar
    60    20    21   ar
    61    15    16    1
    62    15     7   am
    63    65    67   ar
    64    65    66   ar
    65    82    79    1
    66     6     7    1
    67     6     5    1
    68    67    69   ar
    69     4     3    2
    70     7     8    2
    71    25    26    1
    72    25    23   ar
    73    78    79    1
    74    66    68   ar
    75    21    23   ar
    76    69    70   ar
    77     5     3   am
    78     3     2    1
    79    79    80    1
    80    68    70   ar
    81    80    81    2
    82     2     1    1
