@<TRIPOS>MOLECULE
tmp/4qluK01.pdb
 143 135 0 0 0
SMALL
GASTEIGER

@<TRIPOS>ATOM
      1  N         11.5110 -139.5080   10.2370 N.3     1  THR1       -0.1218
      2  CA        11.1160 -138.6250    9.1240 C.3     1  THR1        0.1862
      3  C         11.5910 -138.9730    7.7370 C.2     1  THR1        0.2287
      4  O         12.6110 -139.5670    7.5560 O.2     1  THR1       -0.2866
      5  CB        11.6410 -137.2350    9.3850 C.3     1  THR1        0.1770
      6  OG1       11.1260 -136.7850   10.5670 O.3     1  THR1       -0.2211
      7  CG2       11.1480 -136.2360    8.3770 C.3     1  THR1        0.0375
      8  N          4.8350 -138.4920    9.9290 N.3    19  ARG19      -0.1231
      9  CA         4.9670 -139.3670   11.0910 C.3    19  ARG19       0.1694
     10  C          5.8190 -138.7130   12.1690 C.2    19  ARG19       0.2592
     11  O          6.7290 -137.9460   11.8680 O.2    19  ARG19      -0.2718
     12  CB         5.5800 -140.7140   10.6950 C.3    19  ARG19       0.0321
     13  CG         5.7190 -141.6830   11.8610 C.3    19  ARG19       0.0489
     14  CD         5.9600 -143.1120   11.4050 C.3    19  ARG19       0.2205
     15  NE         4.7440 -143.7360   10.8890 N.pl3  19  ARG19      -0.0865
     16  CZ         4.5790 -145.0440   10.6940 C.cat  19  ARG19       0.5346
     17  NH1        5.5540 -145.9050   10.9710 N.pl3  19  ARG19       0.1354
     18  NH2        3.4240 -145.4980   10.2190 N.pl3  19  ARG19       0.1354
     19  N          5.5050 -139.0090   13.4270 N.am   20  ALA20      -0.1966
     20  CA         6.3720 -138.6520   14.5460 C.3    20  ALA20       0.1728
     21  C          6.5700 -139.8860   15.4170 C.2    20  ALA20       0.2617
     22  O          5.6070 -140.5860   15.7240 O.2    20  ALA20      -0.2715
     23  CB         5.7730 -137.5130   15.3530 C.3    20  ALA20       0.0334
     24  N          7.8180 -140.1530   15.7980 N.am   21  THR21      -0.1937
     25  CA         8.1470 -141.3260   16.6080 C.3    21  THR21       0.2028
     26  C          8.8970 -140.9520   17.8810 C.2    21  THR21       0.2642
     27  O          9.5890 -139.9310   17.9330 O.2    21  THR21      -0.2714
     28  CB         9.0280 -142.3350   15.8340 C.3    21  THR21       0.1808
     29  OG1       10.3250 -141.7710   15.5900 O.3    21  THR21      -0.2208
     30  CG2        8.3850 -142.7270   14.5090 C.3    21  THR21       0.0379
     31  N          8.7400 -141.7890   18.9020 N.am   22  ALA22      -0.1963
     32  CA         9.6250 -141.7980   20.0610 C.3    22  ALA22       0.1728
     33  C         10.1210 -143.2340   20.2210 C.2    22  ALA22       0.2616
     34  O          9.4840 -144.0570   20.8800 O.2    22  ALA22      -0.2715
     35  CB         8.8950 -141.3280   21.3060 C.3    22  ALA22       0.0334
     36  N         11.2560 -143.5310   19.5960 N.am   23  GLY23      -0.1955
     37  CA        11.7090 -144.9090   19.4450 C.3    23  GLY23       0.1869
     38  C         10.8230 -145.6150   18.4330 C.2    23  GLY23       0.2309
     39  O         10.6400 -145.1300   17.3160 O.2    23  GLY23      -0.2863
     40  N          4.2950 -141.6250   17.7430 N.3    27  ALA27      -0.1245
     41  CA         3.7560 -140.5150   18.5230 C.3    27  ALA27       0.1562
     42  C          2.5520 -139.8850   17.8410 C.2    27  ALA27       0.2260
     43  O          1.5520 -139.5870   18.4920 O.2    27  ALA27      -0.2867
     44  CB         4.8310 -139.4640   18.7500 C.3    27  ALA27       0.0290
     45  N          1.4240 -134.9940   11.5940 N.3    31  VAL31      -0.1231
     46  CA         2.2810 -133.9110   12.0560 C.3    31  VAL31       0.1692
     47  C          2.7890 -133.1140   10.8510 C.2    31  VAL31       0.2592
     48  O          3.1480 -133.6940    9.8240 O.2    31  VAL31      -0.2718
     49  CB         3.4350 -134.4810   12.9250 C.3    31  VAL31       0.0266
     50  CG1        4.7600 -134.5410   12.1710 C.3    31  VAL31       0.0020
     51  CG2        3.5790 -133.6860   14.2130 C.3    31  VAL31       0.0020
     52  N          2.7910 -131.7870   10.9700 N.am   32  LYS32      -0.1966
     53  CA         3.3370 -130.9260    9.9180 C.3    32  LYS32       0.1728
     54  C          4.8560 -130.9220    9.9930 C.2    32  LYS32       0.2616
     55  O          5.4220 -130.8070   11.0770 O.2    32  LYS32      -0.2715
     56  CB         2.8150 -129.4910   10.0410 C.3    32  LYS32       0.0311
     57  CG         1.3950 -129.2970    9.5270 C.3    32  LYS32       0.0038
     58  CD         1.0640 -127.8310    9.2660 C.3    32  LYS32       0.0206
     59  CE         2.0000 -127.2030    8.2410 C.3    32  LYS32       0.1093
     60  NZ         1.3280 -126.1660    7.4090 N.3    32  LYS32      -0.1314
     61  N          5.5060 -131.0620    8.8420 N.am   33  LYS33      -0.1977
     62  CA         6.9680 -131.0050    8.7560 C.3    33  LYS33       0.1596
     63  C          7.4730 -129.8970    7.8340 C.2    33  LYS33       0.2287
     64  O          8.6780 -129.7550    7.6440 O.2    33  LYS33      -0.2864
     65  CB         7.5200 -132.3500    8.2930 C.3    33  LYS33       0.0298
     66  CG         7.0970 -133.4980    9.1870 C.3    33  LYS33       0.0038
     67  CD         8.0140 -134.6920    9.0330 C.3    33  LYS33       0.0206
     68  CE         7.3540 -135.9350    9.5980 C.3    33  LYS33       0.1093
     69  NZ         8.2810 -137.0920    9.6040 N.3    33  LYS33      -0.1314
     70  N         11.3040 -129.8620    8.0630 N.3    45  MET45      -0.1230
     71  CA        11.7750 -130.2940    9.3720 C.3    45  MET45       0.1702
     72  C         12.0160 -131.8000    9.4170 C.2    45  MET45       0.2592
     73  O         11.1450 -132.5900    9.0480 O.2    45  MET45      -0.2718
     74  CB        10.7460 -129.9420   10.4420 C.3    45  MET45       0.0401
     75  CG        10.4800 -128.4570   10.6170 C.3    45  MET45       0.0596
     76  SD         9.1630 -128.1990   11.8200 S.3    45  MET45      -0.1393
     77  CE         8.3870 -126.7400   11.1510 C.3    45  MET45       0.0692
     78  N         13.2030 -132.1850    9.8720 N.am   46  ALA46      -0.1966
     79  CA        13.4820 -133.5680   10.2350 C.3    46  ALA46       0.1728
     80  C         14.5670 -133.5960   11.3050 C.2    46  ALA46       0.2617
     81  O         15.4760 -132.7640   11.3010 O.2    46  ALA46      -0.2715
     82  CB        13.8990 -134.3760    9.0190 C.3    46  ALA46       0.0334
     83  N         14.4620 -134.5550   12.2190 N.am   47  GLY47      -0.1940
     84  CA        15.3180 -134.6030   13.4000 C.3    47  GLY47       0.2014
     85  C         14.4760 -134.2820   14.6170 C.2    47  GLY47       0.2639
     86  O         13.2990 -134.6390   14.6620 O.2    47  GLY47      -0.2714
     87  N         15.0840 -133.6060   15.5940 N.am   48  GLY48      -0.1939
     88  CA        14.4060 -133.1430   16.8210 C.3    48  GLY48       0.2014
     89  C         13.1560 -132.3490   16.5740 C.2    48  GLY48       0.2639
     90  O         13.2070 -131.3130   15.9310 O.2    48  GLY48      -0.2714
     91  N         12.0380 -132.8430   17.1000 N.am   49  ALA49      -0.1963
     92  CA        10.7490 -132.2080   16.8940 C.3    49  ALA49       0.1728
     93  C         10.7500 -130.7930   17.4710 C.2    49  ALA49       0.2616
     94  O         10.5090 -129.8220   16.7500 O.2    49  ALA49      -0.2715
     95  CB         9.6400 -133.0470   17.5100 C.3    49  ALA49       0.0334
     96  N         11.0440 -130.6840   18.7640 N.am   50  ALA50      -0.1977
     97  CA        11.1410 -129.3860   19.4320 C.3    50  ALA50       0.1597
     98  C         12.2370 -128.5080   18.8220 C.2    50  ALA50       0.2287
     99  O         12.0100 -127.3310   18.5480 O.2    50  ALA50      -0.2864
    100  CB        11.3880 -129.5770   20.9180 C.3    50  ALA50       0.0319
    101  N         13.5000 -128.6570   15.7880 N.3    52  CYS52      -0.1221
    102  CA        13.0100 -128.2430   14.4740 C.3    52  CYS52       0.1808
    103  C         11.9750 -127.1240   14.5870 C.2    52  CYS52       0.2601
    104  O         12.2100 -126.0090   14.1190 O.2    52  CYS52      -0.2717
    105  CB        12.4060 -129.4310   13.7170 C.3    52  CYS52       0.0970
    106  SG        13.6170 -130.5670   13.0010 S.3    52  CYS52      -0.0800
    107  N         10.8390 -127.4290   15.2110 N.am   53  GLN53      -0.1979
    108  CA         9.7600 -126.4550   15.3790 C.3    53  GLN53       0.1601
    109  C         10.2920 -125.1210   15.8730 C.2    53  GLN53       0.2287
    110  O         10.1420 -124.1010   15.2110 O.2    53  GLN53      -0.2864
    111  CB         8.7100 -126.9640   16.3700 C.3    53  GLN53       0.0394
    112  CG         7.7960 -128.0390   15.8100 C.3    53  GLN53       0.0908
    113  CD         6.5620 -128.2660   16.6620 C.2    53  GLN53       0.2608
    114  OE1        6.4430 -127.7270   17.7630 O.2    53  GLN53      -0.2717
    115  NE2        5.6330 -129.0660   16.1530 N.am   53  GLN53      -0.0878
    116  N         19.4880 -131.5970   17.1980 N.3    96  SER96      -0.1217
    117  CA        19.3410 -132.5460   16.1030 C.3    96  SER96       0.1889
    118  C         18.3480 -132.0020   15.0720 C.2    96  SER96       0.2288
    119  O         17.1430 -131.9440   15.3270 O.2    96  SER96      -0.2866
    120  CB        18.8890 -133.9040   16.6420 C.3    96  SER96       0.2089
    121  OG        18.7620 -134.8550   15.6010 O.3    96  SER96      -0.2183
    122  N         16.4770 -137.1930    6.4210 N.3   130  GLY130     -0.1210
    123  CA        15.7650 -137.9520    7.4460 C.3   130  GLY130      0.1956
    124  C         16.0330 -139.4460    7.4080 C.2   130  GLY130      0.2612
    125  O         16.6520 -139.9600    6.4740 O.2   130  GLY130     -0.2717
    126  N         15.5400 -140.1370    8.4330 N.am  131  SER131     -0.1952
    127  CA        15.6520 -141.5940    8.5530 C.3   131  SER131      0.1924
    128  C         15.3440 -142.3530    7.2610 C.2   131  SER131      0.2314
    129  O         15.9700 -143.3720    6.9780 O.2   131  SER131     -0.2863
    130  CB        14.7190 -142.0940    9.6580 C.3   131  SER131      0.2116
    131  OG        13.3740 -141.7450    9.3790 O.3   131  SER131     -0.2180
    132  N         10.3170 -145.6740   10.4100 N.3   170  TYR170     -0.1241
    133  CA        10.2310 -144.3900   11.1070 C.3   170  TYR170      0.1605
    134  C          9.7140 -143.2560   10.2160 C.2   170  TYR170      0.2264
    135  O          9.9000 -142.0830   10.5290 O.2   170  TYR170     -0.2867
    136  CB        11.5910 -144.0480   11.7340 C.3   170  TYR170      0.0534
    137  CG        12.0650 -145.1180   12.7000 C.ar  170  TYR170     -0.0201
    138  CD1       11.2540 -145.5360   13.7530 C.ar  170  TYR170     -0.0009
    139  CD2       13.3120 -145.7250   12.5550 C.ar  170  TYR170     -0.0009
    140  CE1       11.6680 -146.5210   14.6330 C.ar  170  TYR170      0.0417
    141  CE2       13.7360 -146.7100   13.4340 C.ar  170  TYR170      0.0417
    142  CZ        12.9100 -147.1060   14.4710 C.ar  170  TYR170      0.1957
    143  OH        13.3250 -148.0860   15.3480 O.3   170  TYR170     -0.2866
@<TRIPOS>BOND
     1   122   123    1
     2   125   124    2
     3   129   128    2
     4   128   127    1
     5   124   123    1
     6   124   126   am
     7    60    59    1
     8     4     3    2
     9    64    63    2
    10     3     2    1
    11    63    62    1
    12    70    71    1
    13    59    58    1
    14    65    62    1
    15    65    66    1
    16     7     5    1
    17   126   127    1
    18   127   130    1
    19    62    61    1
    20    61    54   am
    21    82    79    1
    22    67    66    1
    23    67    68    1
    24    73    72    2
    25     2     5    1
    26     2     1    1
    27    58    57    1
    28    71    72    1
    29    71    74    1
    30   131   130    1
    31     5     6    1
    32    72    78   am
    33    57    56    1
    34    68    69    1
    35    48    47    2
    36    78    79    1
    37    53    54    1
    38    53    56    1
    39    53    52    1
    40     8     9    1
    41    54    55    2
    42   134   135    2
    43   134   133    1
    44    18    16    1
    45    79    80    1
    46   132   133    1
    47    74    75    1
    48    75    76    1
    49    16    15    2
    50    16    17    1
    51    12     9    1
    52    12    13    1
    53    47    52   am
    54    47    46    1
    55    15    14    1
    56     9    10    1
    57   133   136    1
    58    77    76    1
    59    81    80    2
    60    80    83   am
    61    14    13    1
    62    45    46    1
    63   136   137    1
    64    11    10    2
    65    46    49    1
    66    10    19   am
    67    50    49    1
    68    83    84    1
    69   139   137   ar
    70   139   141   ar
    71   137   138   ar
    72    49    51    1
    73   106   105    1
    74    84    85    1
    75    19    20    1
    76   141   142   ar
    77   105   102    1
    78   138   140   ar
    79   104   103    2
    80   142   140   ar
    81   142   143    1
    82   102   103    1
    83   102   101    1
    84    30    28    1
    85    20    23    1
    86    20    21    1
    87   103   107   am
    88    85    86    2
    89    85    87   am
    90   118   119    2
    91   118   117    1
    92   110   109    2
    93   107   108    1
    94   108   109    1
    95   108   111    1
    96    21    22    2
    97    21    24   am
    98    29    28    1
    99    87    88    1
   100   121   120    1
   101    24    25    1
   102   112   111    1
   103   112   113    1
   104    28    25    1
   105    90    89    2
   106   117   120    1
   107   117   116    1
   108   115   113   am
   109    89    88    1
   110    89    91   am
   111    25    26    1
   112   113   114    2
   113    94    93    2
   114    92    91    1
   115    92    93    1
   116    92    95    1
   117    39    38    2
   118    93    96   am
   119    40    41    1
   120    42    43    2
   121    42    41    1
   122    26    27    2
   123    26    31   am
   124    38    37    1
   125    41    44    1
   126    99    98    2
   127    96    97    1
   128    98    97    1
   129    31    32    1
   130    97   100    1
   131    37    36    1
   132    36    33   am
   133    32    33    1
   134    32    35    1
   135    33    34    2
