@<TRIPOS>MOLECULE
tmp/4qlxA01.pdb
 108 104 0 0 0
SMALL
GASTEIGER

@<TRIPOS>ATOM
      1  N        -23.4050  -15.3870   15.4040 N.3    49  SER49      -0.1202
      2  CA       -22.6410  -16.6010   15.6540 C.3    49  SER49       0.2020
      3  C        -21.7470  -16.7910   14.4380 C.2    49  SER49       0.2619
      4  O        -22.1100  -16.3630   13.3320 O.2    49  SER49      -0.2717
      5  CB       -23.5610  -17.8160   15.8780 C.3    49  SER49       0.2103
      6  OG       -24.2950  -18.1140   14.6960 O.3    49  SER49      -0.2182
      7  N        -20.5780  -17.3940   14.6290 N.am   50  ALA50      -0.1965
      8  CA       -19.6690  -17.5830   13.4980 C.3    50  ALA50       0.1728
      9  C        -20.3420  -18.4270   12.4260 C.2    50  ALA50       0.2616
     10  O        -20.8780  -19.4950   12.7140 O.2    50  ALA50      -0.2715
     11  CB       -18.3520  -18.2290   13.9490 C.3    50  ALA50       0.0334
     12  N        -20.3280  -17.9190   11.1950 N.am   51  CYS51      -0.1968
     13  CA       -20.9770  -18.5600   10.0450 C.3    51  CYS51       0.1712
     14  C        -22.4390  -18.9420   10.2830 C.2    51  CYS51       0.2296
     15  O        -22.9520  -19.8840    9.6650 O.2    51  CYS51      -0.2864
     16  CB       -20.1860  -19.7950    9.6180 C.3    51  CYS51       0.0983
     17  SG       -18.5890  -19.3850    8.8610 S.3    51  CYS51      -0.0798
     18  N        -25.9190  -23.0280    4.2340 N.3   105  TRP105     -0.1241
     19  CA       -25.6450  -21.9020    3.3550 C.3   105  TRP105      0.1605
     20  C        -26.1950  -22.1650    1.9370 C.2   105  TRP105      0.2264
     21  O        -26.4870  -21.2260    1.1940 O.2   105  TRP105     -0.2867
     22  CB       -24.1450  -21.5720    3.3740 C.3   105  TRP105      0.0550
     23  CG       -23.8540  -20.8170    4.6390 C.ar  105  TRP105      0.0003
     24  CD1      -23.2540  -21.2940    5.7760 C.ar  105  TRP105      0.0946
     25  CD2      -24.2380  -19.4690    4.9250 C.ar  105  TRP105      0.0152
     26  NE1      -23.2240  -20.3070    6.7490 N.ar  105  TRP105     -0.2442
     27  CE2      -23.8260  -19.1790    6.2470 C.ar  105  TRP105      0.0810
     28  CE3      -24.8840  -18.4670    4.1850 C.ar  105  TRP105      0.0012
     29  CZ2      -24.0300  -17.9390    6.8340 C.ar  105  TRP105      0.0191
     30  CZ3      -25.0980  -17.2400    4.7770 C.ar  105  TRP105      0.0001
     31  CH2      -24.6660  -16.9820    6.0850 C.ar  105  TRP105      0.0015
     32  N        -28.7150  -15.0520   -1.6230 N.3   114  ILE114     -0.1245
     33  CA       -27.3480  -14.7800   -2.0610 C.3   114  ILE114      0.1561
     34  C        -27.1480  -15.3580   -3.4540 C.2   114  ILE114      0.2260
     35  O        -27.8590  -16.2770   -3.8700 O.2   114  ILE114     -0.2867
     36  CB       -26.2720  -15.3750   -1.1020 C.3   114  ILE114      0.0252
     37  CG1      -26.4130  -16.8930   -0.9990 C.3   114  ILE114      0.0019
     38  CG2      -26.3430  -14.7300    0.2830 C.3   114  ILE114      0.0019
     39  CD1      -25.3090  -17.5540   -0.2060 C.3   114  ILE114      0.0001
     40  N        -21.5050  -15.7750   -4.5460 N.3   118  ARG118     -0.1245
     41  CA       -21.3620  -15.4660   -3.1270 C.3   118  ARG118      0.1563
     42  C        -21.2970  -16.7550   -2.2980 C.2   118  ARG118      0.2260
     43  O        -20.4010  -16.9300   -1.4720 O.2   118  ARG118     -0.2867
     44  CB       -22.5180  -14.5700   -2.6680 C.3   118  ARG118      0.0307
     45  CG       -22.3330  -13.9570   -1.2870 C.3   118  ARG118      0.0489
     46  CD       -20.9420  -13.3370   -1.1560 C.3   118  ARG118      0.2205
     47  NE       -20.8160  -12.4940    0.0270 N.pl3 118  ARG118     -0.0865
     48  CZ       -19.6590  -12.1790    0.5930 C.cat 118  ARG118      0.5346
     49  NH1      -18.5260  -12.6520    0.0860 N.pl3 118  ARG118      0.1354
     50  NH2      -19.6370  -11.3980    1.6670 N.pl3 118  ARG118      0.1354
     51  N        -18.3600  -18.2320    0.2840 N.3   122  ILE122     -0.1245
     52  CA       -18.6170  -18.6120    1.6750 C.3   122  ILE122      0.1561
     53  C        -18.2050  -20.0600    1.9560 C.2   122  ILE122      0.2260
     54  O        -17.5150  -20.3340    2.9440 O.2   122  ILE122     -0.2867
     55  CB       -20.1020  -18.4210    2.0400 C.3   122  ILE122      0.0252
     56  CG1      -20.5290  -16.9700    1.8020 C.3   122  ILE122      0.0019
     57  CG2      -20.3700  -18.8140    3.5070 C.3   122  ILE122      0.0019
     58  CD1      -22.0250  -16.7540    1.9270 C.3   122  ILE122      0.0001
     59  N        -14.6100  -20.7390    4.4060 N.3   126  PHE126     -0.1241
     60  CA       -14.6850  -21.0630    5.8270 C.3   126  PHE126      0.1605
     61  C        -14.9590  -22.5260    6.1420 C.2   126  PHE126      0.2264
     62  O        -14.5280  -23.0170    7.1900 O.2   126  PHE126     -0.2867
     63  CB       -15.7380  -20.1760    6.5010 C.3   126  PHE126      0.0534
     64  CG       -15.3860  -18.7220    6.4650 C.ar  126  PHE126     -0.0203
     65  CD1      -14.4110  -18.2150    7.3100 C.ar  126  PHE126     -0.0042
     66  CD2      -16.0000  -17.8660    5.5610 C.ar  126  PHE126     -0.0042
     67  CE1      -14.0710  -16.8760    7.2680 C.ar  126  PHE126     -0.0003
     68  CE2      -15.6660  -16.5240    5.5150 C.ar  126  PHE126     -0.0003
     69  CZ       -14.7020  -16.0280    6.3660 C.ar  126  PHE126     -0.0000
     70  N        -11.8850  -24.6350    6.8620 N.3   129  LEU129     -0.1231
     71  CA       -11.3020  -24.3360    8.1720 C.3   129  LEU129      0.1693
     72  C        -12.0120  -25.0860    9.2960 C.2   129  LEU129      0.2592
     73  O        -11.3890  -25.4810   10.2860 O.2   129  LEU129     -0.2718
     74  CB       -11.3400  -22.8330    8.4460 C.3   129  LEU129      0.0284
     75  CG       -10.1580  -22.0040    7.9330 C.3   129  LEU129      0.0019
     76  CD1       -9.9730  -22.1560    6.4470 C.3   129  LEU129      0.0001
     77  CD2      -10.3550  -20.5380    8.2930 C.3   129  LEU129      0.0001
     78  N        -13.3210  -25.2520    9.1630 N.am  130  TYR130     -0.1976
     79  CA       -14.0790  -26.0200   10.1380 C.3   130  TYR130      0.1639
     80  C        -13.7650  -27.5010    9.9710 C.2   130  TYR130      0.2290
     81  O        -13.6330  -28.2380   10.9530 O.2   130  TYR130     -0.2864
     82  CB       -15.5860  -25.7730    9.9920 C.3   130  TYR130      0.0560
     83  CG       -16.0830  -24.5370   10.7080 C.ar  130  TYR130     -0.0198
     84  CD1      -16.1270  -24.4880   12.0970 C.ar  130  TYR130     -0.0009
     85  CD2      -16.5150  -23.4240    9.9990 C.ar  130  TYR130     -0.0009
     86  CE1      -16.5830  -23.3650   12.7560 C.ar  130  TYR130      0.0417
     87  CE2      -16.9620  -22.3040   10.6450 C.ar  130  TYR130      0.0417
     88  CZ       -16.9920  -22.2720   12.0230 C.ar  130  TYR130      0.1957
     89  OH       -17.4480  -21.1440   12.6680 O.3   130  TYR130     -0.2866
     90  N         -9.7480  -25.5890   18.6670 N.3   137  PHE137     -0.1241
     91  CA       -10.3040  -24.4750   17.9080 C.3   137  PHE137      0.1605
     92  C        -11.8190  -24.5400   17.7360 C.2   137  PHE137      0.2264
     93  O        -12.4750  -23.5100   17.6740 O.2   137  PHE137     -0.2867
     94  CB        -9.6590  -24.3710   16.5310 C.3   137  PHE137      0.0534
     95  CG        -9.9930  -23.0900   15.8270 C.ar  137  PHE137     -0.0203
     96  CD1       -9.3250  -21.9120   16.1530 C.ar  137  PHE137     -0.0042
     97  CD2      -11.0010  -23.0480   14.8740 C.ar  137  PHE137     -0.0042
     98  CE1       -9.6370  -20.7190   15.5170 C.ar  137  PHE137     -0.0003
     99  CE2      -11.3240  -21.8550   14.2380 C.ar  137  PHE137     -0.0003
    100  CZ       -10.6410  -20.6880   14.5610 C.ar  137  PHE137     -0.0000
    101  N        -14.2560  -21.6680   19.0850 N.3   141  ASP141     -0.1239
    102  CA       -15.3310  -21.1620   18.2370 C.3   141  ASP141      0.1674
    103  C        -16.6890  -21.2820   18.9410 C.2   141  ASP141      0.2266
    104  O        -17.4730  -20.3290   18.9970 O.2   141  ASP141     -0.2867
    105  CB       -15.3450  -21.9280   16.9060 C.3   141  ASP141      0.1410
    106  CG       -16.4960  -21.5290   15.9920 C.2   141  ASP141      0.3668
    107  OD1      -17.6140  -22.0930   16.1200 O.co2 141  ASP141     -0.2456
    108  OD2      -16.2670  -20.6700   15.1050 O.co2 141  ASP141     -0.2456
@<TRIPOS>BOND
     1    40    41    1
     2    35    34    2
     3    34    33    1
     4    41    44    1
     5    41    42    1
     6    44    45    1
     7    42    43    2
     8    33    32    1
     9    33    36    1
    10    45    46    1
    11    46    47    1
    12    36    37    1
    13    36    38    1
    14    37    39    1
    15    47    48    2
    16    49    48    1
    17    51    52    1
    18    48    50    1
    19    21    20    2
    20    52    53    1
    21    52    55    1
    22    56    58    1
    23    56    55    1
    24    20    19    1
    25    53    54    2
    26    55    57    1
    27    19    22    1
    28    19    18    1
    29    22    23    1
    30    28    30   ar
    31    28    25   ar
    32    59    60    1
    33    23    25   ar
    34    23    24   ar
    35    30    31   ar
    36    25    27   ar
    37    68    66   ar
    38    68    69   ar
    39    66    64   ar
    40    24    26   ar
    41    60    61    1
    42    60    63    1
    43    31    29   ar
    44    61    62    2
    45    27    26   ar
    46    27    29   ar
    47    69    67   ar
    48    76    75    1
    49    64    63    1
    50    64    65   ar
    51    70    71    1
    52    67    65   ar
    53    75    77    1
    54    75    74    1
    55    71    74    1
    56    71    72    1
    57    17    16    1
    58    78    72   am
    59    78    79    1
    60    72    73    2
    61    16    13    1
    62    15    14    2
    63    80    79    1
    64    80    81    2
    65    82    79    1
    66    82    83    1
    67    85    87   ar
    68    85    83   ar
    69    13    14    1
    70    13    12    1
    71    87    88   ar
    72    83    84   ar
    73    12     9   am
    74    88    89    1
    75    88    86   ar
    76    84    86   ar
    77     9    10    2
    78     9     8    1
    79     4     3    2
    80     8    11    1
    81     8     7    1
    82    99   100   ar
    83    99    97   ar
    84     3     7   am
    85     3     2    1
    86   100    98   ar
    87     6     5    1
    88    97    95   ar
    89   108   106   ar
    90     1     2    1
    91    98    96   ar
    92     2     5    1
    93    95    96   ar
    94    95    94    1
    95   106   107   ar
    96   106   105    1
    97    94    91    1
    98   105   102    1
    99    93    92    2
   100    92    91    1
   101    91    90    1
   102   102   103    1
   103   102   101    1
   104   103   104    2
