@<TRIPOS>MOLECULE
tmp/4qlxA00.pdb
 108 105 0 0 0
SMALL
GASTEIGER

@<TRIPOS>ATOM
      1  N        -27.3110   -2.8290   34.7390 N.3    20  ARG20      -0.1231
      2  CA       -27.2460   -4.2720   34.9310 C.3    20  ARG20       0.1694
      3  C        -26.2450   -4.6030   36.0300 C.2    20  ARG20       0.2592
      4  O        -25.1210   -4.1070   36.0180 O.2    20  ARG20      -0.2718
      5  CB       -26.8380   -4.9880   33.6300 C.3    20  ARG20       0.0321
      6  CG       -26.8080   -6.5080   33.7800 C.3    20  ARG20       0.0489
      7  CD       -25.8230   -7.1750   32.8470 C.3    20  ARG20       0.2205
      8  NE       -24.4910   -6.5880   32.9770 N.pl3  20  ARG20      -0.0865
      9  CZ       -23.6320   -6.8790   33.9510 C.cat  20  ARG20       0.5346
     10  NH1      -23.9460   -7.7690   34.9010 N.pl3  20  ARG20       0.1354
     11  NH2      -22.4530   -6.2730   33.9750 N.pl3  20  ARG20       0.1354
     12  N        -26.6450   -5.4530   36.9740 N.am   21  HIS21      -0.1962
     13  CA       -25.7090   -5.9680   37.9520 C.3    21  HIS21       0.1787
     14  C        -25.9050   -7.4600   38.0900 C.2    21  HIS21       0.2620
     15  O        -27.0040   -7.9650   37.8780 O.2    21  HIS21      -0.2715
     16  CB       -25.9040   -5.2800   39.3200 C.3    21  HIS21       0.0785
     17  CG       -25.7370   -3.7930   39.2790 C.ar   21  HIS21       0.0821
     18  ND1      -24.5080   -3.1790   39.3890 N.ar   21  HIS21      -0.2267
     19  CD2      -26.6450   -2.7960   39.1500 C.ar   21  HIS21       0.1154
     20  CE1      -24.6640   -1.8690   39.3220 C.ar   21  HIS21       0.1986
     21  NE2      -25.9520   -1.6100   39.1760 N.ar   21  HIS21      -0.2212
     22  N        -24.8430   -8.1590   38.4660 N.am   22  SER22      -0.1950
     23  CA       -24.9620   -9.5440   38.8620 C.3    22  SER22       0.1924
     24  C        -25.8100   -9.6640   40.1090 C.2    22  SER22       0.2314
     25  O        -25.4460   -9.1460   41.1740 O.2    22  SER22      -0.2863
     26  CB       -23.5940  -10.1600   39.1010 C.3    22  SER22       0.2116
     27  OG       -23.0160  -10.5580   37.8660 O.3    22  SER22      -0.2180
     28  N        -27.4220  -12.4360   42.7440 N.3    24  ARG24      -0.1245
     29  CA       -27.1080  -13.7970   43.1430 C.3    24  ARG24       0.1563
     30  C        -28.1460  -14.3750   44.1060 C.2    24  ARG24       0.2260
     31  O        -28.2230  -15.5910   44.2920 O.2    24  ARG24      -0.2867
     32  CB       -25.7120  -13.8510   43.7780 C.3    24  ARG24       0.0307
     33  CG       -24.5810  -13.6650   42.7760 C.3    24  ARG24       0.0489
     34  CD       -23.2260  -13.4650   43.4510 C.3    24  ARG24       0.2205
     35  NE       -22.1960  -13.1520   42.4570 N.pl3  24  ARG24      -0.0865
     36  CZ       -21.8950  -11.9180   42.0570 C.cat  24  ARG24       0.5346
     37  NH1      -22.5350  -10.8670   42.5730 N.pl3  24  ARG24       0.1354
     38  NH2      -20.9550  -11.7330   41.1390 N.pl3  24  ARG24       0.1354
     39  N        -19.6070  -22.3370   46.1170 N.3    77  PHE77      -0.1227
     40  CA       -19.6710  -20.8780   46.1170 C.3    77  PHE77       0.1736
     41  C        -20.9210  -20.3680   45.3830 C.2    77  PHE77       0.2595
     42  O        -21.4810  -19.3350   45.7420 O.2    77  PHE77      -0.2718
     43  CB       -18.4010  -20.2980   45.4780 C.3    77  PHE77       0.0547
     44  CG       -18.2960  -18.7940   45.5650 C.ar   77  PHE77      -0.0202
     45  CD1      -18.9060  -17.9810   44.6180 C.ar   77  PHE77      -0.0042
     46  CD2      -17.5740  -18.1970   46.5870 C.ar   77  PHE77      -0.0042
     47  CE1      -18.8090  -16.5940   44.7060 C.ar   77  PHE77      -0.0003
     48  CE2      -17.4630  -16.8240   46.6730 C.ar   77  PHE77      -0.0003
     49  CZ       -18.0780  -16.0160   45.7310 C.ar   77  PHE77      -0.0000
     50  N        -21.3670  -21.1060   44.3670 N.am   78  ASN78      -0.1974
     51  CA       -22.4900  -20.6720   43.5480 C.3    78  ASN78       0.1688
     52  C        -23.8260  -21.3130   43.8960 C.2    78  ASN78       0.2292
     53  O        -24.8050  -21.1430   43.1790 O.2    78  ASN78      -0.2864
     54  CB       -22.1600  -20.9180   42.0760 C.3    78  ASN78       0.1181
     55  CG       -21.0680  -20.0100   41.5940 C.2    78  ASN78       0.2629
     56  OD1      -21.0810  -18.8160   41.8910 O.2    78  ASN78      -0.2716
     57  ND2      -20.1070  -20.5590   40.8680 N.am   78  ASN78      -0.0877
     58  N        -27.1150  -18.7560   44.1100 N.3    81  GLN81      -0.1245
     59  CA       -27.7490  -18.5140   42.8220 C.3    81  GLN81       0.1566
     60  C        -28.5930  -19.7030   42.3760 C.2    81  GLN81       0.2260
     61  O        -29.7490  -19.5390   42.0220 O.2    81  GLN81      -0.2867
     62  CB       -26.6970  -18.2120   41.7640 C.3    81  GLN81       0.0367
     63  CG       -25.8340  -17.0200   42.0710 C.3    81  GLN81       0.0905
     64  CD       -24.4710  -17.3990   42.6060 C.2    81  GLN81       0.2608
     65  OE1      -24.3490  -18.0120   43.6710 O.2    81  GLN81      -0.2717
     66  NE2      -23.4290  -17.0290   41.8670 N.am   81  GLN81      -0.0878
     67  N        -27.4320  -13.6580   36.9270 N.3   165  ASN165     -0.1225
     68  CA       -26.0070  -13.7870   37.1540 C.3   165  ASN165      0.1785
     69  C        -25.4460  -14.8100   36.1910 C.2   165  ASN165      0.2597
     70  O        -25.9960  -15.9080   36.0620 O.2   165  ASN165     -0.2718
     71  CB       -25.7130  -14.2010   38.6040 C.3   165  ASN165      0.1169
     72  CG       -24.2610  -14.6210   38.8130 C.2   165  ASN165      0.2627
     73  OD1      -23.9760  -15.7530   39.2040 O.2   165  ASN165     -0.2716
     74  ND2      -23.3360  -13.7070   38.5430 N.am  165  ASN165     -0.0877
     75  N        -24.3680  -14.4430   35.5010 N.am  166  ALA166     -0.1966
     76  CA       -23.6270  -15.3920   34.6780 C.3   166  ALA166      0.1728
     77  C        -22.5570  -16.0030   35.5560 C.2   166  ALA166      0.2616
     78  O        -22.0080  -15.3210   36.4290 O.2   166  ALA166     -0.2715
     79  CB       -23.0190  -14.7080   33.4380 C.3   166  ALA166      0.0334
     80  N        -22.2970  -17.3010   35.3940 N.am  167  PHE167     -0.1960
     81  CA       -21.2850  -17.9510   36.2310 C.3   167  PHE167      0.1771
     82  C        -20.6460  -19.1600   35.5590 C.2   167  PHE167      0.2620
     83  O        -21.3270  -19.9510   34.9110 O.2   167  PHE167     -0.2715
     84  CB       -21.8760  -18.3620   37.5920 C.3   167  PHE167      0.0574
     85  CG       -22.8910  -19.4690   37.5150 C.ar  167  PHE167     -0.0200
     86  CD1      -24.2360  -19.1760   37.3390 C.ar  167  PHE167     -0.0042
     87  CD2      -22.5030  -20.7960   37.6330 C.ar  167  PHE167     -0.0042
     88  CE1      -25.1760  -20.1810   37.2750 C.ar  167  PHE167     -0.0003
     89  CE2      -23.4370  -21.8130   37.5630 C.ar  167  PHE167     -0.0003
     90  CZ       -24.7840  -21.5030   37.3820 C.ar  167  PHE167     -0.0000
     91  N        -19.3310  -19.2920   35.7140 N.am  168  SER168     -0.1936
     92  CA       -18.6130  -20.4420   35.1860 C.3   168  SER168      0.2055
     93  C        -17.8420  -21.1540   36.2880 C.2   168  SER168      0.2643
     94  O        -16.9640  -21.9690   36.0040 O.2   168  SER168     -0.2714
     95  CB       -17.6630  -20.0160   34.0640 C.3   168  SER168      0.2130
     96  OG       -16.6450  -19.1650   34.5740 O.3   168  SER168     -0.2179
     97  N        -18.1890  -20.8600   37.5440 N.am  169  GLY169     -0.1954
     98  CA       -17.5890  -21.5440   38.6800 C.3   169  GLY169      0.1869
     99  C        -18.1850  -22.9320   38.7770 C.2   169  GLY169      0.2309
    100  O        -19.0980  -23.1730   39.5750 O.2   169  GLY169     -0.2863
    101  N        -20.9960  -21.6560   30.4280 N.3   190  MET190     -0.1245
    102  CA       -21.4600  -20.8690   31.5690 C.3   190  MET190      0.1570
    103  C        -22.9190  -21.1400   31.9150 C.2   190  MET190      0.2261
    104  O        -23.7120  -21.5300   31.0620 O.2   190  MET190     -0.2867
    105  CB       -21.2690  -19.3610   31.3130 C.3   190  MET190      0.0387
    106  CG       -22.1720  -18.7910   30.2080 C.3   190  MET190      0.0595
    107  SD       -22.1360  -16.9880   30.0150 S.3   190  MET190     -0.1393
    108  CE       -20.6130  -16.7730   29.0900 C.3   190  MET190      0.0692
@<TRIPOS>BOND
     1   108   107    1
     2   107   106    1
     3   106   105    1
     4   101   102    1
     5   104   103    2
     6   105   102    1
     7   102   103    1
     8     7     8    1
     9     7     6    1
    10     8     9    2
    11    79    76    1
    12     5     6    1
    13     5     2    1
    14     9    11    1
    15     9    10    1
    16    95    96    1
    17    95    92    1
    18    76    75    1
    19    76    77    1
    20     1     2    1
    21    83    82    2
    22     2     3    1
    23    92    91    1
    24    92    93    1
    25    80    77   am
    26    80    81    1
    27    75    69   am
    28    77    78    2
    29    82    91   am
    30    82    81    1
    31    94    93    2
    32     4     3    2
    33     3    12   am
    34    70    69    2
    35    69    68    1
    36    81    84    1
    37    93    97   am
    38    67    68    1
    39    12    13    1
    40    68    71    1
    41    88    86   ar
    42    88    90   ar
    43    86    85   ar
    44    90    89   ar
    45    85    84    1
    46    85    87   ar
    47    97    98    1
    48    89    87   ar
    49    27    26    1
    50    15    14    2
    51    13    14    1
    52    13    16    1
    53    14    22   am
    54    22    23    1
    55    74    72   am
    56    71    72    1
    57    98    99    1
    58    99   100    2
    59    72    73    2
    60    23    26    1
    61    23    24    1
    62    19    21   ar
    63    19    17   ar
    64    21    20   ar
    65    17    16    1
    66    17    18   ar
    67    20    18   ar
    68    24    25    2
    69    57    55   am
    70    38    36    1
    71    55    56    2
    72    55    54    1
    73    62    63    1
    74    62    59    1
    75    66    64   am
    76    61    60    2
    77    36    35    2
    78    36    37    1
    79    63    64    1
    80    54    51    1
    81    60    59    1
    82    35    34    1
    83    64    65    2
    84    28    29    1
    85    33    34    1
    86    33    32    1
    87    59    58    1
    88    29    32    1
    89    29    30    1
    90    53    52    2
    91    51    52    1
    92    51    50    1
    93    30    31    2
    94    50    41   am
    95    45    47   ar
    96    45    44   ar
    97    47    49   ar
    98    41    42    2
    99    41    40    1
   100    43    44    1
   101    43    40    1
   102    44    46   ar
   103    49    48   ar
   104    39    40    1
   105    46    48   ar
