@<TRIPOS>MOLECULE
tmp/4qlxA03.pdb
 111 108 0 0 0
SMALL
GASTEIGER

@<TRIPOS>ATOM
      1  N        -31.2950  -14.4400   18.9180 N.3    46  THR46      -0.1203
      2  CA       -31.1120  -13.4740   17.8320 C.3    46  THR46       0.1994
      3  C        -29.6380  -13.0520   17.7350 C.2    46  THR46       0.2618
      4  O        -29.2250  -12.4260   16.7520 O.2    46  THR46      -0.2717
      5  CB       -32.0030  -12.2210   18.0150 C.3    46  THR46       0.1784
      6  OG1      -31.6530  -11.5460   19.2290 O.3    46  THR46      -0.2211
      7  CG2      -33.4740  -12.6110   18.0770 C.3    46  THR46       0.0376
      8  N        -28.8400  -13.4150   18.7420 N.am   47  ALA47      -0.1966
      9  CA       -27.3940  -13.1440   18.7390 C.3    47  ALA47       0.1713
     10  C        -26.6810  -13.6150   17.4520 C.2    47  ALA47       0.2458
     11  O        -27.1360  -14.5560   16.7970 O.2    47  ALA47      -0.2730
     12  CB       -26.7360  -13.8090   19.9840 C.3    47  ALA47       0.0333
     13  N        -25.5540  -12.9620   17.0910 N.am   48  PRO48      -0.2716
     14  CA       -24.7310  -13.4340   15.9690 C.3    48  PRO48       0.1536
     15  C        -23.9650  -14.6830   16.3770 C.2    48  PRO48       0.2599
     16  O        -23.8890  -14.9940   17.5600 O.2    48  PRO48      -0.2715
     17  CB       -23.7670  -12.2710   15.7300 C.3    48  PRO48       0.0310
     18  CG       -23.5560  -11.7390   17.1140 C.3    48  PRO48       0.0237
     19  CD       -24.9370  -11.7990   17.7520 C.3    48  PRO48       0.0939
     20  N        -23.4050  -15.3870   15.4040 N.am   49  SER49      -0.1936
     21  CA       -22.6410  -16.6010   15.6540 C.3    49  SER49       0.2055
     22  C        -21.7470  -16.7910   14.4380 C.2    49  SER49       0.2643
     23  O        -22.1100  -16.3630   13.3320 O.2    49  SER49      -0.2714
     24  CB       -23.5610  -17.8160   15.8780 C.3    49  SER49       0.2130
     25  OG       -24.2950  -18.1140   14.6960 O.3    49  SER49      -0.2179
     26  N        -20.5780  -17.3940   14.6290 N.am   50  ALA50      -0.1963
     27  CA       -19.6690  -17.5830   13.4980 C.3    50  ALA50       0.1728
     28  C        -20.3420  -18.4270   12.4260 C.2    50  ALA50       0.2616
     29  O        -20.8780  -19.4950   12.7140 O.2    50  ALA50      -0.2715
     30  CB       -18.3520  -18.2290   13.9490 C.3    50  ALA50       0.0334
     31  N        -20.3280  -17.9190   11.1950 N.am   51  CYS51      -0.1954
     32  CA       -20.9770  -18.5600   10.0450 C.3    51  CYS51       0.1843
     33  C        -22.4390  -18.9420   10.2830 C.2    51  CYS51       0.2625
     34  O        -22.9520  -19.8840    9.6650 O.2    51  CYS51      -0.2714
     35  CB       -20.1860  -19.7950    9.6180 C.3    51  CYS51       0.0997
     36  SG       -18.5890  -19.3850    8.8610 S.3    51  CYS51      -0.0797
     37  N        -23.0980  -18.1910   11.1650 N.am   52  ASN52      -0.1972
     38  CA       -24.4930  -18.4360   11.5630 C.3    52  ASN52       0.1688
     39  C        -24.7490  -19.8910   11.9650 C.2    52  ASN52       0.2292
     40  O        -25.8610  -20.3940   11.8190 O.2    52  ASN52      -0.2864
     41  CB       -25.4750  -18.0200   10.4530 C.3    52  ASN52       0.1181
     42  CG       -26.8950  -17.7890   10.9890 C.2    52  ASN52       0.2629
     43  OD1      -27.0690  -17.4400   12.1610 O.2    52  ASN52      -0.2716
     44  ND2      -27.9050  -18.0060   10.1480 N.am   52  ASN52      -0.0877
     45  N        -25.9190  -23.0280    4.2340 N.3   105  TRP105     -0.1241
     46  CA       -25.6450  -21.9020    3.3550 C.3   105  TRP105      0.1605
     47  C        -26.1950  -22.1650    1.9370 C.2   105  TRP105      0.2264
     48  O        -26.4870  -21.2260    1.1940 O.2   105  TRP105     -0.2867
     49  CB       -24.1450  -21.5720    3.3740 C.3   105  TRP105      0.0550
     50  CG       -23.8540  -20.8170    4.6390 C.ar  105  TRP105      0.0003
     51  CD1      -23.2540  -21.2940    5.7760 C.ar  105  TRP105      0.0946
     52  CD2      -24.2380  -19.4690    4.9250 C.ar  105  TRP105      0.0152
     53  NE1      -23.2240  -20.3070    6.7490 N.ar  105  TRP105     -0.2442
     54  CE2      -23.8260  -19.1790    6.2470 C.ar  105  TRP105      0.0810
     55  CE3      -24.8840  -18.4670    4.1850 C.ar  105  TRP105      0.0012
     56  CZ2      -24.0300  -17.9390    6.8340 C.ar  105  TRP105      0.0191
     57  CZ3      -25.0980  -17.2400    4.7770 C.ar  105  TRP105      0.0001
     58  CH2      -24.6660  -16.9820    6.0850 C.ar  105  TRP105      0.0015
     59  N        -21.5050  -15.7750   -4.5460 N.3   118  ARG118     -0.1245
     60  CA       -21.3620  -15.4660   -3.1270 C.3   118  ARG118      0.1563
     61  C        -21.2970  -16.7550   -2.2980 C.2   118  ARG118      0.2260
     62  O        -20.4010  -16.9300   -1.4720 O.2   118  ARG118     -0.2867
     63  CB       -22.5180  -14.5700   -2.6680 C.3   118  ARG118      0.0307
     64  CG       -22.3330  -13.9570   -1.2870 C.3   118  ARG118      0.0489
     65  CD       -20.9420  -13.3370   -1.1560 C.3   118  ARG118      0.2205
     66  NE       -20.8160  -12.4940    0.0270 N.pl3 118  ARG118     -0.0865
     67  CZ       -19.6590  -12.1790    0.5930 C.cat 118  ARG118      0.5346
     68  NH1      -18.5260  -12.6520    0.0860 N.pl3 118  ARG118      0.1354
     69  NH2      -19.6370  -11.3980    1.6670 N.pl3 118  ARG118      0.1354
     70  N        -14.6100  -20.7390    4.4060 N.3   126  PHE126     -0.1241
     71  CA       -14.6850  -21.0630    5.8270 C.3   126  PHE126      0.1605
     72  C        -14.9590  -22.5260    6.1420 C.2   126  PHE126      0.2264
     73  O        -14.5280  -23.0170    7.1900 O.2   126  PHE126     -0.2867
     74  CB       -15.7380  -20.1760    6.5010 C.3   126  PHE126      0.0534
     75  CG       -15.3860  -18.7220    6.4650 C.ar  126  PHE126     -0.0203
     76  CD1      -14.4110  -18.2150    7.3100 C.ar  126  PHE126     -0.0042
     77  CD2      -16.0000  -17.8660    5.5610 C.ar  126  PHE126     -0.0042
     78  CE1      -14.0710  -16.8760    7.2680 C.ar  126  PHE126     -0.0003
     79  CE2      -15.6660  -16.5240    5.5150 C.ar  126  PHE126     -0.0003
     80  CZ       -14.7020  -16.0280    6.3660 C.ar  126  PHE126     -0.0000
     81  N        -14.2560  -21.6680   19.0850 N.3   141  ASP141     -0.1239
     82  CA       -15.3310  -21.1620   18.2370 C.3   141  ASP141      0.1674
     83  C        -16.6890  -21.2820   18.9410 C.2   141  ASP141      0.2266
     84  O        -17.4730  -20.3290   18.9970 O.2   141  ASP141     -0.2867
     85  CB       -15.3450  -21.9280   16.9060 C.3   141  ASP141      0.1410
     86  CG       -16.4960  -21.5290   15.9920 C.2   141  ASP141      0.3668
     87  OD1      -17.6140  -22.0930   16.1200 O.co2 141  ASP141     -0.2456
     88  OD2      -16.2670  -20.6700   15.1050 O.co2 141  ASP141     -0.2456
     89  N        -17.0980  -18.8100   21.9490 N.3   144  ILE144     -0.1231
     90  CA       -17.4650  -17.4470   21.5800 C.3   144  ILE144      0.1692
     91  C        -18.9690  -17.2950   21.3120 C.2   144  ILE144      0.2592
     92  O        -19.5890  -16.3910   21.8500 O.2   144  ILE144     -0.2718
     93  CB       -16.6930  -16.9670   20.3410 C.3   144  ILE144      0.0266
     94  CG1      -15.1920  -16.9600   20.6170 C.3   144  ILE144      0.0019
     95  CG2      -17.1530  -15.5700   19.9500 C.3   144  ILE144      0.0020
     96  CD1      -14.3440  -16.5910   19.3890 C.3   144  ILE144      0.0001
     97  N        -19.5480  -18.1760   20.4900 N.am  145  ASP145     -0.1974
     98  CA       -20.9980  -18.1550   20.2350 C.3   145  ASP145      0.1709
     99  C        -21.8140  -18.2230   21.5510 C.2   145  ASP145      0.2293
    100  O        -22.8060  -17.5180   21.7310 O.2   145  ASP145     -0.2864
    101  CB       -21.4210  -19.3230   19.3440 C.3   145  ASP145      0.1436
    102  CG       -20.9100  -19.2180   17.9030 C.2   145  ASP145      0.3671
    103  OD1      -20.2700  -18.2080   17.5230 O.co2 145  ASP145     -0.2456
    104  OD2      -21.1630  -20.1830   17.1460 O.co2 145  ASP145     -0.2456
    105  N        -21.6880  -14.8440   23.4710 N.3   148  VAL148     -0.1245
    106  CA       -22.4750  -13.7120   22.9860 C.3   148  VAL148      0.1561
    107  C        -23.9650  -13.9590   23.1890 C.2   148  VAL148      0.2260
    108  O        -24.7140  -13.0050   23.4310 O.2   148  VAL148     -0.2867
    109  CB       -22.2040  -13.3600   21.4930 C.3   148  VAL148      0.0252
    110  CG1      -20.7270  -13.0010   21.2840 C.3   148  VAL148      0.0019
    111  CG2      -22.6460  -14.4890   20.5420 C.3   148  VAL148      0.0019
@<TRIPOS>BOND
     1    59    60    1
     2    60    63    1
     3    60    61    1
     4    63    64    1
     5    61    62    2
     6    64    65    1
     7    65    66    1
     8    66    67    2
     9    68    67    1
    10    67    69    1
    11    48    47    2
    12    47    46    1
    13    46    49    1
    14    46    45    1
    15    49    50    1
    16    55    57   ar
    17    55    52   ar
    18    70    71    1
    19    50    52   ar
    20    50    51   ar
    21    57    58   ar
    22    52    54   ar
    23    79    77   ar
    24    79    80   ar
    25    77    75   ar
    26    51    53   ar
    27    71    72    1
    28    71    74    1
    29    58    56   ar
    30    72    73    2
    31    54    53   ar
    32    54    56   ar
    33    80    78   ar
    34    75    74    1
    35    75    76   ar
    36    78    76   ar
    37    36    35    1
    38    35    32    1
    39    34    33    2
    40    32    33    1
    41    32    31    1
    42    44    42   am
    43    33    37   am
    44    41    42    1
    45    41    38    1
    46    42    43    2
    47    37    38    1
    48    31    28   am
    49    38    39    1
    50    40    39    2
    51    28    29    2
    52    28    27    1
    53    23    22    2
    54    27    30    1
    55    27    26    1
    56    22    26   am
    57    22    21    1
    58    25    24    1
    59    88    86   ar
    60    20    21    1
    61    20    15   am
    62    21    24    1
    63    17    14    1
    64    17    18    1
    65    14    15    1
    66    14    13    1
    67    86    87   ar
    68    86    85    1
    69    15    16    2
    70     4     3    2
    71    11    10    2
    72    85    82    1
    73    13    10   am
    74    13    19    1
    75    18    19    1
    76   104   102   ar
    77    10     9    1
    78   103   102   ar
    79     3     2    1
    80     3     8   am
    81     2     5    1
    82     2     1    1
    83   102   101    1
    84     5     7    1
    85     5     6    1
    86    82    83    1
    87    82    81    1
    88     9     8    1
    89     9    12    1
    90    83    84    2
    91   101    98    1
    92    96    94    1
    93    95    93    1
    94    98    97    1
    95    98    99    1
    96    93    94    1
    97    93    90    1
    98    97    91   am
    99   111   109    1
   100   110   109    1
   101    91    90    1
   102    91    92    2
   103   109   106    1
   104    99   100    2
   105    90    89    1
   106   106   107    1
   107   106   105    1
   108   107   108    2
