@<TRIPOS>MOLECULE
tmp/4qm0B00.pdb
 234 225 0 0 0
SMALL
GASTEIGER

@<TRIPOS>ATOM
      1  N        -32.4810   -3.6460   34.6900 N.3    21  CYS21      -0.1221
      2  CA       -32.1100   -2.5260   35.5620 C.3    21  CYS21       0.1808
      3  C        -31.0590   -1.6380   34.9230 C.2    21  CYS21       0.2601
      4  O        -30.6680   -0.6270   35.5130 O.2    21  CYS21      -0.2717
      5  CB       -31.6130   -3.0170   36.9350 C.3    21  CYS21       0.0970
      6  SG       -30.0870   -4.0280   36.8870 S.3    21  CYS21      -0.0800
      7  N        -30.6060   -2.0470   33.7310 N.am   22  GLN22      -0.1965
      8  CA       -29.6530   -1.3010   32.8960 C.3    22  GLN22       0.1733
      9  C        -28.2290   -1.2760   33.4580 C.2    22  GLN22       0.2616
     10  O        -27.3300   -1.8730   32.8800 O.2    22  GLN22      -0.2715
     11  CB       -30.1650    0.1110   32.5840 C.3    22  GLN22       0.0408
     12  CG       -29.3400    0.8810   31.5790 C.3    22  GLN22       0.0908
     13  CD       -29.9270    2.2620   31.2900 C.2    22  GLN22       0.2608
     14  OE1      -31.0400    2.5770   31.7060 O.2    22  GLN22      -0.2717
     15  NE2      -29.1690    3.0900   30.5900 N.am   22  GLN22      -0.0878
     16  N        -28.0220   -0.5880   34.5740 N.am   23  LEU23      -0.1977
     17  CA       -26.7430   -0.6450   35.2710 C.3    23  LEU23       0.1596
     18  C        -26.8940   -1.4080   36.5880 C.2    23  LEU23       0.2287
     19  O        -27.8790   -1.2400   37.3070 O.2    23  LEU23      -0.2864
     20  CB       -26.2040    0.7580   35.5540 C.3    23  LEU23       0.0297
     21  CG       -25.6250    1.5930   34.4040 C.3    23  LEU23       0.0022
     22  CD1      -25.2510    2.9730   34.8990 C.3    23  LEU23       0.0001
     23  CD2      -24.4240    0.9110   33.8050 C.3    23  LEU23       0.0001
     24  N        -22.5200    0.4350   40.1670 N.3    28  LEU28      -0.1245
     25  CA       -22.7150    1.8500   40.4980 C.3    28  LEU28       0.1561
     26  C        -22.0360    2.2270   41.8200 C.2    28  LEU28       0.2260
     27  O        -21.3980    3.2750   41.9240 O.2    28  LEU28      -0.2867
     28  CB       -24.2070    2.2170   40.5430 C.3    28  LEU28       0.0270
     29  CG       -24.9420    2.2370   39.1980 C.3    28  LEU28       0.0019
     30  CD1      -26.4560    2.1130   39.3890 C.3    28  LEU28       0.0001
     31  CD2      -24.5970    3.5050   38.4120 C.3    28  LEU28       0.0001
     32  N        -28.0440   18.4710   25.2230 N.3    53  TRP53      -0.1241
     33  CA       -29.4070   17.9900   24.9610 C.3    53  TRP53       0.1605
     34  C        -29.3460   16.6340   24.2910 C.2    53  TRP53       0.2264
     35  O        -30.1830   15.7810   24.5440 O.2    53  TRP53      -0.2867
     36  CB       -30.2160   18.8580   23.9810 C.3    53  TRP53       0.0550
     37  CG       -30.7180   20.2490   24.3770 C.ar   53  TRP53       0.0003
     38  CD1      -30.5950   21.3910   23.6270 C.ar   53  TRP53       0.0946
     39  CD2      -31.4790   20.6260   25.5390 C.ar   53  TRP53       0.0152
     40  NE1      -31.1960   22.4500   24.2620 N.ar   53  TRP53      -0.2442
     41  CE2      -31.7430   22.0110   25.4370 C.ar   53  TRP53       0.0810
     42  CE3      -31.9470   19.9370   26.6610 C.ar   53  TRP53       0.0012
     43  CZ2      -32.4440   22.7130   26.4100 C.ar   53  TRP53       0.0191
     44  CZ3      -32.6470   20.6440   27.6300 C.ar   53  TRP53       0.0001
     45  CH2      -32.8870   22.0150   27.4950 C.ar   53  TRP53       0.0015
     46  N        -27.9570   13.8070   26.6380 N.3    56  CYS56      -0.1235
     47  CA       -28.9970   13.5210   27.6090 C.3    56  CYS56       0.1677
     48  C        -30.1900   12.8210   26.9630 C.2    56  CYS56       0.2270
     49  O        -30.7700   11.9000   27.5430 O.2    56  CYS56      -0.2867
     50  CB       -29.4550   14.8170   28.2840 C.3    56  CYS56       0.0956
     51  SG       -28.2670   15.4960   29.4670 S.3    56  CYS56      -0.0801
     52  N        -29.1110    9.1670   26.5770 N.3    59  HIS59      -0.1226
     53  CA       -29.2020    8.4580   27.8520 C.3    59  HIS59       0.1752
     54  C        -30.6400    8.2590   28.3220 C.2    59  HIS59       0.2595
     55  O        -31.0180    7.1810   28.7640 O.2    59  HIS59      -0.2718
     56  CB       -28.3650    9.1840   28.9050 C.3    59  HIS59       0.0759
     57  CG       -26.9240    9.3170   28.5200 C.ar   59  HIS59       0.0818
     58  ND1      -26.2110    8.2820   27.9510 N.ar   59  HIS59      -0.2268
     59  CD2      -26.0690   10.3650   28.5930 C.ar   59  HIS59       0.1154
     60  CE1      -24.9770    8.6820   27.7030 C.ar   59  HIS59       0.1986
     61  NE2      -24.8660    9.9420   28.0820 N.ar   59  HIS59      -0.2212
     62  N        -31.4520    9.2920   28.1770 N.am   60  LEU60      -0.1980
     63  CA       -32.8560    9.1830   28.5010 C.3    60  LEU60       0.1596
     64  C        -33.6200    8.1590   27.6420 C.2    60  LEU60       0.2287
     65  O        -34.5080    7.4510   28.1320 O.2    60  LEU60      -0.2864
     66  CB       -33.5040   10.5430   28.3430 C.3    60  LEU60       0.0297
     67  CG       -34.6650   10.7530   29.2860 C.3    60  LEU60       0.0022
     68  CD1      -34.0830   10.9250   30.6840 C.3    60  LEU60       0.0001
     69  CD2      -35.4690   11.9650   28.8480 C.3    60  LEU60       0.0001
     70  N        -32.6270    4.7220   28.7350 N.3    63  ALA63      -0.1245
     71  CA       -33.3070    4.4290   30.0160 C.3    63  ALA63       0.1562
     72  C        -34.7730    4.0610   29.8310 C.2    63  ALA63       0.2260
     73  O        -35.2780    3.1530   30.4850 O.2    63  ALA63      -0.2867
     74  CB       -33.1900    5.6120   31.0090 C.3    63  ALA63       0.0290
     75  N        -38.0920    6.2300   35.1690 N.3    97  VAL97      -0.1245
     76  CA       -36.7060    6.6450   34.9650 C.3    97  VAL97       0.1561
     77  C        -36.2160    7.5340   36.1150 C.2    97  VAL97       0.2260
     78  O        -35.1260    7.3270   36.6290 O.2    97  VAL97      -0.2867
     79  CB       -36.4910    7.3780   33.5940 C.3    97  VAL97       0.0252
     80  CG1      -35.0710    7.8890   33.4890 C.3    97  VAL97       0.0019
     81  CG2      -36.8050    6.4490   32.4110 C.3    97  VAL97       0.0019
     82  N        -35.7040    5.3130   39.1400 N.3   100  ARG100     -0.1231
     83  CA       -34.5340    4.4790   38.8940 C.3   100  ARG100      0.1694
     84  C        -33.2340    5.2250   39.1200 C.2   100  ARG100      0.2591
     85  O        -32.2320    4.6360   39.5430 O.2   100  ARG100     -0.2718
     86  CB       -34.5370    3.9160   37.4650 C.3   100  ARG100      0.0321
     87  CG       -35.4630    2.7410   37.2640 C.3   100  ARG100      0.0489
     88  CD       -35.4020    2.2330   35.8180 C.3   100  ARG100      0.2205
     89  NE       -36.0230    0.9170   35.7100 N.pl3 100  ARG100     -0.0865
     90  CZ       -35.6100   -0.0470   34.8890 C.cat 100  ARG100      0.5346
     91  NH1      -34.5850    0.1600   34.0660 N.pl3 100  ARG100      0.1354
     92  NH2      -36.2310   -1.2150   34.8840 N.pl3 100  ARG100      0.1354
     93  N        -33.2490    6.5210   38.8340 N.am  101  MET101     -0.1979
     94  CA       -32.0440    7.3370   38.9440 C.3   101  MET101      0.1605
     95  C        -31.4160    7.3950   40.3340 C.2   101  MET101      0.2287
     96  O        -30.2140    7.6230   40.4370 O.2   101  MET101     -0.2864
     97  CB       -32.3160    8.7620   38.4700 C.3   101  MET101      0.0413
     98  CG       -32.3120    8.9070   36.9440 C.3   101  MET101      0.0598
     99  SD       -32.4680   10.6350   36.4520 S.3   101  MET101     -0.1393
    100  CE       -31.7310   11.3800   37.9110 C.3   101  MET101      0.0692
    101  N        -30.6260    5.2010   42.3250 N.3   103  ARG103     -0.1231
    102  CA       -29.5520    4.2220   42.3840 C.3   103  ARG103      0.1694
    103  C        -28.2060    4.7860   41.9310 C.2   103  ARG103      0.2591
    104  O        -27.1630    4.3560   42.4220 O.2   103  ARG103     -0.2718
    105  CB       -29.8830    3.0330   41.4950 C.3   103  ARG103      0.0321
    106  CG       -31.0330    2.2210   41.9910 C.3   103  ARG103      0.0489
    107  CD       -31.5540    1.3310   40.8930 C.3   103  ARG103      0.2205
    108  NE       -30.8790    0.0330   40.7740 N.pl3 103  ARG103     -0.0865
    109  CZ       -30.0550   -0.3090   39.7840 C.cat 103  ARG103      0.5346
    110  NH1      -29.7410    0.5630   38.8260 N.pl3 103  ARG103      0.1354
    111  NH2      -29.5270   -1.5270   39.7570 N.pl3 103  ARG103      0.1354
    112  N        -28.2300    5.7230   40.9820 N.am  104  ALA104     -0.1980
    113  CA       -26.9930    6.2080   40.3700 C.3   104  ALA104      0.1597
    114  C        -26.5760    7.5120   41.0410 C.2   104  ALA104      0.2287
    115  O        -25.6830    8.2190   40.5850 O.2   104  ALA104     -0.2864
    116  CB       -27.1850    6.4010   38.8750 C.3   104  ALA104      0.0319
    117  N        -24.0000   12.2930   40.5180 N.3   112  VAL112     -0.1231
    118  CA       -24.7570   11.2910   39.7960 C.3   112  VAL112      0.1692
    119  C        -23.8440   10.6440   38.7560 C.2   112  VAL112      0.2592
    120  O        -22.9410   11.2860   38.2200 O.2   112  VAL112     -0.2718
    121  CB       -26.0170   11.9150   39.1310 C.3   112  VAL112      0.0266
    122  CG1      -25.6370   12.7620   37.8910 C.3   112  VAL112      0.0020
    123  CG2      -27.0100   10.8350   38.7480 C.3   112  VAL112      0.0020
    124  N        -24.0850    9.3700   38.4810 N.am  113  PHE113     -0.1962
    125  CA       -23.3120    8.6420   37.4960 C.3   113  PHE113      0.1771
    126  C        -23.7770    9.0660   36.1170 C.2   113  PHE113      0.2619
    127  O        -24.9450    8.9120   35.7750 O.2   113  PHE113     -0.2715
    128  CB       -23.4910    7.1330   37.6890 C.3   113  PHE113      0.0574
    129  CG       -22.4880    6.3060   36.9350 C.ar  113  PHE113     -0.0200
    130  CD1      -21.1590    6.2680   37.3400 C.ar  113  PHE113     -0.0042
    131  CD2      -22.8730    5.5580   35.8270 C.ar  113  PHE113     -0.0042
    132  CE1      -20.2230    5.5090   36.6450 C.ar  113  PHE113     -0.0003
    133  CE2      -21.9390    4.7920   35.1290 C.ar  113  PHE113     -0.0003
    134  CZ       -20.6120    4.7720   35.5450 C.ar  113  PHE113     -0.0000
    135  N        -22.8580    9.6280   35.3380 N.am  114  PHE114     -0.1974
    136  CA       -23.1730   10.1430   34.0120 C.3   114  PHE114      0.1639
    137  C        -21.9940    9.9120   33.0740 C.2   114  PHE114      0.2290
    138  O        -20.9050   10.4010   33.3380 O.2   114  PHE114     -0.2864
    139  CB       -23.4830   11.6450   34.0710 C.3   114  PHE114      0.0560
    140  CG       -23.8910   12.2190   32.7460 C.ar  114  PHE114     -0.0200
    141  CD1      -25.1570   11.9920   32.2430 C.ar  114  PHE114     -0.0042
    142  CD2      -23.0060   12.9760   31.9990 C.ar  114  PHE114     -0.0042
    143  CE1      -25.5400   12.5240   31.0150 C.ar  114  PHE114     -0.0003
    144  CE2      -23.3840   13.5070   30.7640 C.ar  114  PHE114     -0.0003
    145  CZ       -24.6450   13.2790   30.2760 C.ar  114  PHE114     -0.0000
    146  N        -24.0420   19.9500   34.3100 N.3   124  PHE124     -0.1241
    147  CA       -25.1100   20.1120   33.3240 C.3   124  PHE124      0.1605
    148  C        -25.4060   21.5780   33.0400 C.2   124  PHE124      0.2264
    149  O        -26.4490   21.9110   32.4910 O.2   124  PHE124     -0.2867
    150  CB       -26.3630   19.3620   33.8140 C.3   124  PHE124      0.0534
    151  CG       -26.1170   17.8860   34.0230 C.ar  124  PHE124     -0.0203
    152  CD1      -25.7200   17.4060   35.2580 C.ar  124  PHE124     -0.0042
    153  CD2      -26.2220   16.9970   32.9620 C.ar  124  PHE124     -0.0042
    154  CE1      -25.4570   16.0710   35.4430 C.ar  124  PHE124     -0.0003
    155  CE2      -25.9580   15.6440   33.1310 C.ar  124  PHE124     -0.0003
    156  CZ       -25.5680   15.1830   34.3670 C.ar  124  PHE124     -0.0000
    157  N        -26.9330   23.2760   29.7860 N.3   127  LEU127     -0.1245
    158  CA       -28.3440   23.0790   29.4470 C.3   127  LEU127      0.1561
    159  C        -29.2190   24.2750   29.8100 C.2   127  LEU127      0.2260
    160  O        -30.3050   24.4320   29.2630 O.2   127  LEU127     -0.2867
    161  CB       -28.9140   21.8350   30.1390 C.3   127  LEU127      0.0270
    162  CG       -28.4080   20.5060   29.5910 C.3   127  LEU127      0.0019
    163  CD1      -28.9180   19.3530   30.4350 C.3   127  LEU127      0.0001
    164  CD2      -28.8440   20.3450   28.1260 C.3   127  LEU127      0.0001
    165  N        -30.8570   24.6840   32.5430 N.3   129  CYS129     -0.1235
    166  CA       -32.0430   24.1150   33.1860 C.3   129  CYS129      0.1677
    167  C        -31.7230   23.8860   34.6530 C.2   129  CYS129      0.2270
    168  O        -31.9480   22.8000   35.1840 O.2   129  CYS129     -0.2867
    169  CB       -32.4100   22.7690   32.5430 C.3   129  CYS129      0.0956
    170  SG       -32.8010   22.8870   30.8050 S.3   129  CYS129     -0.0801
    171  N        -34.6580   22.7380   37.0370 N.3   132  LEU132     -0.1231
    172  CA       -34.9810   21.3470   36.7340 C.3   132  LEU132      0.1693
    173  C        -33.9120   20.3890   37.2760 C.2   132  LEU132      0.2591
    174  O        -34.2310   19.4290   37.9670 O.2   132  LEU132     -0.2718
    175  CB       -35.1650   21.1370   35.2320 C.3   132  LEU132      0.0284
    176  CG       -35.4120   19.6760   34.8530 C.3   132  LEU132      0.0019
    177  CD1      -36.6430   19.1350   35.5930 C.3   132  LEU132      0.0001
    178  CD2      -35.5460   19.4950   33.3390 C.3   132  LEU132      0.0001
    179  N        -32.6450   20.6480   36.9700 N.am  133  ILE133     -0.1980
    180  CA       -31.5830   19.7550   37.4270 C.3   133  ILE133      0.1595
    181  C        -31.5680   19.7130   38.9460 C.2   133  ILE133      0.2287
    182  O        -31.4500   18.6470   39.5590 O.2   133  ILE133     -0.2864
    183  CB       -30.1990   20.1830   36.9160 C.3   133  ILE133      0.0276
    184  CG1      -30.1760   20.2400   35.3840 C.3   133  ILE133      0.0022
    185  CG2      -29.1170   19.2340   37.4500 C.3   133  ILE133      0.0022
    186  CD1      -30.5110   18.9450   34.7310 C.3   133  ILE133      0.0001
    187  N        -34.3210   17.5770   40.3320 N.3   136  ILE136     -0.1231
    188  CA       -34.0440   16.1690   40.1320 C.3   136  ILE136      0.1692
    189  C        -33.0330   15.6340   41.1510 C.2   136  ILE136      0.2592
    190  O        -33.2110   14.5410   41.7190 O.2   136  ILE136     -0.2718
    191  CB       -33.5780   15.9220   38.7000 C.3   136  ILE136      0.0266
    192  CG1      -34.7650   16.0590   37.7430 C.3   136  ILE136      0.0019
    193  CG2      -32.9450   14.5640   38.5750 C.3   136  ILE136      0.0020
    194  CD1      -34.3860   15.9420   36.2730 C.3   136  ILE136      0.0001
    195  N        -31.9710   16.3980   41.3840 N.am  137  PHE137     -0.1976
    196  CA       -30.9970   16.0540   42.4230 C.3   137  PHE137      0.1639
    197  C        -31.6450   16.0140   43.8130 C.2   137  PHE137      0.2290
    198  O        -31.3090   15.1560   44.6220 O.2   137  PHE137     -0.2864
    199  CB       -29.7950   17.0240   42.4120 C.3   137  PHE137      0.0560
    200  CG       -28.6670   16.6030   41.4820 C.ar  137  PHE137     -0.0200
    201  CD1      -28.8520   16.5660   40.1050 C.ar  137  PHE137     -0.0042
    202  CD2      -27.4230   16.2550   41.9930 C.ar  137  PHE137     -0.0042
    203  CE1      -27.8140   16.1830   39.2560 C.ar  137  PHE137     -0.0003
    204  CE2      -26.3920   15.8680   41.1580 C.ar  137  PHE137     -0.0003
    205  CZ       -26.5840   15.8320   39.7870 C.ar  137  PHE137     -0.0000
    206  N        -39.9810   18.0880   33.6870 N.3   215  HIS215     -0.1241
    207  CA       -38.9440   17.3670   32.9520 C.3   215  HIS215      0.1621
    208  C        -39.3020   17.2470   31.4670 C.2   215  HIS215      0.2264
    209  O        -38.5300   17.6720   30.6080 O.2   215  HIS215     -0.2867
    210  CB       -38.7200   15.9770   33.5620 C.3   215  HIS215      0.0745
    211  CG       -37.4950   15.2790   33.0520 C.ar  215  HIS215      0.0817
    212  ND1      -36.2990   15.7630   32.6390 N.ar  215  HIS215     -0.2268
    213  CD2      -37.4130   13.9090   32.9400 C.ar  215  HIS215      0.1154
    214  CE1      -35.5250   14.6830   32.2860 C.ar  215  HIS215      0.1986
    215  NE2      -36.2210   13.5770   32.4730 N.ar  215  HIS215     -0.2212
    216  N        -39.3430   20.3750   29.2680 N.3   218  ARG218     -0.1231
    217  CA       -37.9850   20.7820   28.9450 C.3   218  ARG218      0.1694
    218  C        -37.3460   19.8810   27.8870 C.2   218  ARG218      0.2591
    219  O        -36.5210   20.3330   27.0880 O.2   218  ARG218     -0.2718
    220  CB       -37.1340   20.8320   30.2130 C.3   218  ARG218      0.0321
    221  CG       -35.7980   21.5020   30.0270 C.3   218  ARG218      0.0489
    222  CD       -35.8760   22.7060   29.0840 C.3   218  ARG218      0.2205
    223  NE       -36.8520   23.7120   29.4920 N.pl3 218  ARG218     -0.0865
    224  CZ       -37.0450   24.8530   28.8410 C.cat 218  ARG218      0.5346
    225  NH1      -36.3220   25.1290   27.7630 N.pl3 218  ARG218      0.1354
    226  NH2      -37.9530   25.7210   29.2650 N.pl3 218  ARG218      0.1354
    227  N        -37.7370   18.6110   27.8770 N.am  219  LEU219     -0.1980
    228  CA       -37.3390   17.7010   26.8080 C.3   219  LEU219      0.1596
    229  C        -38.0870   18.0880   25.5320 C.2   219  LEU219      0.2287
    230  O        -37.7250   17.6620   24.4350 O.2   219  LEU219     -0.2864
    231  CB       -37.6450   16.2480   27.2020 C.3   219  LEU219      0.0297
    232  CG       -37.0700   15.0570   26.4120 C.3   219  LEU219      0.0022
    233  CD1      -37.9580   14.6310   25.2390 C.3   219  LEU219      0.0001
    234  CD2      -35.6340   15.3160   25.9550 C.3   219  LEU219      0.0001
@<TRIPOS>BOND
     1    38    40   ar
     2    38    37   ar
     3    36    37    1
     4    36    33    1
     5    40    41   ar
     6    34    35    2
     7    34    33    1
     8    37    39   ar
     9   230   229    2
    10    33    32    1
    11   233   232    1
    12    41    39   ar
    13    41    43   ar
    14   229   228    1
    15    39    42   ar
    16   234   232    1
    17    43    45   ar
    18   232   231    1
    19    52    53    1
    20    46    47    1
    21    42    44   ar
    22   228   231    1
    23   228   227    1
    24    48    49    2
    25    48    47    1
    26   219   218    2
    27    45    44   ar
    28    47    50    1
    29    64    65    2
    30    64    63    1
    31    60    58   ar
    32    60    61   ar
    33   225   224    1
    34    53    54    1
    35    53    56    1
    36   227   218   am
    37   218   217    1
    38    58    57   ar
    39    61    59   ar
    40   164   162    1
    41    62    54   am
    42    62    63    1
    43    50    51    1
    44    54    55    2
    45    66    63    1
    46    66    67    1
    47    57    59   ar
    48    57    56    1
    49    70    71    1
    50   224   226    1
    51   224   223    2
    52    69    67    1
    53   217   216    1
    54   217   220    1
    55   222   223    1
    56   222   221    1
    57   160   159    2
    58    67    68    1
    59   158   157    1
    60   158   159    1
    61   158   161    1
    62   162   161    1
    63   162   163    1
    64    72    71    1
    65    72    73    2
    66    71    74    1
    67   221   220    1
    68   145   144   ar
    69   145   143   ar
    70    15    13   am
    71   209   208    2
    72   144   142   ar
    73   170   169    1
    74   143   141   ar
    75    13    12    1
    76    13    14    2
    77   208   207    1
    78    12    11    1
    79   142   140   ar
    80   141   140   ar
    81   214   215   ar
    82   214   212   ar
    83    81    79    1
    84   215   213   ar
    85   149   148    2
    86   169   166    1
    87   165   166    1
    88    11     8    1
    89   212   211   ar
    90   140   139    1
    91    10     9    2
    92     8     9    1
    93     8     7    1
    94   213   211   ar
    95   207   210    1
    96   207   206    1
    97   153   155   ar
    98   153   151   ar
    99   148   147    1
   100   211   210    1
   101   137   138    2
   102   137   136    1
   103   155   156   ar
   104   166   167    1
   105   147   150    1
   106   147   146    1
   107   178   176    1
   108     9    16   am
   109    80    79    1
   110    79    76    1
   111     7     3   am
   112    23    21    1
   113   150   151    1
   114   136   139    1
   115   136   135    1
   116   151   152   ar
   117    91    90    1
   118   156   154   ar
   119    21    22    1
   120    21    20    1
   121    16    17    1
   122   167   168    2
   123     1     2    1
   124   186   184    1
   125   176   175    1
   126   176   177    1
   127    92    90    1
   128    90    89    2
   129     3     4    2
   130     3     2    1
   131    76    75    1
   132    76    77    1
   133   133   134   ar
   134   133   131   ar
   135   175   172    1
   136   152   154   ar
   137    17    20    1
   138    17    18    1
   139   135   126   am
   140   184   183    1
   141   134   132   ar
   142     2     5    1
   143    89    88    1
   144   127   126    2
   145    88    87    1
   146   131   129   ar
   147    77    78    2
   148   126   125    1
   149   194   192    1
   150    99    98    1
   151    99   100    1
   152    18    19    2
   153   132   130   ar
   154   172   171    1
   155   172   173    1
   156     6     5    1
   157   183   180    1
   158   183   185    1
   159   129   130   ar
   160   129   128    1
   161    98    97    1
   162   179   173   am
   163   179   180    1
   164    87    86    1
   165   173   174    2
   166   180   181    1
   167    86    83    1
   168   125   128    1
   169   125   124    1
   170   192   191    1
   171   122   121    1
   172   120   119    2
   173    31    29    1
   174    97    94    1
   175   124   119   am
   176   193   191    1
   177   191   188    1
   178   123   121    1
   179   119   118    1
   180   110   109    1
   181    93    94    1
   182    93    84   am
   183   116   113    1
   184    83    84    1
   185    83    82    1
   186    94    95    1
   187   181   182    2
   188    84    85    2
   189   121   118    1
   190    29    30    1
   191    29    28    1
   192   203   205   ar
   193   203   201   ar
   194   111   109    1
   195   109   108    2
   196   205   204   ar
   197   118   117    1
   198   201   200   ar
   199   188   187    1
   200   188   189    1
   201    24    25    1
   202    95    96    2
   203   113   112    1
   204   113   114    1
   205    25    28    1
   206    25    26    1
   207   115   114    2
   208   108   107    1
   209   107   106    1
   210   112   103   am
   211   189   195   am
   212   189   190    2
   213   204   202   ar
   214   195   196    1
   215   200   202   ar
   216   200   199    1
   217   105   106    1
   218   105   102    1
   219    26    27    2
   220   103   102    1
   221   103   104    2
   222   101   102    1
   223   199   196    1
   224   196   197    1
   225   197   198    2
