@<TRIPOS>MOLECULE
tmp/4qm1C01.pdb
 94 86 0 0 0
SMALL
GASTEIGER

@<TRIPOS>ATOM
      1  N         38.0270   21.3260   29.4350 N.3    77  LYS77      -0.1245
      2  CA        39.3520   21.8820   29.6570 C.3    77  LYS77       0.1561
      3  C         39.6410   23.1860   28.9330 C.2    77  LYS77       0.2260
      4  O         40.7230   23.7300   29.0720 O.2    77  LYS77      -0.2867
      5  CB        40.4240   20.8570   29.3010 C.3    77  LYS77       0.0271
      6  CG        40.1440   20.0910   28.0270 C.3    77  LYS77       0.0035
      7  CD        41.3180   19.2110   27.6490 C.3    77  LYS77       0.0206
      8  CE        41.3530   18.9590   26.1580 C.3    77  LYS77       0.1093
      9  NZ        42.4420   19.7340   25.5110 N.3    77  LYS77      -0.1314
     10  N         41.3910   12.7820   27.6460 N.3   127  ASP127     -0.1225
     11  CA        40.7390   12.6160   26.3430 C.3   127  ASP127      0.1805
     12  C         41.6720   12.9670   25.1830 C.2   127  ASP127      0.2598
     13  O         42.3530   13.9950   25.1930 O.2   127  ASP127     -0.2718
     14  CB        39.4550   13.4640   26.2670 C.3   127  ASP127      0.1424
     15  CG        38.6800   13.2560   24.9570 C.2   127  ASP127      0.3668
     16  OD1       37.9050   12.2730   24.8680 O.co2 127  ASP127     -0.2456
     17  OD2       38.8280   14.0910   24.0280 O.co2 127  ASP127     -0.2456
     18  N         41.6930   12.0800   24.1930 N.am  128  THR128     -0.1939
     19  CA        42.4730   12.2380   22.9770 C.3   128  THR128      0.2028
     20  C         41.7210   11.5710   21.8370 C.2   128  THR128      0.2642
     21  O         41.0070   10.5900   22.0450 O.2   128  THR128     -0.2714
     22  CB        43.8580   11.5910   23.0830 C.3   128  THR128      0.1808
     23  OG1       44.3530   11.7200   24.4170 O.3   128  THR128     -0.2208
     24  CG2       44.8380   12.2450   22.1050 C.3   128  THR128      0.0379
     25  N         41.8960   12.0960   20.6290 N.am  129  ALA129     -0.1963
     26  CA        41.3560   11.4800   19.4210 C.3   129  ALA129      0.1728
     27  C         41.8950   10.0760   19.2180 C.2   129  ALA129      0.2616
     28  O         41.2670    9.2410   18.5630 O.2   129  ALA129     -0.2715
     29  CB        41.6880   12.3190   18.2260 C.3   129  ALA129      0.0334
     30  N         43.0830    9.8370   19.7540 N.am  130  HIS130     -0.1973
     31  CA        43.7300    8.5570   19.5860 C.3   130  HIS130      0.1656
     32  C         44.3870    8.1160   20.8830 C.2   130  HIS130      0.2291
     33  O         45.5420    8.4460   21.1460 O.2   130  HIS130     -0.2864
     34  CB        44.7560    8.6260   18.4590 C.3   130  HIS130      0.0771
     35  CG        45.2420    7.2870   18.0080 C.ar  130  HIS130      0.0820
     36  ND1       44.3980    6.2120   17.8290 N.ar  130  HIS130     -0.2267
     37  CD2       46.4810    6.8500   17.6850 C.ar  130  HIS130      0.1154
     38  CE1       45.0980    5.1690   17.4300 C.ar  130  HIS130      0.1986
     39  NE2       46.3660    5.5280   17.3320 N.ar  130  HIS130     -0.2212
     40  N         48.1260    5.5770   21.9340 N.3   133  SER133     -0.1217
     41  CA        49.4000    6.1990   21.6220 C.3   133  SER133      0.1889
     42  C         50.3410    6.0930   22.8040 C.2   133  SER133      0.2288
     43  O         49.9040    5.9130   23.9410 O.2   133  SER133     -0.2866
     44  CB        49.2000    7.6570   21.2320 C.3   133  SER133      0.2089
     45  OG        48.5470    8.3650   22.2700 O.3   133  SER133     -0.2183
     46  N         31.1600   14.8130   14.4390 N.3   184  CYS184     -0.1235
     47  CA        32.4570   14.2340   14.1490 C.3   184  CYS184      0.1677
     48  C         32.6170   14.0030   12.6530 C.2   184  CYS184      0.2270
     49  O         31.7310   13.4520   11.9950 O.2   184  CYS184     -0.2867
     50  CB        32.6350   12.9270   14.9280 C.3   184  CYS184      0.0956
     51  SG        34.2500   12.1460   14.7630 S.3   184  CYS184     -0.0801
     52  N         35.8290   12.8280   11.4880 N.3   186  THR186     -0.1218
     53  CA        37.0140   11.9880   11.3980 C.3   186  THR186      0.1862
     54  C         36.8940   10.9240   10.3130 C.2   186  THR186      0.2287
     55  O         37.8790   10.5370    9.7060 O.2   186  THR186     -0.2866
     56  CB        37.2720   11.3130   12.7420 C.3   186  THR186      0.1770
     57  OG1       37.5630   12.3230   13.7150 O.3   186  THR186     -0.2211
     58  CG2       38.4260   10.3140   12.6620 C.3   186  THR186      0.0375
     59  N         35.0310   19.6890   19.9430 N.3   267  MET267     -0.1230
     60  CA        36.2600   20.2570   20.4990 C.3   267  MET267      0.1702
     61  C         37.3900   20.3270   19.4610 C.2   267  MET267      0.2592
     62  O         38.4170   20.9680   19.6910 O.2   267  MET267     -0.2718
     63  CB        36.7060   19.4410   21.7200 C.3   267  MET267      0.0401
     64  CG        35.6980   19.4180   22.8670 C.3   267  MET267      0.0596
     65  SD        35.5710   21.0040   23.7420 S.3   267  MET267     -0.1393
     66  CE        37.1690   21.0540   24.5570 C.3   267  MET267      0.0692
     67  N         37.1860   19.6740   18.3180 N.am  268  GLY268     -0.1957
     68  CA        38.1470   19.6840   17.2230 C.3   268  GLY268      0.1869
     69  C         37.6520   20.4890   16.0280 C.2   268  GLY268      0.2309
     70  O         38.2400   20.4550   14.9410 O.2   268  GLY268     -0.2863
     71  N         38.6520   25.2210   19.0390 N.3   273  MET273     -0.1245
     72  CA        40.1100   25.2260   19.0650 C.3   273  MET273      0.1570
     73  C         40.6140   26.6520   19.2290 C.2   273  MET273      0.2261
     74  O         41.6470   27.0210   18.6770 O.2   273  MET273     -0.2867
     75  CB        40.6960   24.5930   17.7970 C.3   273  MET273      0.0387
     76  CG        40.4950   23.0800   17.6920 C.3   273  MET273      0.0595
     77  SD        41.3570   22.3390   16.2880 S.3   273  MET273     -0.1393
     78  CE        43.0770   22.5700   16.7400 C.3   273  MET273      0.0692
     79  N         43.8170   20.7320   10.8160 N.3   274  VAL274     -0.1245
     80  CA        42.5640   20.4980   10.0940 C.3   274  VAL274      0.1561
     81  C         41.4340   20.0200   11.0010 C.2   274  VAL274      0.2260
     82  O         41.6140   19.1130   11.8170 O.2   274  VAL274     -0.2867
     83  CB        42.7250   19.4520    8.9520 C.3   274  VAL274      0.0252
     84  CG1       43.5420   20.0290    7.8060 C.3   274  VAL274      0.0019
     85  CG2       43.3250   18.1330    9.4780 C.3   274  VAL274      0.0019
     86  N         38.1680   18.2270   12.5440 N.3   276  GLU276     -0.1245
     87  CA        37.5580   16.9010   12.5350 C.3   276  GLU276      0.1567
     88  C         36.2080   16.9330   13.2480 C.2   276  GLU276      0.2260
     89  O         35.4660   15.9550   13.2700 O.2   276  GLU276     -0.2867
     90  CB        38.4710   15.8930   13.2090 C.3   276  GLU276      0.0388
     91  CG        39.8800   15.9070   12.6830 C.3   276  GLU276      0.1160
     92  CD        40.5880   14.6150   12.9620 C.2   276  GLU276      0.3649
     93  OE1       41.6870   14.6800   13.5420 O.co2 276  GLU276     -0.2457
     94  OE2       40.0470   13.5450   12.6000 O.co2 276  GLU276     -0.2457
@<TRIPOS>BOND
     1    84    83    1
     2    83    85    1
     3    83    80    1
     4    55    54    2
     5    80    79    1
     6    80    81    1
     7    54    53    1
     8    81    82    2
     9    53    52    1
    10    53    56    1
    11    49    48    2
    12    87    86    1
    13    87    90    1
    14    87    88    1
    15    94    92   ar
    16    48    47    1
    17    58    56    1
    18    91    92    1
    19    91    90    1
    20    56    57    1
    21    92    93   ar
    22    88    89    2
    23    47    46    1
    24    47    50    1
    25    51    50    1
    26    70    69    2
    27    69    68    1
    28    77    78    1
    29    77    76    1
    30    68    67    1
    31    39    38   ar
    32    39    37   ar
    33    38    36   ar
    34    37    35   ar
    35    76    75    1
    36    75    72    1
    37    36    35   ar
    38    35    34    1
    39    29    26    1
    40    67    61   am
    41    34    31    1
    42    28    27    2
    43    74    73    2
    44    71    72    1
    45    72    73    1
    46    27    26    1
    47    27    30   am
    48    26    25    1
    49    61    62    2
    50    61    60    1
    51    31    30    1
    52    31    32    1
    53    59    60    1
    54    60    63    1
    55    25    20   am
    56    32    33    2
    57    44    41    1
    58    44    45    1
    59    41    40    1
    60    41    42    1
    61    63    64    1
    62    20    21    2
    63    20    19    1
    64    24    22    1
    65    42    43    2
    66    64    65    1
    67    19    22    1
    68    19    18    1
    69    22    23    1
    70    65    66    1
    71    17    15   ar
    72    18    12   am
    73    16    15   ar
    74    15    14    1
    75    12    13    2
    76    12    11    1
    77     9     8    1
    78     8     7    1
    79    14    11    1
    80    11    10    1
    81     7     6    1
    82     6     5    1
    83     3     4    2
    84     3     2    1
    85     5     2    1
    86     1     2    1
