@<TRIPOS>MOLECULE
tmp/4qm6B00.pdb
 208 196 0 0 0
SMALL
GASTEIGER

@<TRIPOS>ATOM
      1  N        -17.4240   18.6920  -45.2810 N.3    18  SER18      -0.1217
      2  CA       -16.3840   19.0450  -46.2300 C.3    18  SER18       0.1889
      3  C        -15.4850   20.1010  -45.5820 C.2    18  SER18       0.2288
      4  O        -15.9630   21.0070  -44.8890 O.2    18  SER18      -0.2866
      5  CB       -17.0020   19.5820  -47.5270 C.3    18  SER18       0.2089
      6  OG       -16.0010   19.9550  -48.4610 O.3    18  SER18      -0.2183
      7  N        -10.9420   15.2300  -43.0760 N.3    22  LYS22      -0.1245
      8  CA       -11.0900   13.7690  -43.0800 C.3    22  LYS22       0.1561
      9  C        -10.0160   13.0590  -43.9040 C.2    22  LYS22       0.2260
     10  O         -9.4040   12.1010  -43.4300 O.2    22  LYS22      -0.2867
     11  CB       -12.4770   13.3610  -43.6010 C.3    22  LYS22       0.0271
     12  CG       -13.6510   13.8780  -42.7540 C.3    22  LYS22       0.0035
     13  CD       -14.9880   13.4030  -43.3360 C.3    22  LYS22       0.0206
     14  CE       -15.2150   13.8600  -44.7790 C.3    22  LYS22       0.1093
     15  NZ       -15.2770   15.3610  -44.9020 N.3    22  LYS22      -0.1314
     16  N        -15.4160    8.2080  -50.7630 N.3    38  SER38      -0.1202
     17  CA       -16.5590    8.3840  -51.6580 C.3    38  SER38       0.2020
     18  C        -16.2130    9.2530  -52.8720 C.2    38  SER38       0.2618
     19  O        -16.6840    8.9840  -53.9820 O.2    38  SER38      -0.2717
     20  CB       -17.7350    8.9730  -50.8880 C.3    38  SER38       0.2103
     21  OG       -17.3510   10.1770  -50.2540 O.3    38  SER38      -0.2182
     22  N        -15.3980   10.2890  -52.6790 N.am   39  ASN39      -0.1974
     23  CA       -14.9950   11.1160  -53.8170 C.3    39  ASN39       0.1688
     24  C        -14.1550   10.3190  -54.8170 C.2    39  ASN39       0.2292
     25  O        -14.3400   10.4270  -56.0350 O.2    39  ASN39      -0.2864
     26  CB       -14.2870   12.3870  -53.3420 C.3    39  ASN39       0.1181
     27  CG       -15.2420   13.3300  -52.6270 C.2    39  ASN39       0.2629
     28  OD1      -16.4250   13.3780  -52.9660 O.2    39  ASN39      -0.2716
     29  ND2      -14.7470   14.0600  -51.6230 N.am   39  ASN39      -0.0877
     30  N        -16.4960    8.3880  -56.8560 N.3    42  ARG42      -0.1245
     31  CA       -17.0860    9.2160  -57.9130 C.3    42  ARG42       0.1563
     32  C        -16.1490    9.2740  -59.1230 C.2    42  ARG42       0.2260
     33  O        -16.5950    9.1810  -60.2750 O.2    42  ARG42      -0.2867
     34  CB       -17.4000   10.6230  -57.3880 C.3    42  ARG42       0.0307
     35  CG       -18.6320   10.6930  -56.5080 C.3    42  ARG42       0.0489
     36  CD       -18.9550   12.1550  -56.1030 C.3    42  ARG42       0.2205
     37  NE       -20.1710   12.2040  -55.2870 N.pl3  42  ARG42      -0.0865
     38  CZ       -20.2010   12.1860  -53.9500 C.cat  42  ARG42       0.5346
     39  NH1      -19.0820   12.1650  -53.2320 N.pl3  42  ARG42       0.1354
     40  NH2      -21.3670   12.1810  -53.3260 N.pl3  42  ARG42       0.1354
     41  N        -15.9340   15.3650  -58.4360 N.3    50  ASN50      -0.1240
     42  CA       -16.8220   16.4500  -58.0360 C.3    50  ASN50       0.1653
     43  C        -18.2710   16.2350  -58.4730 C.2    50  ASN50       0.2266
     44  O        -19.1500   17.0200  -58.1250 O.2    50  ASN50      -0.2867
     45  CB       -16.2940   17.7690  -58.6250 C.3    50  ASN50       0.1155
     46  CG       -16.7490   18.9800  -57.8520 C.2    50  ASN50       0.2627
     47  OD1      -17.0420   20.0290  -58.4280 O.2    50  ASN50      -0.2716
     48  ND2      -16.8170   18.8420  -56.5390 N.am   50  ASN50      -0.0877
     49  N        -21.8140   15.2390  -58.4450 N.3    52  GLN52      -0.1231
     50  CA       -22.8310   14.7930  -57.4990 C.3    52  GLN52       0.1698
     51  C        -23.8990   13.9110  -58.1260 C.2    52  GLN52       0.2592
     52  O        -24.6080   13.1990  -57.4180 O.2    52  GLN52      -0.2718
     53  CB       -23.4970   16.0020  -56.8280 C.3    52  GLN52       0.0381
     54  CG       -22.5190   16.9680  -56.1800 C.3    52  GLN52       0.0905
     55  CD       -21.6340   16.2650  -55.1780 C.2    52  GLN52       0.2608
     56  OE1      -22.1270   15.7300  -54.1850 O.2    52  GLN52      -0.2717
     57  NE2      -20.3300   16.2640  -55.4270 N.am   52  GLN52      -0.0878
     58  N        -24.0140   13.9500  -59.4550 N.am   53  THR53      -0.1953
     59  CA       -25.0580   13.1770  -60.1140 C.3    53  THR53       0.1897
     60  C        -24.7350   11.6920  -60.1750 C.2    53  THR53       0.2313
     61  O        -25.6200   10.8850  -60.4560 O.2    53  THR53      -0.2863
     62  CB       -25.3680   13.6900  -61.5360 C.3    53  THR53       0.1794
     63  OG1      -24.3000   13.3370  -62.4140 O.3    53  THR53      -0.2208
     64  CG2      -25.5530   15.2010  -61.5250 C.3    53  THR53       0.0378
     65  N        -23.5020   10.0760  -57.5070 N.3    55  THR55      -0.1203
     66  CA       -23.4700    9.6890  -56.0970 C.3    55  THR55       0.1994
     67  C        -23.9800    8.2730  -55.8340 C.2    55  THR55       0.2618
     68  O        -23.3670    7.5160  -55.0700 O.2    55  THR55      -0.2717
     69  CB       -24.2580   10.7270  -55.2740 C.3    55  THR55       0.1784
     70  OG1      -23.5370   11.9620  -55.3010 O.3    55  THR55      -0.2211
     71  CG2      -24.4490   10.2830  -53.8260 C.3    55  THR55       0.0376
     72  N        -25.0850    7.8990  -56.4750 N.am   56  GLY56      -0.1956
     73  CA       -25.6580    6.5860  -56.2470 C.3    56  GLY56       0.1869
     74  C        -24.6870    5.4810  -56.6300 C.2    56  GLY56       0.2309
     75  O        -24.4460    4.5430  -55.8620 O.2    56  GLY56      -0.2863
     76  N        -21.5090    5.3490  -54.2650 N.3    59  PHE59      -0.1241
     77  CA       -21.7060    4.6970  -52.9770 C.3    59  PHE59       0.1605
     78  C        -22.0070    3.2130  -53.1350 C.2    59  PHE59       0.2264
     79  O        -21.6660    2.4270  -52.2510 O.2    59  PHE59      -0.2867
     80  CB       -22.7390    5.4130  -52.1140 C.3    59  PHE59       0.0534
     81  CG       -22.1650    6.5860  -51.3820 C.ar   59  PHE59      -0.0203
     82  CD1      -21.4050    6.3870  -50.2350 C.ar   59  PHE59      -0.0042
     83  CD2      -22.3390    7.8720  -51.8590 C.ar   59  PHE59      -0.0042
     84  CE1      -20.8420    7.4560  -49.5700 C.ar   59  PHE59      -0.0003
     85  CE2      -21.7690    8.9540  -51.1970 C.ar   59  PHE59      -0.0003
     86  CZ       -21.0290    8.7350  -50.0440 C.ar   59  PHE59      -0.0000
     87  N        -19.6780    0.7760  -50.9850 N.3    63  HIS63      -0.1241
     88  CA       -20.2490   -0.2550  -50.1250 C.3    63  HIS63       0.1621
     89  C        -19.7750   -1.6400  -50.5380 C.2    63  HIS63       0.2264
     90  O        -19.5330   -2.4970  -49.6830 O.2    63  HIS63      -0.2867
     91  CB       -21.7800   -0.2160  -50.1480 C.3    63  HIS63       0.0745
     92  CG       -22.3640    1.0040  -49.5020 C.ar   63  HIS63       0.0817
     93  ND1      -23.6410    1.4450  -49.7740 N.ar   63  HIS63      -0.2268
     94  CD2      -21.8410    1.8780  -48.6100 C.ar   63  HIS63       0.1154
     95  CE1      -23.8840    2.5360  -49.0650 C.ar   63  HIS63       0.1986
     96  NE2      -22.8080    2.8230  -48.3570 N.ar   63  HIS63      -0.2212
     97  N        -15.8910    9.6410  -46.0690 N.3    80  ALA80      -0.1231
     98  CA       -17.0280   10.3390  -46.6620 C.3    80  ALA80       0.1694
     99  C        -17.5430   11.2200  -45.5340 C.2    80  ALA80       0.2593
    100  O        -17.0650   11.1140  -44.3950 O.2    80  ALA80      -0.2718
    101  CB       -18.0990    9.3530  -47.1090 C.3    80  ALA80       0.0304
    102  N        -18.4990   12.1000  -45.8160 N.am   81  THR81      -0.1939
    103  CA       -18.9740   12.9840  -44.7460 C.3    81  THR81       0.2028
    104  C        -19.7120   12.2260  -43.6450 C.2    81  THR81       0.2642
    105  O        -19.5120   12.5070  -42.4590 O.2    81  THR81      -0.2714
    106  CB       -19.8490   14.1590  -45.2600 C.3    81  THR81       0.1808
    107  OG1      -21.0200   13.6620  -45.9250 O.3    81  THR81      -0.2208
    108  CG2      -19.0500   15.0790  -46.1850 C.3    81  THR81       0.0379
    109  N        -20.5590   11.2770  -44.0240 N.am   82  ASN82      -0.1971
    110  CA       -21.2770   10.4600  -43.0530 C.3    82  ASN82       0.1688
    111  C        -22.0860   11.2630  -42.0420 C.2    82  ASN82       0.2292
    112  O        -22.2800   10.8190  -40.8960 O.2    82  ASN82      -0.2864
    113  CB       -20.2970    9.5080  -42.3390 C.3    82  ASN82       0.1181
    114  CG       -19.7830    8.4330  -43.2590 C.2    82  ASN82       0.2629
    115  OD1      -20.5680    7.6780  -43.8310 O.2    82  ASN82      -0.2716
    116  ND2      -18.4650    8.3770  -43.4360 N.am   82  ASN82      -0.0877
    117  N        -25.2730   12.2770  -42.5100 N.3    84  GLN84      -0.1245
    118  CA       -26.6690   11.8490  -42.5360 C.3    84  GLN84       0.1566
    119  C        -26.7930   10.4360  -41.9720 C.2    84  GLN84       0.2260
    120  O        -26.0000    9.5520  -42.3120 O.2    84  GLN84      -0.2867
    121  CB       -27.2120   11.8860  -43.9680 C.3    84  GLN84       0.0367
    122  CG       -27.2730   13.2980  -44.5390 C.3    84  GLN84       0.0905
    123  CD       -27.8250   13.3580  -45.9480 C.2    84  GLN84       0.2608
    124  OE1      -28.7340   12.6040  -46.3150 O.2    84  GLN84      -0.2717
    125  NE2      -27.2780   14.2540  -46.7500 N.am   84  GLN84      -0.0878
    126  N        -28.8930    8.3160  -42.7990 N.3    86  SER86      -0.1202
    127  CA       -29.1630    7.4390  -43.9340 C.3    86  SER86       0.2020
    128  C        -27.8920    6.9860  -44.6440 C.2    86  SER86       0.2618
    129  O        -27.9050    5.9580  -45.3310 O.2    86  SER86      -0.2717
    130  CB       -30.1120    8.1100  -44.9360 C.3    86  SER86       0.2103
    131  OG       -29.5460    9.2990  -45.4480 O.3    86  SER86      -0.2182
    132  N        -26.8100    7.7440  -44.4860 N.am   87  ALA87      -0.1979
    133  CA       -25.5060    7.3330  -45.0210 C.3    87  ALA87       0.1597
    134  C        -24.8160    6.3300  -44.0950 C.2    87  ALA87       0.2287
    135  O        -24.1520    5.3960  -44.5430 O.2    87  ALA87      -0.2864
    136  CB       -24.6170    8.5380  -45.2300 C.3    87  ALA87       0.0319
    137  N        -26.3750    1.9970  -43.8570 N.3    90  PRO90      -0.2116
    138  CA       -25.8830    0.8290  -44.6080 C.3    90  PRO90       0.1372
    139  C        -24.4890    0.3770  -44.1900 C.2    90  PRO90       0.2244
    140  O        -24.1770   -0.8060  -44.2970 O.2    90  PRO90      -0.2868
    141  CB       -25.8680    1.3190  -46.0650 C.3    90  PRO90       0.0268
    142  CG       -25.8860    2.8380  -45.9630 C.3    90  PRO90       0.0207
    143  CD       -26.7160    3.1140  -44.7540 C.3    90  PRO90       0.0892
    144  N        -10.4610   21.0340  -54.7360 N.3   124  ARG124     -0.1245
    145  CA       -11.9050   20.9430  -54.9160 C.3   124  ARG124      0.1563
    146  C        -12.5370   21.7900  -53.8230 C.2   124  ARG124      0.2260
    147  O        -12.0320   21.8280  -52.7020 O.2   124  ARG124     -0.2867
    148  CB       -12.3550   19.4800  -54.7750 C.3   124  ARG124      0.0307
    149  CG       -13.8680   19.2330  -54.8940 C.3   124  ARG124      0.0489
    150  CD       -14.1910   17.7270  -54.9150 C.3   124  ARG124      0.2205
    151  NE       -13.3540   17.0280  -53.9440 N.pl3 124  ARG124     -0.0865
    152  CZ       -13.5720   17.0270  -52.6330 C.cat 124  ARG124      0.5346
    153  NH1      -14.6290   17.6590  -52.1260 N.pl3 124  ARG124      0.1354
    154  NH2      -12.7290   16.3950  -51.8330 N.pl3 124  ARG124      0.1354
    155  N        -16.5450   23.3330  -52.2000 N.3   126  VAL126     -0.1231
    156  CA       -18.0000   23.3120  -52.2070 C.3   126  VAL126      0.1692
    157  C        -18.5250   24.7090  -51.8660 C.2   126  VAL126      0.2591
    158  O        -17.7730   25.5740  -51.4010 O.2   126  VAL126     -0.2718
    159  CB       -18.5750   22.2680  -51.2130 C.3   126  VAL126      0.0266
    160  CG1      -18.1220   20.8470  -51.6080 C.3   126  VAL126      0.0020
    161  CG2      -18.1820   22.5910  -49.7600 C.3   126  VAL126      0.0020
    162  N        -19.8090   24.9390  -52.1100 N.am  127  GLU127     -0.1979
    163  CA       -20.4100   26.2280  -51.7800 C.3   127  GLU127      0.1602
    164  C        -20.5830   26.3670  -50.2660 C.2   127  GLU127      0.2287
    165  O        -20.6670   25.3710  -49.5400 O.2   127  GLU127     -0.2864
    166  CB       -21.7550   26.3930  -52.4800 C.3   127  GLU127      0.0415
    167  CG       -21.6430   26.5040  -53.9770 C.3   127  GLU127      0.1163
    168  CD       -21.9430   27.9060  -54.4600 C.2   127  GLU127      0.3649
    169  OE1      -23.0360   28.1140  -55.0260 O.co2 127  GLU127     -0.2457
    170  OE2      -21.0960   28.8010  -54.2580 O.co2 127  GLU127     -0.2457
    171  N        -23.0800   27.1820  -48.3960 N.3   129  TYR129     -0.1227
    172  CA       -24.2810   26.5900  -47.8090 C.3   129  TYR129      0.1736
    173  C        -24.0900   25.1040  -47.5130 C.2   129  TYR129      0.2595
    174  O        -24.7060   24.5710  -46.6010 O.2   129  TYR129     -0.2718
    175  CB       -25.5320   26.8060  -48.6840 C.3   129  TYR129      0.0548
    176  CG       -25.6420   25.9010  -49.8920 C.ar  129  TYR129     -0.0200
    177  CD1      -26.2830   24.6690  -49.8090 C.ar  129  TYR129     -0.0009
    178  CD2      -25.1260   26.2840  -51.1280 C.ar  129  TYR129     -0.0009
    179  CE1      -26.3920   23.8350  -50.9220 C.ar  129  TYR129      0.0417
    180  CE2      -25.2380   25.4710  -52.2440 C.ar  129  TYR129      0.0417
    181  CZ       -25.8620   24.2360  -52.1300 C.ar  129  TYR129      0.1957
    182  OH       -25.9620   23.4370  -53.2550 O.3   129  TYR129     -0.2866
    183  N        -23.2370   24.4500  -48.2960 N.am  130  VAL130     -0.1980
    184  CA       -22.9970   23.0150  -48.1230 C.3   130  VAL130      0.1595
    185  C        -22.3060   22.7400  -46.7820 C.2   130  VAL130      0.2287
    186  O        -22.7110   21.8490  -46.0320 O.2   130  VAL130     -0.2864
    187  CB       -22.1690   22.4580  -49.3010 C.3   130  VAL130      0.0276
    188  CG1      -21.7530   21.0090  -49.0480 C.3   130  VAL130      0.0022
    189  CG2      -22.9630   22.5550  -50.6140 C.3   130  VAL130      0.0022
    190  N        -24.6470   23.3350  -43.8300 N.3   133  LYS133     -0.1231
    191  CA       -25.5190   22.1830  -43.6540 C.3   133  LYS133      0.1693
    192  C        -24.7630   21.0030  -43.0370 C.2   133  LYS133      0.2592
    193  O        -25.2410   20.3890  -42.0850 O.2   133  LYS133     -0.2718
    194  CB       -26.1560   21.7810  -44.9900 C.3   133  LYS133      0.0285
    195  CG       -26.9880   20.5030  -44.9000 C.3   133  LYS133      0.0035
    196  CD       -27.8140   20.2610  -46.1590 C.3   133  LYS133      0.0206
    197  CE       -26.9360   20.1880  -47.3900 C.3   133  LYS133      0.1093
    198  NZ       -27.7490   19.8350  -48.6020 N.3   133  LYS133     -0.1314
    199  N        -23.5900   20.6770  -43.5820 N.am  134  HIS134     -0.1976
    200  CA       -22.8260   19.5420  -43.0470 C.3   134  HIS134      0.1656
    201  C        -22.5270   19.7080  -41.5700 C.2   134  HIS134      0.2291
    202  O        -22.5820   18.7400  -40.8110 O.2   134  HIS134     -0.2864
    203  CB       -21.4780   19.3810  -43.7420 C.3   134  HIS134      0.0771
    204  CG       -21.5490   18.8750  -45.1510 C.ar  134  HIS134      0.0820
    205  ND1      -20.4250   18.7720  -45.9410 N.ar  134  HIS134     -0.2267
    206  CD2      -22.5890   18.4620  -45.9190 C.ar  134  HIS134      0.1154
    207  CE1      -20.7660   18.3140  -47.1330 C.ar  134  HIS134      0.1986
    208  NE2      -22.0720   18.1140  -47.1440 N.ar  134  HIS134     -0.2212
@<TRIPOS>BOND
     1    63    62    1
     2    62    64    1
     3    62    59    1
     4    61    60    2
     5    33    32    2
     6    60    59    1
     7    59    58    1
     8    58    51   am
     9    32    31    1
    10    45    42    1
    11    45    46    1
    12    43    44    2
    13    43    42    1
    14    49    50    1
    15    41    42    1
    16    47    46    2
    17    51    50    1
    18    51    52    2
    19    31    34    1
    20    31    30    1
    21    46    48   am
    22    65    66    1
    23    50    53    1
    24    34    35    1
    25    53    54    1
    26    74    73    1
    27    74    75    2
    28    35    36    1
    29    72    73    1
    30    72    67   am
    31    54    55    1
    32    36    37    1
    33    66    67    1
    34    66    69    1
    35    25    24    2
    36    67    68    2
    37    57    55   am
    38    70    69    1
    39    37    38    2
    40    69    71    1
    41    55    56    2
    42   169   168   ar
    43   145   148    1
    44   145   144    1
    45   145   146    1
    46   150   149    1
    47   150   151    1
    48   149   148    1
    49    24    23    1
    50   168   170   ar
    51   168   167    1
    52    76    77    1
    53    19    18    2
    54   167   166    1
    55    38    40    1
    56    38    39    1
    57   151   152    2
    58   146   147    2
    59    23    26    1
    60    23    22    1
    61    26    27    1
    62   182   181    1
    63    78    77    1
    64    78    79    2
    65    77    80    1
    66    28    27    2
    67    18    22   am
    68    18    17    1
    69   152   153    1
    70   152   154    1
    71    27    29   am
    72   166   163    1
    73   180   181   ar
    74   180   178   ar
    75   156   155    1
    76   156   157    1
    77   156   159    1
    78   181   179   ar
    79    80    81    1
    80   162   157   am
    81   162   163    1
    82   157   158    2
    83    83    81   ar
    84    83    85   ar
    85   163   164    1
    86    17    20    1
    87    17    16    1
    88   160   159    1
    89    81    82   ar
    90   159   161    1
    91    85    86   ar
    92   178   176   ar
    93    87    88    1
    94   179   177   ar
    95    20    21    1
    96   189   187    1
    97    89    88    1
    98    89    90    2
    99   164   165    2
   100    82    84   ar
   101    91    88    1
   102    91    92    1
   103    86    84   ar
   104   176   177   ar
   105   176   175    1
   106    93    92   ar
   107    93    95   ar
   108    92    94   ar
   109   187   188    1
   110   187   184    1
   111    95    96   ar
   112   175   172    1
   113    94    96   ar
   114   198   197    1
   115     6     5    1
   116   171   172    1
   117   183   184    1
   118   183   173   am
   119   184   185    1
   120   172   173    1
   121     5     2    1
   122   173   174    2
   123   197   196    1
   124   208   207   ar
   125   208   206   ar
   126   207   205   ar
   127   101    98    1
   128   185   186    2
   129   125   123   am
   130    98    97    1
   131    98    99    1
   132   124   123    2
   133     2     3    1
   134     2     1    1
   135   108   106    1
   136   196   195    1
   137   141   142    1
   138   141   138    1
   139   142   143    1
   140   123   122    1
   141   205   204   ar
   142   107   106    1
   143   206   204   ar
   144   102    99   am
   145   102   103    1
   146     3     4    2
   147    99   100    2
   148   131   130    1
   149   129   128    2
   150   106   103    1
   151   136   133    1
   152   204   203    1
   153   133   132    1
   154   133   134    1
   155   194   195    1
   156   194   191    1
   157   130   127    1
   158    15    14    1
   159    14    13    1
   160   143   137    1
   161   103   104    1
   162   128   132   am
   163   128   127    1
   164   138   139    1
   165   138   137    1
   166   135   134    2
   167   122   121    1
   168   140   139    2
   169   109   104   am
   170   109   110    1
   171   121   118    1
   172   127   126    1
   173     9    10    2
   174     9     8    1
   175   115   114    2
   176   190   191    1
   177   203   200    1
   178   191   192    1
   179   104   105    2
   180    11     8    1
   181    11    12    1
   182   199   200    1
   183   199   192   am
   184   116   114   am
   185    13    12    1
   186   114   113    1
   187     8     7    1
   188   110   113    1
   189   110   111    1
   190   200   201    1
   191   192   193    2
   192   118   117    1
   193   118   119    1
   194   120   119    2
   195   111   112    2
   196   201   202    2
