@<TRIPOS>MOLECULE
tmp/4qm7A00.pdb
 211 200 0 0 0
SMALL
GASTEIGER

@<TRIPOS>ATOM
      1  N         14.4940   37.2120   49.4140 N.3    17  SER17      -0.1217
      2  CA        14.4750   38.4360   48.6530 C.3    17  SER17       0.1889
      3  C         13.7060   39.4900   49.4530 C.2    17  SER17       0.2288
      4  O         12.6740   39.1640   50.0820 O.2    17  SER17      -0.2866
      5  CB        13.7520   38.1620   47.3110 C.3    17  SER17       0.2089
      6  OG        13.6210   39.3840   46.5770 O.3    17  SER17      -0.2183
      7  N         24.9950   37.3520   43.5770 N.3    37  SER37      -0.1202
      8  CA        24.5350   36.4690   42.5250 C.3    37  SER37       0.2020
      9  C         23.9510   37.3210   41.3780 C.2    37  SER37       0.2618
     10  O         24.0170   36.9300   40.1840 O.2    37  SER37      -0.2717
     11  CB        23.5140   35.4940   43.0590 C.3    37  SER37       0.2103
     12  OG        22.4930   36.1920   43.7420 O.3    37  SER37      -0.2182
     13  N         23.3990   38.4840   41.7170 N.am   38  ASP38      -0.1973
     14  CA        22.8890   39.3720   40.6610 C.3    38  ASP38       0.1709
     15  C         23.9970   39.8340   39.7310 C.2    38  ASP38       0.2293
     16  O         23.8160   39.8700   38.4890 O.2    38  ASP38      -0.2864
     17  CB        22.2100   40.6120   41.2370 C.3    38  ASP38       0.1436
     18  CG        21.5700   41.4820   40.1530 C.2    38  ASP38       0.3671
     19  OD1       20.8080   40.9470   39.3120 O.co2  38  ASP38      -0.2456
     20  OD2       21.8320   42.7100   40.1310 O.co2  38  ASP38      -0.2456
     21  N         25.0160   36.8330   37.4740 N.3    41  ARG41      -0.1245
     22  CA        24.0560   36.6560   36.3660 C.3    41  ARG41       0.1563
     23  C         24.2850   37.6990   35.3030 C.2    41  ARG41       0.2260
     24  O         24.1260   37.4040   34.1350 O.2    41  ARG41      -0.2867
     25  CB        22.5970   36.7430   36.8570 C.3    41  ARG41       0.0307
     26  CG        22.1750   35.5660   37.7250 C.3    41  ARG41       0.0489
     27  CD        20.6410   35.6310   37.9560 C.3    41  ARG41       0.2205
     28  NE        20.0860   34.4270   38.5660 N.pl3  41  ARG41      -0.0865
     29  CZ        19.9650   34.2840   39.8960 C.cat  41  ARG41       0.5346
     30  NH1       20.3480   35.2690   40.7030 N.pl3  41  ARG41       0.1354
     31  NH2       19.4480   33.1650   40.4060 N.pl3  41  ARG41       0.1354
     32  N         17.8910   40.7880   31.6410 N.3    47  GLU47      -0.1245
     33  CA        17.5310   40.8180   33.0570 C.3    47  GLU47       0.1567
     34  C         16.7070   39.5980   33.4860 C.2    47  GLU47       0.2260
     35  O         16.8950   39.0690   34.5770 O.2    47  GLU47      -0.2867
     36  CB        16.7910   42.1200   33.4000 C.3    47  GLU47       0.0388
     37  CG        16.3130   42.1830   34.8440 C.3    47  GLU47       0.1160
     38  CD        16.3200   43.5940   35.4220 C.2    47  GLU47       0.3649
     39  OE1       16.8640   43.7670   36.5360 O.co2  47  GLU47      -0.2457
     40  OE2       15.7760   44.5190   34.7670 O.co2  47  GLU47      -0.2457
     41  N         16.3200   33.3720   32.8240 N.3    50  GLN50      -0.1231
     42  CA        16.3170   32.3730   33.8720 C.3    50  GLN50       0.1698
     43  C         17.4070   31.3190   33.6890 C.2    50  GLN50       0.2592
     44  O         17.9440   30.7820   34.6670 O.2    50  GLN50      -0.2718
     45  CB        14.9370   31.7000   33.8900 C.3    50  GLN50       0.0381
     46  CG        13.7580   32.5970   34.2630 C.3    50  GLN50       0.0905
     47  CD        13.9270   33.2340   35.6180 C.2    50  GLN50       0.2608
     48  OE1       14.1870   32.5110   36.5990 O.2    50  GLN50      -0.2717
     49  NE2       13.9160   34.5280   35.6890 N.am   50  GLN50      -0.0878
     50  N         17.7440   31.0500   32.4320 N.am   51  THR51      -0.1953
     51  CA        18.5990   29.9250   32.0830 C.3    51  THR51       0.1897
     52  C         20.0620   30.0890   32.4800 C.2    51  THR51       0.2313
     53  O         20.8460   29.1460   32.3500 O.2    51  THR51      -0.2863
     54  CB        18.5500   29.6220   30.5710 C.3    51  THR51       0.1794
     55  OG1       18.9010   30.7990   29.8250 O.3    51  THR51      -0.2208
     56  CG2       17.1610   29.1660   30.1640 C.3    51  THR51       0.0378
     57  N         21.2010   30.7890   35.5630 N.3    53  THR53      -0.1203
     58  CA        21.3960   30.6550   37.0060 C.3    53  THR53       0.1994
     59  C         22.5240   29.7030   37.3570 C.2    53  THR53       0.2618
     60  O         23.3820   30.0550   38.1540 O.2    53  THR53      -0.2717
     61  CB        20.0930   30.2270   37.7220 C.3    53  THR53       0.1784
     62  OG1       19.1510   31.2950   37.6460 O.3    53  THR53      -0.2211
     63  CG2       20.3600   29.9590   39.1990 C.3    53  THR53       0.0376
     64  N         22.5520   28.5140   36.7490 N.am   54  GLY54      -0.1956
     65  CA        23.5670   27.5430   37.1480 C.3    54  GLY54       0.1869
     66  C         24.9830   28.0130   36.8420 C.2    54  GLY54       0.2309
     67  O         25.9110   27.8770   37.6550 O.2    54  GLY54      -0.2863
     68  N         26.0940   30.8200   39.2630 N.3    57  PHE57      -0.1241
     69  CA        26.6200   30.3520   40.5660 C.3    57  PHE57       0.1605
     70  C         27.9630   29.6270   40.4540 C.2    57  PHE57       0.2264
     71  O         28.7870   29.7490   41.3550 O.2    57  PHE57      -0.2867
     72  CB        25.5870   29.5480   41.3760 C.3    57  PHE57       0.0534
     73  CG        24.5790   30.4120   42.0470 C.ar   57  PHE57      -0.0203
     74  CD1       24.9040   31.0570   43.2260 C.ar   57  PHE57      -0.0042
     75  CD2       23.3390   30.6610   41.4510 C.ar   57  PHE57      -0.0042
     76  CE1       24.0070   31.9010   43.8550 C.ar   57  PHE57      -0.0003
     77  CE2       22.3980   31.5370   42.0960 C.ar   57  PHE57      -0.0003
     78  CZ        22.7500   32.1460   43.2980 C.ar   57  PHE57      -0.0000
     79  N         31.0510   30.9820   42.6710 N.3    61  HIS61      -0.1241
     80  CA        31.9080   30.1150   43.4910 C.3    61  HIS61       0.1621
     81  C         33.3870   30.2430   43.1440 C.2    61  HIS61       0.2264
     82  O         34.2350   30.2220   44.0290 O.2    61  HIS61      -0.2867
     83  CB        31.4880   28.6720   43.3680 C.3    61  HIS61       0.0745
     84  CG        30.1060   28.4020   43.8650 C.ar   61  HIS61       0.0817
     85  ND1       29.3740   27.3060   43.4580 N.ar   61  HIS61      -0.2268
     86  CD2       29.3440   29.0550   44.7770 C.ar   61  HIS61       0.1154
     87  CE1       28.2010   27.3200   44.0720 C.ar   61  HIS61       0.1986
     88  NE2       28.1610   28.3720   44.8790 N.ar   61  HIS61      -0.2212
     89  N         23.5850   36.6230   48.1700 N.3    78  ALA78      -0.1231
     90  CA        22.5530   35.8190   47.5070 C.3    78  ALA78       0.1694
     91  C         21.6090   35.3630   48.5920 C.2    78  ALA78       0.2593
     92  O         21.8990   35.5860   49.7450 O.2    78  ALA78      -0.2718
     93  CB        23.1820   34.5910   46.8330 C.3    78  ALA78       0.0304
     94  N         20.4980   34.7230   48.2300 N.am   79  THR79      -0.1939
     95  CA        19.5420   34.3420   49.2840 C.3    79  THR79       0.2028
     96  C         20.1180   33.2810   50.2050 C.2    79  THR79       0.2642
     97  O         19.9440   33.3710   51.4560 O.2    79  THR79      -0.2714
     98  CB        18.2050   33.8700   48.7150 C.3    79  THR79       0.1808
     99  OG1       18.4240   32.7660   47.8240 O.3    79  THR79      -0.2208
    100  CG2       17.4920   35.0440   48.0150 C.3    79  THR79       0.0379
    101  N         20.8130   32.2930   49.6380 N.am   80  ASN80      -0.1971
    102  CA        21.4500   31.2320   50.4490 C.3    80  ASN80       0.1688
    103  C         20.4990   30.5260   51.4130 C.2    80  ASN80       0.2292
    104  O         20.9360   30.0380   52.4570 O.2    80  ASN80      -0.2864
    105  CB        22.6510   31.7710   51.2230 C.3    80  ASN80       0.1181
    106  CG        23.8010   32.1830   50.3030 C.2    80  ASN80       0.2629
    107  OD1       24.2810   31.3690   49.5230 O.2    80  ASN80      -0.2716
    108  ND2       24.2560   33.4290   50.4120 N.am   80  ASN80      -0.0877
    109  N         18.6980   27.7410   50.6370 N.3    82  GLN82      -0.1245
    110  CA        18.7090   26.2910   50.4540 C.3    82  GLN82       0.1566
    111  C         20.0270   25.7110   50.9460 C.2    82  GLN82       0.2260
    112  O         21.0660   26.2840   50.7240 O.2    82  GLN82      -0.2867
    113  CB        18.5230   25.9150   48.9520 C.3    82  GLN82       0.0367
    114  CG        17.1530   26.2970   48.3810 C.3    82  GLN82       0.0905
    115  CD        17.0000   26.0200   46.8600 C.2    82  GLN82       0.2608
    116  OE1       17.7040   25.1730   46.2830 O.2    82  GLN82      -0.2717
    117  NE2       16.0880   26.7560   46.2110 N.am   82  GLN82      -0.0878
    118  N         21.5870   23.2090   49.7780 N.3    84  SER84      -0.1202
    119  CA        22.4120   22.9360   48.5950 C.3    84  SER84       0.2020
    120  C         23.2050   24.1390   48.0610 C.2    84  SER84       0.2618
    121  O         24.2620   23.9610   47.4060 O.2    84  SER84      -0.2717
    122  CB        21.5510   22.3330   47.4960 C.3    84  SER84       0.2103
    123  OG        20.6290   23.2870   47.0110 O.3    84  SER84      -0.2182
    124  N         22.7190   25.3590   48.3130 N.am   85  ALA85      -0.1979
    125  CA        23.4460   26.5630   47.9420 C.3    85  ALA85       0.1597
    126  C         24.5680   26.8150   48.9420 C.2    85  ALA85       0.2287
    127  O         25.6200   27.3400   48.5990 O.2    85  ALA85      -0.2864
    128  CB        22.5210   27.7960   47.9300 C.3    85  ALA85       0.0319
    129  N         28.3990   24.1850   48.9270 N.3    88  PRO88      -0.2116
    130  CA        29.6670   24.4720   48.2270 C.3    88  PRO88       0.1372
    131  C         30.4500   25.6460   48.8260 C.2    88  PRO88       0.2244
    132  O         31.6730   25.6940   48.6670 O.2    88  PRO88      -0.2868
    133  CB        29.2230   24.7730   46.7460 C.3    88  PRO88       0.0268
    134  CG        27.7730   25.1520   46.8790 C.3    88  PRO88       0.0207
    135  CD        27.2560   24.2340   47.9970 C.3    88  PRO88       0.0892
    136  N          9.8740   48.5470   46.6220 N.3   119  ARG119     -0.1245
    137  CA        11.1670   48.8000   46.0020 C.3   119  ARG119      0.1563
    138  C         10.9570   49.2300   44.5590 C.2   119  ARG119      0.2260
    139  O          9.9870   48.8240   43.9030 O.2   119  ARG119     -0.2867
    140  CB        12.1350   47.5970   46.1090 C.3   119  ARG119      0.0307
    141  CG        11.6690   46.3320   45.4260 C.3   119  ARG119      0.0489
    142  CD        12.5520   45.1460   45.8790 C.3   119  ARG119      0.2205
    143  NE        13.9170   45.2250   45.3490 N.pl3 119  ARG119     -0.0865
    144  CZ        14.8480   44.3010   45.5850 C.cat 119  ARG119      0.5346
    145  NH1       14.5560   43.2380   46.3410 N.pl3 119  ARG119      0.1354
    146  NH2       16.0600   44.4250   45.0460 N.pl3 119  ARG119      0.1354
    147  N         13.8490   46.2610   41.3310 N.3   122  ARG122     -0.1231
    148  CA        13.4860   44.9420   40.7450 C.3   122  ARG122      0.1694
    149  C         12.7680   44.0320   41.7790 C.2   122  ARG122      0.2592
    150  O         13.3370   43.5660   42.7820 O.2   122  ARG122     -0.2718
    151  CB        14.6600   44.1910   40.0960 C.3   122  ARG122      0.0321
    152  CG        15.8230   43.9520   41.0280 C.3   122  ARG122      0.0489
    153  CD        16.7600   42.7670   40.6610 C.3   122  ARG122      0.2205
    154  NE        18.1000   43.0080   41.2030 N.pl3 122  ARG122     -0.0865
    155  CZ        18.6790   42.4530   42.2880 C.cat 122  ARG122      0.5346
    156  NH1       18.1190   41.4950   43.0170 N.pl3 122  ARG122      0.1354
    157  NH2       19.8960   42.8520   42.6170 N.pl3 122  ARG122      0.1354
    158  N         11.5000   43.7820   41.5010 N.am  123  GLN123     -0.1966
    159  CA        10.6300   43.0690   42.4280 C.3   123  GLN123      0.1733
    160  C         10.5550   41.5960   42.0850 C.2   123  GLN123      0.2616
    161  O         10.8520   41.1940   40.9590 O.2   123  GLN123     -0.2715
    162  CB         9.2200   43.6490   42.3220 C.3   123  GLN123      0.0408
    163  CG         9.1470   45.1060   42.6830 C.3   123  GLN123      0.0908
    164  CD         7.7680   45.6750   42.4830 C.2   123  GLN123      0.2608
    165  OE1        7.2760   45.7380   41.3620 O.2   123  GLN123     -0.2717
    166  NE2        7.1460   46.1210   43.5550 N.am  123  GLN123     -0.0878
    167  N         10.1250   40.7960   43.0440 N.am  124  VAL124     -0.1977
    168  CA         9.8040   39.4130   42.7730 C.3   124  VAL124      0.1596
    169  C          8.3220   39.1880   43.0740 C.2   124  VAL124      0.2287
    170  O          7.6510   40.0400   43.6800 O.2   124  VAL124     -0.2864
    171  CB        10.6390   38.4290   43.6190 C.3   124  VAL124      0.0276
    172  CG1       12.1320   38.5030   43.2750 C.3   124  VAL124      0.0022
    173  CG2       10.4390   38.6620   45.1230 C.3   124  VAL124      0.0022
    174  N          4.8470   34.7850   45.9130 N.3   127  TYR127     -0.1227
    175  CA         5.0780   33.4030   46.3200 C.3   127  TYR127      0.1736
    176  C          6.5640   33.1070   46.5790 C.2   127  TYR127      0.2595
    177  O          6.8910   32.1850   47.3370 O.2   127  TYR127     -0.2718
    178  CB         4.4990   32.4130   45.3070 C.3   127  TYR127      0.0548
    179  CG         5.2930   32.2840   44.0540 C.ar  127  TYR127     -0.0200
    180  CD1        6.3510   31.3870   43.9780 C.ar  127  TYR127     -0.0009
    181  CD2        4.9890   33.0590   42.9300 C.ar  127  TYR127     -0.0009
    182  CE1        7.0900   31.2610   42.8450 C.ar  127  TYR127      0.0417
    183  CE2        5.7420   32.9420   41.7530 C.ar  127  TYR127      0.0417
    184  CZ         6.7900   32.0300   41.7340 C.ar  127  TYR127      0.1957
    185  OH         7.5570   31.8680   40.6140 O.3   127  TYR127     -0.2866
    186  N          7.4390   33.8590   45.8990 N.am  128  VAL128     -0.1980
    187  CA         8.8740   33.6820   46.0240 C.3   128  VAL128      0.1595
    188  C          9.3000   34.0130   47.4570 C.2   128  VAL128      0.2287
    189  O         10.1060   33.2970   48.0560 O.2   128  VAL128     -0.2864
    190  CB         9.6270   34.5940   45.0310 C.3   128  VAL128      0.0276
    191  CG1       11.1320   34.4940   45.2480 C.3   128  VAL128      0.0022
    192  CG2        9.2530   34.2070   43.5650 C.3   128  VAL128      0.0022
    193  N          8.0950   31.4560   49.9470 N.3   131  LYS131     -0.1231
    194  CA         8.9530   30.2730   49.9130 C.3   131  LYS131      0.1693
    195  C         10.2960   30.5190   50.5770 C.2   131  LYS131      0.2592
    196  O         10.7300   29.7380   51.4250 O.2   131  LYS131     -0.2718
    197  CB         9.1440   29.7310   48.4810 C.3   131  LYS131      0.0285
    198  CG        10.0740   28.5160   48.4460 C.3   131  LYS131      0.0035
    199  CD        10.1660   27.8610   47.0510 C.3   131  LYS131      0.0206
    200  CE        10.4610   28.8650   45.9540 C.3   131  LYS131      0.1093
    201  NZ        10.4730   28.1700   44.6050 N.3   131  LYS131     -0.1314
    202  N         10.9370   31.6320   50.2340 N.am  132  HIS132     -0.1976
    203  CA        12.2570   31.9380   50.8160 C.3   132  HIS132      0.1656
    204  C         12.1840   32.0070   52.3390 C.2   132  HIS132      0.2291
    205  O         13.0950   31.5240   53.0310 O.2   132  HIS132     -0.2864
    206  CB        12.7950   33.2970   50.3310 C.3   132  HIS132      0.0771
    207  CG        13.2660   33.3030   48.9150 C.ar  132  HIS132      0.0820
    208  ND1       13.6580   34.4630   48.2740 N.ar  132  HIS132     -0.2267
    209  CD2       13.3590   32.3150   47.9990 C.ar  132  HIS132      0.1154
    210  CE1       14.0150   34.1790   47.0350 C.ar  132  HIS132      0.1986
    211  NE2       13.8410   32.8840   46.8400 N.ar  132  HIS132     -0.2212
@<TRIPOS>BOND
     1    55    54    1
     2    56    54    1
     3    54    51    1
     4    32    33    1
     5    51    50    1
     6    51    52    1
     7    53    52    2
     8    50    43   am
     9    41    42    1
    10    33    36    1
    11    33    34    1
    12    36    37    1
    13    34    35    2
    14    43    42    1
    15    43    44    2
    16    42    45    1
    17    45    46    1
    18    24    23    2
    19    46    47    1
    20    40    38   ar
    21    37    38    1
    22    23    22    1
    23    38    39   ar
    24    57    58    1
    25    47    49   am
    26    47    48    2
    27    22    25    1
    28    22    21    1
    29    64    65    1
    30    64    59   am
    31    66    65    1
    32    66    67    2
    33    25    26    1
    34    58    59    1
    35    58    61    1
    36    59    60    2
    37    62    61    1
    38    61    63    1
    39    26    27    1
    40    27    28    1
    41    16    15    2
    42    28    29    2
    43    68    69    1
    44    19    18   ar
    45    15    14    1
    46    29    31    1
    47    29    30    1
    48   151   148    1
    49   151   152    1
    50    20    18   ar
    51    18    17    1
    52    10     9    2
    53    70    69    1
    54    70    71    2
    55    69    72    1
    56   185   184    1
    57   153   152    1
    58   153   154    1
    59    14    17    1
    60    14    13    1
    61   148   147    1
    62   148   149    1
    63   161   160    2
    64   154   155    2
    65   165   164    2
    66    72    73    1
    67     9    13   am
    68     9     8    1
    69    75    73   ar
    70    75    77   ar
    71   158   149   am
    72   158   159    1
    73   184   183   ar
    74   184   182   ar
    75   183   181   ar
    76   149   150    2
    77    73    74   ar
    78   160   159    1
    79   160   167   am
    80    77    78   ar
    81   155   157    1
    82   155   156    1
    83   162   159    1
    84   162   163    1
    85   164   163    1
    86   164   166   am
    87     8    11    1
    88     8     7    1
    89    79    80    1
    90   168   167    1
    91   168   169    1
    92   168   171    1
    93   182   180   ar
    94   181   179   ar
    95    11    12    1
    96   169   170    2
    97    81    80    1
    98    81    82    2
    99    74    76   ar
   100   172   171    1
   101    78    76   ar
   102    83    80    1
   103    83    84    1
   104    85    84   ar
   105    85    87   ar
   106   192   190    1
   107   171   173    1
   108    84    86   ar
   109   139   138    2
   110   180   179   ar
   111   179   178    1
   112    87    88   ar
   113   138   137    1
   114   201   200    1
   115    86    88   ar
   116   190   191    1
   117   190   187    1
   118   146   144    1
   119   178   175    1
   120   143   144    2
   121   143   142    1
   122   141   142    1
   123   141   140    1
   124   144   145    1
   125   186   187    1
   126   186   176   am
   127   174   175    1
   128   200   199    1
   129   137   140    1
   130   137   136    1
   131   187   188    1
   132   117   115   am
   133   116   115    2
   134   175   176    1
   135     6     5    1
   136   176   177    2
   137   133   134    1
   138   133   130    1
   139    93    90    1
   140   211   210   ar
   141   211   209   ar
   142   115   114    1
   143   134   135    1
   144   123   122    1
   145   210   208   ar
   146   199   198    1
   147     5     2    1
   148   121   120    2
   149   188   189    2
   150   122   119    1
   151    90    89    1
   152    90    91    1
   153    99    98    1
   154   128   125    1
   155   125   124    1
   156   125   126    1
   157   135   129    1
   158   209   207   ar
   159   100    98    1
   160   120   124   am
   161   120   119    1
   162   130   131    1
   163   130   129    1
   164    94    91   am
   165    94    95    1
   166   208   207   ar
   167   114   113    1
   168   198   197    1
   169   197   194    1
   170    91    92    2
   171   119   118    1
   172   127   126    2
   173     2     1    1
   174     2     3    1
   175   132   131    2
   176    98    95    1
   177   207   206    1
   178   113   110    1
   179    95    96    1
   180     3     4    2
   181   107   106    2
   182   101    96   am
   183   101   102    1
   184   194   193    1
   185   194   195    1
   186    96    97    2
   187   202   195   am
   188   202   203    1
   189   106   108   am
   190   106   105    1
   191   206   203    1
   192   102   105    1
   193   102   103    1
   194   110   109    1
   195   110   111    1
   196   195   196    2
   197   112   111    2
   198   203   204    1
   199   103   104    2
   200   204   205    2
