@<TRIPOS>MOLECULE
tmp/4qm9A00.pdb
 134 127 0 0 0
SMALL
GASTEIGER

@<TRIPOS>ATOM
      1  N        -28.5260  -21.1450  152.5950 N.3    46  TYR46      -0.1241
      2  CA       -28.3600  -20.1760  151.5300 C.3    46  TYR46       0.1605
      3  C        -28.3230  -18.7580  152.0460 C.2    46  TYR46       0.2264
      4  O        -28.5490  -18.5010  153.2260 O.2    46  TYR46      -0.2867
      5  CB       -29.4830  -20.3170  150.5130 C.3    46  TYR46       0.0534
      6  CG       -29.5400  -21.6790  149.8740 C.ar   46  TYR46      -0.0201
      7  CD1      -28.7770  -21.9690  148.7510 C.ar   46  TYR46      -0.0009
      8  CD2      -30.3490  -22.6790  150.3960 C.ar   46  TYR46      -0.0009
      9  CE1      -28.8210  -23.2160  148.1620 C.ar   46  TYR46       0.0417
     10  CE2      -30.4000  -23.9300  149.8130 C.ar   46  TYR46       0.0417
     11  CZ       -29.6340  -24.1920  148.6950 C.ar   46  TYR46       0.1957
     12  OH       -29.6760  -25.4330  148.1030 O.3    46  TYR46      -0.2866
     13  N        -30.4100  -16.8180  151.2300 N.3    48  TYR48      -0.1241
     14  CA       -31.8250  -16.5100  151.3000 C.3    48  TYR48       0.1605
     15  C        -32.5730  -17.6260  152.0130 C.2    48  TYR48       0.2264
     16  O        -32.1690  -18.7890  151.9770 O.2    48  TYR48      -0.2867
     17  CB       -32.3980  -16.2910  149.8960 C.3    48  TYR48       0.0534
     18  CG       -32.1880  -17.4610  148.9610 C.ar   48  TYR48      -0.0201
     19  CD1      -30.9990  -17.6000  148.2440 C.ar   48  TYR48      -0.0009
     20  CD2      -33.1780  -18.4320  148.7930 C.ar   48  TYR48      -0.0009
     21  CE1      -30.8020  -18.6660  147.3930 C.ar   48  TYR48       0.0417
     22  CE2      -32.9910  -19.5050  147.9410 C.ar   48  TYR48       0.0417
     23  CZ       -31.8020  -19.6110  147.2420 C.ar   48  TYR48       0.1957
     24  OH       -31.6020  -20.6660  146.3940 O.3    48  TYR48      -0.2866
     25  N        -35.4620  -20.2800  152.6240 N.3    50  ARG50      -0.1245
     26  CA       -36.0600  -21.1980  151.6690 C.3    50  ARG50       0.1563
     27  C        -36.8270  -22.2800  152.4140 C.2    50  ARG50       0.2260
     28  O        -36.2560  -23.0010  153.2400 O.2    50  ARG50      -0.2867
     29  CB       -34.9690  -21.8050  150.7880 C.3    50  ARG50       0.0307
     30  CG       -35.4600  -22.7680  149.7650 C.3    50  ARG50       0.0489
     31  CD       -34.2950  -23.4920  149.1350 C.3    50  ARG50       0.2205
     32  NE       -34.6140  -23.8960  147.7690 N.pl3  50  ARG50      -0.0865
     33  CZ       -35.1920  -25.0470  147.4430 C.cat  50  ARG50       0.5346
     34  NH1      -35.5210  -25.9240  148.3880 N.pl3  50  ARG50       0.1354
     35  NH2      -35.4330  -25.3240  146.1690 N.pl3  50  ARG50       0.1354
     36  N        -42.4650  -23.8580  147.2630 N.3    62  ILE62      -0.1245
     37  CA       -41.3890  -23.3940  148.1240 C.3    62  ILE62       0.1561
     38  C        -41.5510  -21.9160  148.4780 C.2    62  ILE62       0.2260
     39  O        -41.8930  -21.0900  147.6170 O.2    62  ILE62      -0.2867
     40  CB       -40.0280  -23.6050  147.4450 C.3    62  ILE62       0.0252
     41  CG1      -39.8830  -25.0720  147.0300 C.3    62  ILE62       0.0019
     42  CG2      -38.8990  -23.1600  148.3570 C.3    62  ILE62       0.0019
     43  CD1      -38.5990  -25.3790  146.3590 C.3    62  ILE62       0.0001
     44  N        -39.8010  -18.5000  149.5700 N.3    64  ILE64      -0.1245
     45  CA       -38.4720  -17.9330  149.4530 C.3    64  ILE64       0.1561
     46  C        -38.4570  -16.5170  150.0120 C.2    64  ILE64       0.2260
     47  O        -39.4390  -15.7840  149.9360 O.2    64  ILE64      -0.2867
     48  CB       -38.0000  -18.0020  147.9920 C.3    64  ILE64       0.0252
     49  CG1      -37.5110  -19.4240  147.7100 C.3    64  ILE64       0.0019
     50  CG2      -36.9000  -17.0200  147.6990 C.3    64  ILE64       0.0019
     51  CD1      -36.7660  -19.5520  146.4380 C.3    64  ILE64       0.0001
     52  N        -29.6800  -15.3070  144.5030 N.3    72  THR72      -0.1218
     53  CA       -29.5140  -16.7280  144.3020 C.3    72  THR72       0.1862
     54  C        -28.2540  -16.9300  143.4980 C.2    72  THR72       0.2287
     55  O        -27.5980  -15.9680  143.1060 O.2    72  THR72      -0.2866
     56  CB       -30.7170  -17.3330  143.5580 C.3    72  THR72       0.1770
     57  OG1      -30.7640  -16.8000  142.2290 O.3    72  THR72      -0.2211
     58  CG2      -32.0390  -17.0030  144.2930 C.3    72  THR72       0.0375
     59  N        -28.5320  -20.1970  137.9150 N.3    75  HIS75      -0.1241
     60  CA       -28.8640  -21.6100  137.8390 C.3    75  HIS75       0.1621
     61  C        -29.9850  -21.8920  136.8530 C.2    75  HIS75       0.2264
     62  O        -30.6980  -20.9850  136.4460 O.2    75  HIS75      -0.2867
     63  CB       -29.2640  -22.1190  139.2190 C.3    75  HIS75       0.0745
     64  CG       -30.4880  -21.4520  139.7550 C.ar   75  HIS75       0.0817
     65  ND1      -30.4410  -20.2620  140.4440 N.ar   75  HIS75      -0.2268
     66  CD2      -31.7980  -21.7820  139.6630 C.ar   75  HIS75       0.1154
     67  CE1      -31.6680  -19.8930  140.7670 C.ar   75  HIS75       0.1986
     68  NE2      -32.5090  -20.8010  140.3070 N.ar   75  HIS75      -0.2212
     69  N        -33.2450  -24.9730  136.3310 N.3    77  HIS77      -0.1241
     70  CA       -34.0090  -25.8400  137.2110 C.3    77  HIS77       0.1621
     71  C        -34.1120  -27.2580  136.6800 C.2    77  HIS77       0.2264
     72  O        -35.1420  -27.9060  136.8100 O.2    77  HIS77      -0.2867
     73  CB       -35.3830  -25.2520  137.4290 C.3    77  HIS77       0.0745
     74  CG       -35.3430  -23.8480  137.9270 C.ar   77  HIS77       0.0817
     75  ND1      -35.8500  -22.7870  137.2080 N.ar   77  HIS77      -0.2268
     76  CD2      -34.8270  -23.3230  139.0620 C.ar   77  HIS77       0.1154
     77  CE1      -35.6690  -21.6710  137.8900 C.ar   77  HIS77       0.1986
     78  NE2      -35.0470  -21.9700  139.0170 N.ar   77  HIS77      -0.2212
     79  N        -31.2440  -18.4880  135.1050 N.3   125  HIS125     -0.1241
     80  CA       -31.5820  -17.2130  135.7140 C.3   125  HIS125      0.1621
     81  C        -31.0130  -17.0420  137.1190 C.2   125  HIS125      0.2264
     82  O        -30.4570  -17.9740  137.7110 O.2   125  HIS125     -0.2867
     83  CB       -33.1000  -17.0270  135.7680 C.3   125  HIS125      0.0745
     84  CG       -33.7490  -17.6820  136.9500 C.ar  125  HIS125      0.0817
     85  ND1      -34.7750  -17.0860  137.6550 N.ar  125  HIS125     -0.2268
     86  CD2      -33.5390  -18.8880  137.5330 C.ar  125  HIS125      0.1154
     87  CE1      -35.1550  -17.8900  138.6350 C.ar  125  HIS125      0.1986
     88  NE2      -34.4230  -18.9900  138.5830 N.ar  125  HIS125     -0.2212
     89  N        -32.3210  -14.7360  140.6820 N.3   127  MET127     -0.1245
     90  CA       -33.1640  -13.7630  141.3520 C.3   127  MET127      0.1570
     91  C        -32.3220  -12.9890  142.3360 C.2   127  MET127      0.2261
     92  O        -31.5060  -13.5740  143.0490 O.2   127  MET127     -0.2867
     93  CB       -34.3170  -14.4360  142.0740 C.3   127  MET127      0.0387
     94  CG       -35.0330  -15.4680  141.2350 C.3   127  MET127      0.0595
     95  SD       -36.6010  -15.8970  141.9850 S.3   127  MET127     -0.1393
     96  CE       -36.1330  -15.8100  143.7050 C.3   127  MET127      0.0692
     97  N        -42.8520  -19.9670  145.2380 N.3   139  HIS139     -0.1241
     98  CA       -42.3990  -20.6930  144.0560 C.3   139  HIS139      0.1621
     99  C        -43.0750  -22.0460  143.8920 C.2   139  HIS139      0.2264
    100  O        -43.3470  -22.7420  144.8720 O.2   139  HIS139     -0.2867
    101  CB       -40.9000  -20.9130  144.1090 C.3   139  HIS139      0.0745
    102  CG       -40.1090  -19.6510  144.1030 C.ar  139  HIS139      0.0817
    103  ND1      -38.9850  -19.4880  143.3270 N.ar  139  HIS139     -0.2268
    104  CD2      -40.2700  -18.4940  144.7860 C.ar  139  HIS139      0.1154
    105  CE1      -38.4920  -18.2800  143.5250 C.ar  139  HIS139      0.1986
    106  NE2      -39.2530  -17.6560  144.4050 N.ar  139  HIS139     -0.2212
    107  N        -42.4250  -25.5220  141.3260 N.3   141  TYR141     -0.1241
    108  CA       -41.7040  -26.2060  140.2670 C.3   141  TYR141      0.1605
    109  C        -42.4160  -27.4830  139.9020 C.2   141  TYR141      0.2264
    110  O        -42.9860  -28.1300  140.7570 O.2   141  TYR141     -0.2867
    111  CB       -40.2690  -26.5150  140.6830 C.3   141  TYR141      0.0534
    112  CG       -39.5490  -25.2920  141.1770 C.ar  141  TYR141     -0.0201
    113  CD1      -38.9610  -24.4040  140.2830 C.ar  141  TYR141     -0.0009
    114  CD2      -39.4710  -25.0090  142.5370 C.ar  141  TYR141     -0.0009
    115  CE1      -38.3040  -23.2780  140.7280 C.ar  141  TYR141      0.0417
    116  CE2      -38.8090  -23.8830  142.9900 C.ar  141  TYR141      0.0417
    117  CZ       -38.2330  -23.0210  142.0780 C.ar  141  TYR141      0.1957
    118  OH       -37.5790  -21.9010  142.5140 O.3   141  TYR141     -0.2866
    119  N        -38.0840  -30.0760  141.9520 N.3   145  LEU145     -0.1245
    120  CA       -36.6700  -29.8890  141.6660 C.3   145  LEU145      0.1561
    121  C        -35.8610  -31.1130  142.0380 C.2   145  LEU145      0.2260
    122  O        -36.0210  -31.6770  143.1180 O.2   145  LEU145     -0.2867
    123  CB       -36.1300  -28.6680  142.3990 C.3   145  LEU145      0.0270
    124  CG       -36.6130  -27.3330  141.8360 C.3   145  LEU145      0.0019
    125  CD1      -35.9440  -26.1770  142.5510 C.3   145  LEU145      0.0001
    126  CD2      -36.3340  -27.2720  140.3430 C.3   145  LEU145      0.0001
    127  N        -30.3650  -29.1180  140.2250 N.3   148  MET148     -0.1245
    128  CA       -30.1180  -27.7470  139.7710 C.3   148  MET148      0.1570
    129  C        -28.6850  -27.5950  139.2530 C.2   148  MET148      0.2261
    130  O        -27.7270  -27.9600  139.9370 O.2   148  MET148     -0.2867
    131  CB       -30.3640  -26.7270  140.8950 C.3   148  MET148      0.0387
    132  CG       -31.7750  -26.1260  140.9350 C.3   148  MET148      0.0595
    133  SD       -31.8880  -24.5970  141.8990 S.3   148  MET148     -0.1393
    134  CE       -31.8200  -25.2130  143.5800 C.3   148  MET148      0.0692
@<TRIPOS>BOND
     1    79    80    1
     2    80    83    1
     3    80    81    1
     4    83    84    1
     5    69    70    1
     6    62    61    2
     7    71    72    2
     8    71    70    1
     9    61    60    1
    10    84    86   ar
    11    84    85   ar
    12    81    82    2
    13    75    77   ar
    14    75    74   ar
    15    70    73    1
    16    73    74    1
    17    86    88   ar
    18    85    87   ar
    19    60    59    1
    20    60    63    1
    21    77    78   ar
    22    74    76   ar
    23    88    87   ar
    24    78    76   ar
    25    63    64    1
    26   129   128    1
    27   129   130    2
    28    66    64   ar
    29    66    68   ar
    30    64    65   ar
    31   128   127    1
    32   128   131    1
    33   109   108    1
    34   109   110    2
    35   108   111    1
    36   108   107    1
    37   113   115   ar
    38   113   112   ar
    39    68    67   ar
    40   126   124    1
    41    65    67   ar
    42    89    90    1
    43   111   112    1
    44   115   117   ar
    45   131   132    1
    46   132   133    1
    47   112   114   ar
    48    94    95    1
    49    94    93    1
    50    90    93    1
    51    90    91    1
    52   120   119    1
    53   120   121    1
    54   120   123    1
    55   124   123    1
    56   124   125    1
    57   133   134    1
    58    95    96    1
    59   121   122    2
    60   117   118    1
    61   117   116   ar
    62    57    56    1
    63    91    92    2
    64   114   116   ar
    65    55    54    2
    66   103   105   ar
    67   103   102   ar
    68    54    53    1
    69   105   106   ar
    70    56    58    1
    71    56    53    1
    72    99    98    1
    73    99   100    2
    74    98   101    1
    75    98    97    1
    76   102   101    1
    77   102   104   ar
    78    53    52    1
    79   106   104   ar
    80    35    33    1
    81    43    41    1
    82    24    23    1
    83    51    49    1
    84    41    40    1
    85    23    21   ar
    86    23    22   ar
    87    36    37    1
    88    21    19   ar
    89    33    32    2
    90    33    34    1
    91    40    37    1
    92    40    42    1
    93    39    38    2
    94    50    48    1
    95    49    48    1
    96    32    31    1
    97    22    20   ar
    98    48    45    1
    99    12    11    1
   100    37    38    1
   101     9    11   ar
   102     9     7   ar
   103    19    18   ar
   104    11    10   ar
   105     7     6   ar
   106    20    18   ar
   107    18    17    1
   108    31    30    1
   109    45    44    1
   110    45    46    1
   111    30    29    1
   112    10     8   ar
   113     6     8   ar
   114     6     5    1
   115    17    14    1
   116    47    46    2
   117     5     2    1
   118    29    26    1
   119    13    14    1
   120    14    15    1
   121     2     3    1
   122     2     1    1
   123    26    27    1
   124    26    25    1
   125    16    15    2
   126     3     4    2
   127    27    28    2
