@<TRIPOS>MOLECULE
tmp/4qmcA00.pdb
 140 136 0 0 0
SMALL
GASTEIGER

@<TRIPOS>ATOM
      1  N         10.5980  -15.4760   -5.8410 N.3     2  LEU2       -0.1245
      2  CA        10.1850  -16.8420   -5.6410 C.3     2  LEU2        0.1561
      3  C         11.2010  -17.5490   -4.7450 C.2     2  LEU2        0.2260
      4  O         10.7840  -18.3970   -4.0070 O.2     2  LEU2       -0.2867
      5  CB        10.1130  -17.5700   -6.9610 C.3     2  LEU2        0.0270
      6  CG         9.2040  -17.0120   -8.0000 C.3     2  LEU2        0.0019
      7  CD1        9.4070  -17.6280   -9.3660 C.3     2  LEU2        0.0001
      8  CD2        7.7940  -17.2410   -7.5750 C.3     2  LEU2        0.0001
      9  N         10.7670  -16.7100   -1.1430 N.3     5  PHE5       -0.1227
     10  CA         9.3700  -17.1480   -0.6850 C.3     5  PHE5        0.1736
     11  C          9.4570  -18.6540   -0.4250 C.2     5  PHE5        0.2592
     12  O          8.9490  -19.1460    0.6480 O.2     5  PHE5       -0.2718
     13  CB         8.2580  -16.7000   -1.5870 C.3     5  PHE5        0.0547
     14  CG         6.8910  -16.9710   -1.0820 C.ar    5  PHE5       -0.0202
     15  CD1        6.4990  -16.9040    0.2670 C.ar    5  PHE5       -0.0042
     16  CD2        6.0260  -17.2260   -1.9640 C.ar    5  PHE5       -0.0042
     17  CE1        5.2170  -17.1140    0.5840 C.ar    5  PHE5       -0.0003
     18  CE2        4.6870  -17.4700   -1.6870 C.ar    5  PHE5       -0.0003
     19  CZ         4.2650  -17.3700   -0.3230 C.ar    5  PHE5       -0.0000
     20  N          9.9680  -19.3580   -1.4290 N.am    6  GLY6       -0.2014
     21  CA        10.0170  -20.8230   -1.2840 C.3     6  GLY6        0.1506
     22  C         10.8730  -21.2370   -0.0970 C.3     6  GLY6        0.2054
     23  O         10.5030  -22.2130    0.6700 O.3     6  GLY6       -0.2184
     24  N          8.7810  -20.5690    3.0950 N.3     9  ILE9       -0.1245
     25  CA         7.7710  -21.5580    3.3080 C.3     9  ILE9        0.1561
     26  C          8.3470  -22.8870    3.8260 C.2     9  ILE9        0.2260
     27  O          7.7680  -23.5040    4.7600 O.2     9  ILE9       -0.2867
     28  CB         7.0910  -21.8630    1.9580 C.3     9  ILE9        0.0252
     29  CG1        6.2030  -20.6620    1.4460 C.3     9  ILE9        0.0019
     30  CG2        6.1990  -23.1470    1.9580 C.3     9  ILE9        0.0019
     31  CD1        5.8180  -20.6910    0.0050 C.3     9  ILE9        0.0001
     32  N          7.8990  -25.8140   -1.1340 N.3    17  ALA17      -0.1231
     33  CA         6.9280  -24.9090   -1.7110 C.3    17  ALA17       0.1694
     34  C          6.3750  -25.4080   -2.9820 C.2    17  ALA17       0.2591
     35  O          5.1950  -25.4120   -3.2490 O.2    17  ALA17      -0.2718
     36  CB         7.4660  -23.5020   -1.8700 C.3    17  ALA17       0.0304
     37  N          7.3020  -25.8630   -3.8780 N.am   18  ILE18      -0.1980
     38  CA         6.9690  -26.6910   -5.0210 C.3    18  ILE18       0.1595
     39  C          7.3640  -28.1680   -4.6430 C.2    18  ILE18       0.2287
     40  O          8.5230  -28.4420   -4.3710 O.2    18  ILE18      -0.2864
     41  CB         7.7890  -26.2610   -6.2500 C.3    18  ILE18       0.0276
     42  CG1        7.7150  -24.7300   -6.4760 C.3    18  ILE18       0.0022
     43  CG2        7.3250  -26.9720   -7.5100 C.3    18  ILE18       0.0022
     44  CD1        8.4920  -24.1970   -7.6690 C.3    18  ILE18       0.0001
     45  N          2.6730  -26.3800   -2.2870 N.3    21  TYR21      -0.1227
     46  CA         1.8250  -25.1410   -2.2510 C.3    21  TYR21       0.1736
     47  C          1.8010  -24.5360   -3.6440 C.2    21  TYR21       0.2596
     48  O          1.5450  -23.3010   -3.9150 O.2    21  TYR21      -0.2718
     49  CB         2.3820  -24.1470   -1.3090 C.3    21  TYR21       0.0548
     50  CG         2.3230  -24.6260    0.1940 C.ar   21  TYR21      -0.0200
     51  CD1        1.0510  -24.5440    0.8630 C.ar   21  TYR21      -0.0009
     52  CD2        3.3630  -25.0730    0.8980 C.ar   21  TYR21      -0.0009
     53  CE1        0.9620  -24.9550    2.1530 C.ar   21  TYR21       0.0417
     54  CE2        3.2160  -25.5090    2.1760 C.ar   21  TYR21       0.0417
     55  CZ         1.9970  -25.3800    2.8270 C.ar   21  TYR21       0.1957
     56  OH         1.8980  -25.8030    4.0960 O.3    21  TYR21      -0.2866
     57  N          2.2270  -25.2570   -4.6680 N.am   22  SER22      -0.1952
     58  CA         2.2360  -24.6280   -5.9930 C.3    22  SER22       0.1924
     59  C          1.1210  -25.0390   -6.9730 C.2    22  SER22       0.2314
     60  O          0.9870  -24.4580   -7.9710 O.2    22  SER22      -0.2863
     61  CB         3.6180  -24.7140   -6.6550 C.3    22  SER22       0.2116
     62  OG         4.0560  -26.0360   -6.7450 O.3    22  SER22      -0.2180
     63  N         -6.1440  -21.4290   -5.4570 N.3    27  TYR27      -0.1227
     64  CA        -5.2640  -20.2410   -5.4130 C.3    27  TYR27       0.1736
     65  C         -3.8640  -20.4770   -5.1930 C.2    27  TYR27       0.2596
     66  O         -3.0770  -19.5350   -5.3920 O.2    27  TYR27      -0.2718
     67  CB        -5.8550  -19.2280   -4.3470 C.3    27  TYR27       0.0548
     68  CG        -7.1160  -18.6590   -4.8220 C.ar   27  TYR27      -0.0200
     69  CD1       -7.1340  -17.6000   -5.7340 C.ar   27  TYR27      -0.0009
     70  CD2       -8.3590  -19.2280   -4.3950 C.ar   27  TYR27      -0.0009
     71  CE1       -8.3660  -17.1180   -6.2180 C.ar   27  TYR27       0.0417
     72  CE2       -9.5370  -18.7180   -4.8480 C.ar   27  TYR27       0.0417
     73  CZ        -9.5630  -17.6940   -5.7760 C.ar   27  TYR27       0.1957
     74  OH       -10.7150  -17.1190   -6.2590 O.3    27  TYR27      -0.2866
     75  N         -3.4490  -21.6300   -4.7680 N.am   28  CYS28      -0.1956
     76  CA        -2.0590  -21.8380   -4.5440 C.3    28  CYS28       0.1843
     77  C         -1.3170  -22.2990   -5.8010 C.2    28  CYS28       0.2626
     78  O         -1.3870  -23.4980   -6.2090 O.2    28  CYS28      -0.2714
     79  CB        -1.7480  -22.8220   -3.4980 C.3    28  CYS28       0.0997
     80  SG        -2.5410  -22.5490   -1.9230 S.3    28  CYS28      -0.0797
     81  N         -0.6010  -21.3610   -6.3680 N.am   29  GLY29      -0.1954
     82  CA         0.0370  -21.6780   -7.7110 C.3    29  GLY29       0.1869
     83  C         -0.6620  -20.8460   -8.7330 C.2    29  GLY29       0.2309
     84  O         -1.6790  -20.2040   -8.4680 O.2    29  GLY29      -0.2863
     85  N         -3.4970  -18.6520    0.2740 N.3    44  CYS44      -0.1235
     86  CA        -3.0650  -18.2690   -1.0620 C.3    44  CYS44       0.1677
     87  C         -3.9230  -17.1990   -1.6660 C.2    44  CYS44       0.2270
     88  O         -3.3750  -16.3210   -2.3430 O.2    44  CYS44      -0.2867
     89  CB        -3.0600  -19.5170   -1.9480 C.3    44  CYS44       0.0956
     90  SG        -1.7790  -20.6990   -1.3860 S.3    44  CYS44      -0.0801
     91  N         -2.7790  -14.0520   -0.1180 N.3    47  HIS47      -0.1226
     92  CA        -1.4740  -13.6660   -0.6860 C.3    47  HIS47       0.1752
     93  C         -1.5840  -13.0990   -2.0800 C.2    47  HIS47       0.2596
     94  O         -0.9410  -12.1130   -2.4010 O.2    47  HIS47      -0.2718
     95  CB        -0.6220  -14.9460   -0.6920 C.3    47  HIS47       0.0759
     96  CG         0.8010  -14.7160   -1.0830 C.ar   47  HIS47       0.0818
     97  ND1        1.3530  -15.1990   -2.2610 N.ar   47  HIS47      -0.2268
     98  CD2        1.7940  -14.1340   -0.4420 C.ar   47  HIS47       0.1154
     99  CE1        2.6050  -14.9100   -2.2870 C.ar   47  HIS47       0.1986
    100  NE2        2.9240  -14.2190   -1.2250 N.ar   47  HIS47      -0.2212
    101  N         -2.4550  -13.6590   -2.8880 N.am   48  ASP48      -0.1974
    102  CA        -2.7070  -13.0660   -4.1930 C.3    48  ASP48       0.1709
    103  C         -3.2630  -11.6860   -4.0880 C.2    48  ASP48       0.2293
    104  O         -2.8680  -10.7530   -4.8190 O.2    48  ASP48      -0.2864
    105  CB        -3.7140  -13.8730   -4.9780 C.3    48  ASP48       0.1436
    106  CG        -3.1690  -15.2080   -5.5690 C.2    48  ASP48       0.3671
    107  OD1       -2.0100  -15.3970   -5.6940 O.co2  48  ASP48      -0.2456
    108  OD2       -4.0970  -15.9890   -5.9470 O.co2  48  ASP48      -0.2456
    109  N         -0.3800   -9.2920   -3.0790 N.3    51  TYR51      -0.1241
    110  CA         0.3540   -8.9260   -4.2790 C.3    51  TYR51       0.1605
    111  C         -0.4220   -7.9970   -5.1510 C.2    51  TYR51       0.2264
    112  O          0.1130   -7.0860   -5.8090 O.2    51  TYR51      -0.2867
    113  CB         0.7690  -10.1220   -5.1150 C.3    51  TYR51       0.0534
    114  CG         1.9250  -10.9710   -4.5540 C.ar   51  TYR51      -0.0201
    115  CD1        2.6200  -10.6560   -3.4370 C.ar   51  TYR51      -0.0009
    116  CD2        2.3120  -12.0530   -5.2890 C.ar   51  TYR51      -0.0009
    117  CE1        3.7110  -11.4130   -3.0190 C.ar   51  TYR51       0.0417
    118  CE2        3.4050  -12.8160   -4.9010 C.ar   51  TYR51       0.0417
    119  CZ         4.0970  -12.5020   -3.8160 C.ar   51  TYR51       0.1957
    120  OH         5.2020  -13.2630   -3.4750 O.3    51  TYR51      -0.2866
    121  N          7.7330  -11.8580   -8.1580 N.3    60  LYS60      -0.1245
    122  CA         8.4970  -13.0690   -8.5810 C.3    60  LYS60       0.1561
    123  C          9.9480  -12.8890   -8.6110 C.2    60  LYS60       0.2260
    124  O         10.6890  -13.8480   -8.2870 O.2    60  LYS60      -0.2867
    125  CB         8.0260  -13.5480   -9.9900 C.3    60  LYS60       0.0271
    126  CG         6.6180  -13.9890  -10.0320 C.3    60  LYS60       0.0035
    127  CD         6.1320  -14.5350  -11.4080 C.3    60  LYS60       0.0206
    128  CE         4.5710  -14.5050  -11.4140 C.3    60  LYS60       0.1093
    129  NZ         3.9790  -14.2810  -12.7850 N.3    60  LYS60      -0.1314
    130  N          0.3520  -20.5650    6.2290 N.3    96  PHE96      -0.1241
    131  CA         0.5320  -21.9870    5.8910 C.3    96  PHE96       0.1605
    132  C          0.8950  -22.7690    7.1870 C.2    96  PHE96       0.2264
    133  O          0.3030  -23.8680    7.4400 O.2    96  PHE96      -0.2867
    134  CB         1.6430  -22.2020    4.9130 C.3    96  PHE96       0.0534
    135  CG         1.3560  -21.6600    3.5300 C.ar   96  PHE96      -0.0203
    136  CD1        0.1220  -21.4880    3.0050 C.ar   96  PHE96      -0.0042
    137  CD2        2.4490  -21.3930    2.6850 C.ar   96  PHE96      -0.0042
    138  CE1       -0.0730  -21.0290    1.6830 C.ar   96  PHE96      -0.0003
    139  CE2        2.2710  -20.8930    1.4000 C.ar   96  PHE96      -0.0003
    140  CZ         1.0370  -20.7560    0.9090 C.ar   96  PHE96      -0.0000
@<TRIPOS>BOND
     1   129   128    1
     2   128   127    1
     3   127   126    1
     4   126   125    1
     5   125   122    1
     6     7     6    1
     7    83    84    2
     8    83    82    1
     9   123   122    1
    10   123   124    2
    11   122   121    1
    12     6     8    1
    13     6     5    1
    14    60    59    2
    15    82    81    1
    16    44    42    1
    17    43    41    1
    18    59    58    1
    19     5     2    1
    20    62    61    1
    21    61    58    1
    22    42    41    1
    23    81    77   am
    24    74    73    1
    25    41    38    1
    26    71    73   ar
    27    71    69   ar
    28    78    77    2
    29    58    57    1
    30   108   106   ar
    31     1     2    1
    32   112   111    2
    33    77    76    1
    34    73    72   ar
    35    69    68   ar
    36   107   106   ar
    37     2     3    1
    38   106   105    1
    39    63    64    1
    40    64    65    1
    41    64    67    1
    42    66    65    2
    43   116   118   ar
    44   116   114   ar
    45    65    75   am
    46   111   110    1
    47   113   114    1
    48   113   110    1
    49    38    39    1
    50    38    37    1
    51   105   102    1
    52   118   119   ar
    53    72    70   ar
    54    68    70   ar
    55    68    67    1
    56   104   103    2
    57    75    76    1
    58     3     4    2
    59    57    47   am
    60    39    40    2
    61   114   115   ar
    62    76    79    1
    63   110   109    1
    64   102   103    1
    65   102   101    1
    66    48    47    2
    67    37    34   am
    68   119   120    1
    69   119   117   ar
    70    47    46    1
    71    79    80    1
    72   115   117   ar
    73    35    34    2
    74    34    33    1
    75   101    93   am
    76    94    93    2
    77    88    87    2
    78    45    46    1
    79    99    97   ar
    80    99   100   ar
    81    97    96   ar
    82    46    49    1
    83    93    92    1
    84    16    18   ar
    85    16    14   ar
    86    89    90    1
    87    89    86    1
    88    80    90    1
    89    36    33    1
    90    33    32    1
    91    18    19   ar
    92    87    86    1
    93    13    14    1
    94    13    10    1
    95    20    21    1
    96    20    11   am
    97    49    50    1
    98    21    22    1
    99   100    98   ar
   100     9    10    1
   101    96    95    1
   102    96    98   ar
   103    14    15   ar
   104    86    85    1
   105    95    92    1
   106    92    91    1
   107    10    11    1
   108    11    12    2
   109    19    17   ar
   110    22    23    1
   111    31    29    1
   112    50    51   ar
   113    50    52   ar
   114    15    17   ar
   115    51    53   ar
   116    52    54   ar
   117   140   139   ar
   118   140   138   ar
   119   139   137   ar
   120    29    28    1
   121   138   136   ar
   122    28    30    1
   123    28    25    1
   124    53    55   ar
   125    54    55   ar
   126   137   135   ar
   127    55    56    1
   128   136   135   ar
   129    24    25    1
   130    25    26    1
   131   135   134    1
   132    26    27    2
   133   134   131    1
   134   131   130    1
   135   131   132    1
   136   132   133    2
