@<TRIPOS>MOLECULE
tmp/4qmlA00.pdb
 176 165 0 0 0
SMALL
GASTEIGER

@<TRIPOS>ATOM
      1  N         38.2080   -2.1460   19.7210 N.3    13  ILE13      -0.1231
      2  CA        38.7540   -2.4890   18.4210 C.3    13  ILE13       0.1696
      3  C         40.1090   -3.1780   18.5100 C.2    13  ILE13       0.2632
      4  O         40.6900   -3.5390   17.4880 O.2    13  ILE13      -0.2714
      5  CB        38.8770   -1.2330   17.5310 C.3    13  ILE13       0.0266
      6  CG1       39.9320   -0.2840   18.0930 C.3    13  ILE13       0.0019
      7  CG2       37.5190   -0.5410   17.4150 C.3    13  ILE13       0.0020
      8  CD1       40.0890    1.0100   17.3130 C.3    13  ILE13       0.0001
      9  N         40.6150   -3.3650   19.7230 N.am   14  GLY14      -0.1718
     10  CA        41.9030   -4.0200   19.8760 C.2    14  GLY14       0.1480
     11  C         42.3300   -4.3220   21.2950 C.2    14  GLY14       0.2820
     12  O         41.9870   -3.6130   22.2370 O.2    14  GLY14      -0.2669
     13  N         43.1040   -5.3850   21.4500 N.am   15  LYS15      -0.1929
     14  CA        43.6580   -5.7230   22.7510 C.3    15  LYS15       0.1731
     15  C         45.0640   -6.2730   22.5640 C.2    15  LYS15       0.2617
     16  O         45.2420   -7.3710   22.0280 O.2    15  LYS15      -0.2715
     17  CB        42.7550   -6.7270   23.4710 C.3    15  LYS15       0.0312
     18  CG        43.3650   -7.3260   24.7200 C.3    15  LYS15       0.0038
     19  CD        42.2950   -7.7000   25.7260 C.3    15  LYS15       0.0206
     20  CE        42.9000   -7.8830   27.1080 C.3    15  LYS15       0.1093
     21  NZ        41.8470   -7.9650   28.1610 N.3    15  LYS15      -0.1314
     22  N         46.0600   -5.5000   22.9860 N.am   16  GLY16      -0.1940
     23  CA        47.4480   -5.9010   22.8370 C.3    16  GLY16       0.2014
     24  C         48.0190   -6.4840   24.1110 C.2    16  GLY16       0.2640
     25  O         47.2720   -7.0180   24.9330 O.2    16  GLY16      -0.2714
     26  N         49.3420   -6.3700   24.2620 N.am   17  SER17      -0.1935
     27  CA        50.0760   -6.8980   25.4140 C.3    17  SER17       0.2055
     28  C         49.6120   -6.2730   26.7220 C.2    17  SER17       0.2643
     29  O         49.5760   -6.9410   27.7510 O.2    17  SER17      -0.2714
     30  CB        51.5840   -6.6690   25.2520 C.3    17  SER17       0.2130
     31  OG        52.1310   -7.4320   24.1880 O.3    17  SER17      -0.2179
     32  N         49.2720   -4.9870   26.6790 N.am   18  PHE18      -0.1959
     33  CA        48.6700   -4.2990   27.8240 C.3    18  PHE18       0.1771
     34  C         47.6320   -3.2890   27.3470 C.2    18  PHE18       0.2620
     35  O         47.6370   -2.8810   26.1820 O.2    18  PHE18      -0.2715
     36  CB        49.7360   -3.6010   28.6830 C.3    18  PHE18       0.0574
     37  CG        50.6650   -2.7040   27.9030 C.ar   18  PHE18      -0.0200
     38  CD1       50.3340   -1.3850   27.6480 C.ar   18  PHE18      -0.0042
     39  CD2       51.8810   -3.1810   27.4360 C.ar   18  PHE18      -0.0042
     40  CE1       51.1980   -0.5590   26.9230 C.ar   18  PHE18      -0.0003
     41  CE2       52.7440   -2.3590   26.7170 C.ar   18  PHE18      -0.0003
     42  CZ        52.4000   -1.0480   26.4620 C.ar   18  PHE18      -0.0000
     43  N         46.7370   -2.8950   28.2470 N.am   19  GLY19      -0.1954
     44  CA        45.6980   -1.9340   27.9270 C.3    19  GLY19       0.1869
     45  C         44.6440   -2.4450   26.9600 C.2    19  GLY19       0.2309
     46  O         44.5570   -3.6350   26.6770 O.2    19  GLY19      -0.2863
     47  N         42.3570   -0.9350   23.2830 N.3    21  VAL21      -0.1245
     48  CA        42.1720    0.1350   22.3240 C.3    21  VAL21       0.1561
     49  C         40.7070    0.2160   21.9130 C.2    21  VAL21       0.2260
     50  O         40.0640   -0.8030   21.6550 O.2    21  VAL21      -0.2867
     51  CB        43.0710   -0.0610   21.1000 C.3    21  VAL21       0.0252
     52  CG1       42.8770    1.0690   20.1000 C.3    21  VAL21       0.0019
     53  CG2       44.5350   -0.1290   21.5610 C.3    21  VAL21       0.0019
     54  N         41.2480    6.7910   17.7710 N.3    34  ALA34      -0.1245
     55  CA        41.5550    5.5470   18.4340 C.3    34  ALA34       0.1562
     56  C         42.0090    5.9120   19.8350 C.2    34  ALA34       0.2260
     57  O         42.8000    6.8410   20.0200 O.2    34  ALA34      -0.2867
     58  CB        42.6240    4.7680   17.6780 C.3    34  ALA34       0.0290
     59  N         43.7460    4.3980   23.2440 N.3    36  LYS36      -0.1245
     60  CA        44.4490    3.3190   23.9300 C.3    36  LYS36       0.1561
     61  C         44.4660    3.6090   25.4260 C.2    36  LYS36       0.2260
     62  O         45.1420    4.5320   25.8830 O.2    36  LYS36      -0.2867
     63  CB        45.8760    3.1530   23.3860 C.3    36  LYS36       0.0271
     64  CG        46.6630    1.9980   24.0040 C.3    36  LYS36       0.0035
     65  CD        48.0750    1.8700   23.3900 C.3    36  LYS36       0.0206
     66  CE        48.0200    1.5970   21.8740 C.3    36  LYS36       0.1093
     67  NZ        49.3860    1.4200   21.2550 N.3    36  LYS36      -0.1314
     68  N         50.9920    7.2880   12.3880 N.3    66  THR66      -0.1218
     69  CA        49.7630    7.4960   13.1740 C.3    66  THR66       0.1862
     70  C         49.8250    8.7900   13.9860 C.2    66  THR66       0.2287
     71  O         50.7300    8.9730   14.8050 O.2    66  THR66      -0.2866
     72  CB        49.5120    6.3310   14.1530 C.3    66  THR66       0.1770
     73  OG1       50.6170    6.2440   15.0690 O.3    66  THR66      -0.2211
     74  CG2       49.3770    5.0220   13.4010 C.3    66  THR66       0.0375
     75  N         44.9030    8.7550   19.5360 N.3    82  MET82      -0.1230
     76  CA        45.5540    8.6260   18.2410 C.3    82  MET82       0.1702
     77  C         44.5750    8.7670   17.0890 C.2    82  MET82       0.2592
     78  O         43.3530    8.7020   17.2580 O.2    82  MET82      -0.2718
     79  CB        46.2290    7.2660   18.1010 C.3    82  MET82       0.0401
     80  CG        47.3080    6.9670   19.1000 C.3    82  MET82       0.0596
     81  SD        47.6810    5.2060   18.9940 S.3    82  MET82      -0.1393
     82  CE        47.9320    5.0630   17.2470 C.3    82  MET82       0.0692
     83  N         45.1470    8.9250   15.9030 N.am   83  GLU83      -0.1966
     84  CA        44.4290    8.7830   14.6480 C.3    83  GLU83       0.1733
     85  C         43.7490    7.4150   14.5840 C.2    83  GLU83       0.2616
     86  O         44.3620    6.3990   14.9180 O.2    83  GLU83      -0.2715
     87  CB        45.4190    8.9720   13.5030 C.3    83  GLU83       0.0429
     88  CG        44.8860    8.8120   12.1230 C.3    83  GLU83       0.1163
     89  CD        45.9650    9.0850   11.1060 C.2    83  GLU83       0.3649
     90  OE1       45.6130    9.3220    9.9330 O.co2  83  GLU83      -0.2457
     91  OE2       47.1690    9.0650   11.4850 O.co2  83  GLU83      -0.2457
     92  N         42.4740    7.3820   14.1980 N.am   84  TYR84      -0.1960
     93  CA        41.7830    6.1050   14.0290 C.3    84  TYR84       0.1771
     94  C         41.9790    5.5470   12.6200 C.2    84  TYR84       0.2619
     95  O         41.6740    6.2210   11.6350 O.2    84  TYR84      -0.2715
     96  CB        40.2810    6.2480   14.3050 C.3    84  TYR84       0.0574
     97  CG        39.4760    5.0240   13.9110 C.ar   84  TYR84      -0.0198
     98  CD1       39.5260    3.8590   14.6690 C.ar   84  TYR84      -0.0009
     99  CD2       38.6680    5.0340   12.7760 C.ar   84  TYR84      -0.0009
    100  CE1       38.7770    2.7370   14.3050 C.ar   84  TYR84       0.0417
    101  CE2       37.9330    3.9210   12.4040 C.ar   84  TYR84       0.0417
    102  CZ        37.9880    2.7830   13.1720 C.ar   84  TYR84       0.1957
    103  OH        37.2550    1.6820   12.7960 O.3    84  TYR84      -0.2866
    104  N         42.4620    4.3110   12.5360 N.am   85  LEU85      -0.1977
    105  CA        42.6930    3.6600   11.2500 C.3    85  LEU85       0.1596
    106  C         41.8830    2.3830   11.2060 C.2    85  LEU85       0.2287
    107  O         42.2250    1.3920   11.8450 O.2    85  LEU85      -0.2864
    108  CB        44.1830    3.3870   11.0380 C.3    85  LEU85       0.0297
    109  CG        44.9740    4.6910   10.9540 C.3    85  LEU85       0.0022
    110  CD1       46.4510    4.4390   11.1690 C.3    85  LEU85       0.0001
    111  CD2       44.7330    5.3870    9.6320 C.3    85  LEU85       0.0001
    112  N         45.1370   -3.7270    9.7720 N.3    89  SER89      -0.1217
    113  CA        46.5770   -3.7760    9.5020 C.3    89  SER89       0.1889
    114  C         46.8510   -4.5140    8.1970 C.2    89  SER89       0.2288
    115  O         45.9870   -5.2380    7.7060 O.2    89  SER89      -0.2866
    116  CB        47.3250   -4.4620   10.6340 C.3    89  SER89       0.2089
    117  OG        47.0620   -5.8490   10.6270 O.3    89  SER89      -0.2183
    118  N         46.1930   -8.0380    8.8540 N.3    92  ASP92      -0.1239
    119  CA        44.7530   -8.3160    8.8060 C.3    92  ASP92       0.1674
    120  C         44.2990   -8.5260    7.3600 C.2    92  ASP92       0.2266
    121  O         43.5440   -9.4470    7.0590 O.2    92  ASP92      -0.2867
    122  CB        43.9320   -7.1660    9.3980 C.3    92  ASP92       0.1410
    123  CG        44.1020   -7.0120   10.8910 C.2    92  ASP92       0.3668
    124  OD1       44.3380   -8.0170   11.5760 O.co2  92  ASP92      -0.2456
    125  OD2       43.9780   -5.8690   11.3780 O.co2  92  ASP92      -0.2456
    126  N         60.5000   -2.0340   14.9160 N.3   127  ASP127     -0.1239
    127  CA        59.5280   -3.1120   14.9640 C.3   127  ASP127      0.1674
    128  C         58.6550   -3.0810   13.7080 C.2   127  ASP127      0.2266
    129  O         57.4390   -3.2240   13.7780 O.2   127  ASP127     -0.2867
    130  CB        58.6920   -3.0190   16.2540 C.3   127  ASP127      0.1410
    131  CG        57.9680   -4.3140   16.5790 C.2   127  ASP127      0.3668
    132  OD1       58.2960   -5.3640   15.9800 O.co2 127  ASP127     -0.2456
    133  OD2       57.0550   -4.2860   17.4340 O.co2 127  ASP127     -0.2456
    134  N         56.8160   -4.5500   10.7490 N.3   129  LYS129     -0.1245
    135  CA        56.2560   -5.8430   10.3620 C.3   129  LYS129      0.1561
    136  C         54.8350   -5.5280    9.9310 C.2   129  LYS129      0.2260
    137  O         54.3220   -4.4850   10.3130 O.2   129  LYS129     -0.2867
    138  CB        56.2920   -6.8490   11.5250 C.3   129  LYS129      0.0271
    139  CG        55.5670   -6.3610   12.7760 C.3   129  LYS129      0.0035
    140  CD        55.6590   -7.3870   13.9160 C.3   129  LYS129      0.0206
    141  CE        54.9570   -6.8970   15.1850 C.3   129  LYS129      0.1093
    142  NZ        55.1370   -7.8650   16.3090 N.3   129  LYS129     -0.1314
    143  N         51.9660   -6.3310   10.8450 N.3   131  ALA131     -0.1231
    144  CA        50.9760   -6.0730   11.9010 C.3   131  ALA131      0.1694
    145  C         51.0360   -4.6200   12.3750 C.2   131  ALA131      0.2592
    146  O         50.0460   -4.0860   12.8890 O.2   131  ALA131     -0.2718
    147  CB        51.1810   -7.0170   13.0740 C.3   131  ALA131      0.0304
    148  N         52.1890   -3.9750   12.1870 N.am  132  ASN132     -0.1974
    149  CA        52.3620   -2.5970   12.6430 C.3   132  ASN132      0.1688
    150  C         52.2330   -1.5810   11.5050 C.2   132  ASN132      0.2292
    151  O         52.6270   -0.4170   11.6330 O.2   132  ASN132     -0.2864
    152  CB        53.7000   -2.4620   13.3620 C.3   132  ASN132      0.1181
    153  CG        53.6820   -3.1430   14.7200 C.2   132  ASN132      0.2629
    154  OD1       52.6080   -3.3890   15.2820 O.2   132  ASN132     -0.2716
    155  ND2       54.8660   -3.4530   15.2560 N.am  132  ASN132     -0.0877
    156  N         49.2420    0.1130    9.4400 N.3   134  LEU134     -0.1245
    157  CA        47.7870    0.2540    9.5840 C.3   134  LEU134      0.1561
    158  C         47.1800    1.0900    8.4670 C.2   134  LEU134      0.2260
    159  O         47.7440    2.1190    8.0720 O.2   134  LEU134     -0.2867
    160  CB        47.4460    0.8860   10.9400 C.3   134  LEU134      0.0270
    161  CG        47.9180    0.1950   12.2290 C.3   134  LEU134      0.0019
    162  CD1       47.3030    0.8690   13.4560 C.3   134  LEU134      0.0001
    163  CD2       47.5970   -1.2830   12.2260 C.3   134  LEU134      0.0001
    164  N         52.6480    2.2600   12.6820 N.3   144  ALA144     -0.1231
    165  CA        52.1460    2.3000   14.0510 C.3   144  ALA144      0.1694
    166  C         53.0880    1.5690   15.0250 C.2   144  ALA144      0.2592
    167  O         54.0680    0.9310   14.6050 O.2   144  ALA144     -0.2718
    168  CB        50.7640    1.6910   14.0990 C.3   144  ALA144      0.0304
    169  N         52.7950    1.6910   16.3190 N.am  145  ASP145     -0.1974
    170  CA        53.4540    0.9080   17.3760 C.3   145  ASP145      0.1709
    171  C         54.8960    1.3410   17.5860 C.2   145  ASP145      0.2293
    172  O         55.8390    0.6900   17.1350 O.2   145  ASP145     -0.2864
    173  CB        53.4000   -0.5940   17.0650 C.3   145  ASP145      0.1436
    174  CG        53.6890   -1.4410   18.2830 C.2   145  ASP145      0.3671
    175  OD1       53.9410   -0.8510   19.3550 O.co2 145  ASP145     -0.2456
    176  OD2       53.6870   -2.6830   18.1660 O.co2 145  ASP145     -0.2456
@<TRIPOS>BOND
     1   121   120    2
     2   120   119    1
     3   115   114    2
     4   159   158    2
     5   114   113    1
     6   158   157    1
     7   119   118    1
     8   119   122    1
     9   122   123    1
    10   156   157    1
    11   113   112    1
    12   113   116    1
    13   157   160    1
    14   111   109    1
    15   136   137    2
    16   136   135    1
    17    90    89   ar
    18   135   134    1
    19   135   138    1
    20   117   116    1
    21   143   144    1
    22   123   125   ar
    23   123   124   ar
    24   160   161    1
    25   109   108    1
    26   109   110    1
    27   108   105    1
    28    89    91   ar
    29    89    88    1
    30   106   105    1
    31   106   107    2
    32   105   104    1
    33   150   151    2
    34   150   149    1
    35   138   139    1
    36    95    94    2
    37   144   145    1
    38   144   147    1
    39    88    87    1
    40   148   145   am
    41   148   149    1
    42   163   161    1
    43   161   162    1
    44   145   146    2
    45    68    69    1
    46   101    99   ar
    47   101   102   ar
    48   104    94   am
    49    94    93    1
    50   149   152    1
    51   164   165    1
    52    99    97   ar
    53   139   140    1
    54   103   102    1
    55   102   100   ar
    56    69    70    1
    57    69    72    1
    58   152   153    1
    59    74    72    1
    60    87    84    1
    61   128   129    2
    62   128   127    1
    63    97    96    1
    64    97    98   ar
    65   140   141    1
    66    70    71    2
    67    93    92    1
    68    93    96    1
    69   165   168    1
    70   165   166    1
    71    72    73    1
    72    92    85   am
    73   100    98   ar
    74    85    84    1
    75    85    86    2
    76   167   166    2
    77    84    83    1
    78   153   155   am
    79   153   154    2
    80   126   127    1
    81   127   130    1
    82   166   169   am
    83   141   142    1
    84    83    77   am
    85   132   131   ar
    86   130   131    1
    87   169   170    1
    88   131   133   ar
    89   173   170    1
    90   173   174    1
    91    77    78    2
    92    77    76    1
    93   172   171    2
    94    82    81    1
    95     8     6    1
    96   170   171    1
    97     7     5    1
    98     4     3    2
    99     5     6    1
   100     5     2    1
   101    58    55    1
   102    54    55    1
   103    79    76    1
   104    79    80    1
   105   176   174   ar
   106    76    75    1
   107   174   175   ar
   108     2     3    1
   109     2     1    1
   110    55    56    1
   111     3     9    1
   112    81    80    1
   113     9    10    2
   114    56    57    2
   115    10    11    1
   116    52    51    1
   117    51    53    1
   118    51    48    1
   119    67    66    1
   120    11    13   am
   121    11    12    2
   122    13    14    1
   123    50    49    2
   124    66    65    1
   125    49    48    1
   126    16    15    2
   127    48    47    1
   128    15    14    1
   129    15    22   am
   130    14    17    1
   131    23    22    1
   132    23    24    1
   133    59    60    1
   134    63    60    1
   135    63    64    1
   136    65    64    1
   137    17    18    1
   138    60    61    1
   139    24    26   am
   140    24    25    2
   141    31    30    1
   142    26    27    1
   143    18    19    1
   144    30    27    1
   145    27    28    1
   146    61    62    2
   147    19    20    1
   148    35    34    2
   149    42    41   ar
   150    42    40   ar
   151    46    45    2
   152    32    28   am
   153    32    33    1
   154    41    39   ar
   155    28    29    2
   156    40    38   ar
   157    45    44    1
   158    20    21    1
   159    34    33    1
   160    34    43   am
   161    39    37   ar
   162    38    37   ar
   163    33    36    1
   164    37    36    1
   165    44    43    1
