@<TRIPOS>MOLECULE
tmp/4qmmA00.pdb
 181 171 0 0 0
SMALL
GASTEIGER

@<TRIPOS>ATOM
      1  N        138.4160    1.8970   76.3920 N.3    20  GLU20      -0.1231
      2  CA       137.9950    3.2450   76.7770 C.3    20  GLU20       0.1699
      3  C        136.5430    3.3240   77.2450 C.2    20  GLU20       0.2592
      4  O        135.6880    2.5150   76.8560 O.2    20  GLU20      -0.2718
      5  CB       138.2050    4.2300   75.6190 C.3    20  GLU20       0.0402
      6  CG       137.2560    4.0430   74.4510 C.3    20  GLU20       0.1161
      7  CD       137.8150    3.1290   73.3750 C.2    20  GLU20       0.3649
      8  OE1      137.2900    3.1780   72.2430 O.co2  20  GLU20      -0.2457
      9  OE2      138.7730    2.3710   73.6540 O.co2  20  GLU20      -0.2457
     10  N        136.2770    4.3210   78.0850 N.am   21  LYS21      -0.1966
     11  CA       134.9240    4.5970   78.5390 C.3    21  LYS21       0.1728
     12  C        134.0770    5.0640   77.3670 C.2    21  LYS21       0.2616
     13  O        134.5210    5.8930   76.5770 O.2    21  LYS21      -0.2715
     14  CB       134.9360    5.6570   79.6330 C.3    21  LYS21       0.0311
     15  CG       133.5910    5.9150   80.2600 C.3    21  LYS21       0.0038
     16  CD       133.7000    7.0560   81.2630 C.3    21  LYS21       0.0206
     17  CE       132.5550    7.0240   82.2530 C.3    21  LYS21       0.1093
     18  NZ       131.2310    6.9600   81.5850 N.3    21  LYS21      -0.1314
     19  N        132.8620    4.5400   77.2430 N.am   22  ILE22      -0.1963
     20  CA       132.0110    4.9670   76.1410 C.3    22  ILE22       0.1730
     21  C        130.7040    5.5890   76.6110 C.2    22  ILE22       0.2656
     22  O        129.9940    6.1880   75.8170 O.2    22  ILE22      -0.2711
     23  CB       131.7090    3.8060   75.1730 C.3    22  ILE22       0.0290
     24  CG1      131.0790    2.6240   75.9160 C.3    22  ILE22       0.0022
     25  CG2      132.9910    3.3750   74.4610 C.3    22  ILE22       0.0023
     26  CD1      130.7400    1.4400   75.0130 C.3    22  ILE22       0.0001
     27  N        130.3920    5.4860   77.9000 N.am   23  GLY23      -0.1716
     28  CA       129.2340    6.1950   78.4150 C.2    23  GLY23       0.1480
     29  C        128.8770    5.9220   79.8670 C.2    23  GLY23       0.2820
     30  O        129.6240    5.2670   80.6040 O.2    23  GLY23      -0.2669
     31  N        127.7190    6.4360   80.2700 N.am   24  LYS24      -0.1929
     32  CA       127.1990    6.2600   81.6200 C.3    24  LYS24       0.1731
     33  C        125.7680    5.7340   81.5670 C.2    24  LYS24       0.2616
     34  O        124.9040    6.3430   80.9240 O.2    24  LYS24      -0.2715
     35  CB       127.2330    7.5900   82.3770 C.3    24  LYS24       0.0312
     36  CG       127.6520    7.5110   83.8330 C.3    24  LYS24       0.0038
     37  CD       128.9450    8.3090   84.0600 C.3    24  LYS24       0.0206
     38  CE       129.1850    8.6210   85.5310 C.3    24  LYS24       0.1093
     39  NZ       130.4920    9.3070   85.7060 N.3    24  LYS24      -0.1314
     40  N        125.5080    4.6180   82.2390 N.am   25  GLY25      -0.1955
     41  CA       124.1540    4.0940   82.3160 C.3    25  GLY25       0.1869
     42  C        123.3780    4.7010   83.4710 C.2    25  GLY25       0.2309
     43  O        123.9410    5.4610   84.2690 O.2    25  GLY25      -0.2863
     44  N        130.0600    2.5860   81.5160 N.3    30  VAL30      -0.1245
     45  CA       130.1540    1.6090   80.4350 C.3    30  VAL30       0.1561
     46  C        131.4320    1.7810   79.6180 C.2    30  VAL30       0.2260
     47  O        131.7730    2.8980   79.2110 O.2    30  VAL30      -0.2867
     48  CB       128.9510    1.7060   79.4890 C.3    30  VAL30       0.0252
     49  CG1      129.0340    0.6360   78.3970 C.3    30  VAL30       0.0019
     50  CG2      127.6410    1.5970   80.2770 C.3    30  VAL30       0.0019
     51  N        130.4690   -4.6170   75.2910 N.3    43  ALA43      -0.1245
     52  CA       130.2950   -3.4680   76.1670 C.3    43  ALA43       0.1562
     53  C        130.3400   -3.9530   77.6060 C.2    43  ALA43       0.2260
     54  O        129.7300   -4.9680   77.9490 O.2    43  ALA43      -0.2867
     55  CB       128.9850   -2.7480   75.8760 C.3    43  ALA43       0.0290
     56  N        129.6160   -2.9280   81.4920 N.3    45  LYS45      -0.1245
     57  CA       129.1040   -2.0050   82.4840 C.3    45  LYS45       0.1561
     58  C        129.6930   -2.3460   83.8410 C.2    45  LYS45       0.2260
     59  O        129.5370   -3.4710   84.3310 O.2    45  LYS45      -0.2867
     60  CB       127.5770   -2.0380   82.5380 C.3    45  LYS45       0.0271
     61  CG       127.0320   -1.1770   83.6510 C.3    45  LYS45       0.0035
     62  CD       125.8670   -0.3480   83.1900 C.3    45  LYS45       0.0206
     63  CE       124.5990   -1.1440   83.1820 C.3    45  LYS45       0.1093
     64  NZ       123.4350   -0.2760   82.8080 N.3    45  LYS45      -0.1314
     65  N        119.4290   -5.3150   73.5100 N.3    75  THR75      -0.1218
     66  CA       120.8360   -5.6170   73.8130 C.3    75  THR75       0.1862
     67  C        120.9910   -6.9220   74.5770 C.2    75  THR75       0.2287
     68  O        120.3890   -7.1000   75.6360 O.2    75  THR75      -0.2866
     69  CB       121.5040   -4.5130   74.6610 C.3    75  THR75       0.1770
     70  OG1      120.8060   -4.3900   75.9080 O.3    75  THR75      -0.2211
     71  CG2      121.5070   -3.1740   73.9330 C.3    75  THR75       0.0375
     72  N        127.8970   -7.0200   78.0640 N.3    91  MET91      -0.1230
     73  CA       126.7880   -6.7470   77.1570 C.3    91  MET91       0.1702
     74  C        127.2160   -6.8110   75.7060 C.2    91  MET91       0.2592
     75  O        128.3890   -6.5810   75.3790 O.2    91  MET91      -0.2718
     76  CB       126.1980   -5.3550   77.4170 C.3    91  MET91       0.0401
     77  CG       125.7840   -5.0800   78.8410 C.3    91  MET91       0.0596
     78  SD       124.3070   -5.9890   79.2930 S.3    91  MET91      -0.1393
     79  CE       123.1070   -5.2870   78.1570 C.3    91  MET91       0.0692
     80  N        126.2440   -7.0980   74.8440 N.am   92  GLU92      -0.1966
     81  CA       126.4060   -6.9910   73.4000 C.3    92  GLU92       0.1733
     82  C        126.8990   -5.6000   73.0210 C.2    92  GLU92       0.2616
     83  O        126.3570   -4.6030   73.4870 O.2    92  GLU92      -0.2715
     84  CB       125.0750   -7.2840   72.7060 C.3    92  GLU92       0.0429
     85  CG       125.0930   -7.0910   71.2050 C.3    92  GLU92       0.1163
     86  CD       123.7180   -7.2620   70.5840 C.2    92  GLU92       0.3649
     87  OE1      123.6380   -7.3330   69.3420 O.co2  92  GLU92      -0.2457
     88  OE2      122.7200   -7.3250   71.3360 O.co2  92  GLU92      -0.2457
     89  N        127.9180   -5.5270   72.1720 N.am   93  TYR93      -0.1960
     90  CA       128.4650   -4.2340   71.7670 C.3    93  TYR93       0.1771
     91  C        127.7640   -3.7240   70.5210 C.2    93  TYR93       0.2619
     92  O        127.6080   -4.4510   69.5530 O.2    93  TYR93      -0.2715
     93  CB       129.9740   -4.3310   71.5170 C.3    93  TYR93       0.0574
     94  CG       130.6160   -3.0270   71.0940 C.ar   93  TYR93      -0.0198
     95  CD1      130.7560   -1.9750   71.9920 C.ar   93  TYR93      -0.0009
     96  CD2      131.1050   -2.8550   69.8020 C.ar   93  TYR93      -0.0009
     97  CE1      131.3600   -0.7770   71.6100 C.ar   93  TYR93       0.0417
     98  CE2      131.7170   -1.6710   69.4150 C.ar   93  TYR93       0.0417
     99  CZ       131.8360   -0.6350   70.3190 C.ar   93  TYR93       0.1957
    100  OH       132.4330    0.5430   69.9320 O.3    93  TYR93      -0.2866
    101  N        127.3290   -2.4750   70.5560 N.am   94  LEU94      -0.1963
    102  CA       126.7050   -1.8710   69.3870 C.3    94  LEU94       0.1728
    103  C        127.5450   -0.6960   68.9120 C.2    94  LEU94       0.2617
    104  O        127.5100    0.3880   69.4890 O.2    94  LEU94      -0.2715
    105  CB       125.2720   -1.4550   69.7070 C.3    94  LEU94       0.0311
    106  CG       124.4660   -2.7170   70.0410 C.3    94  LEU94       0.0022
    107  CD1      123.1480   -2.3580   70.6360 C.3    94  LEU94       0.0001
    108  CD2      124.2540   -3.5470   68.7820 C.3    94  LEU94       0.0001
    109  N        128.3020   -0.9340   67.8490 N.am   95  GLY95      -0.1940
    110  CA       129.3640   -0.0340   67.4440 C.3    95  GLY95       0.2014
    111  C        128.9310    1.3050   66.8980 C.2    95  GLY95       0.2639
    112  O        129.7490    2.2170   66.7900 O.2    95  GLY95      -0.2714
    113  N        127.6540    1.4380   66.5540 N.am   96  GLY96      -0.1939
    114  CA       127.1650    2.6790   65.9810 C.3    96  GLY96       0.2014
    115  C        126.8150    3.7460   67.0040 C.2    96  GLY96       0.2639
    116  O        126.6030    4.9040   66.6480 O.2    96  GLY96      -0.2714
    117  N        126.7480    3.3710   68.2770 N.am   97  GLY97      -0.1939
    118  CA       126.4080    4.3320   69.3130 C.3    97  GLY97       0.2014
    119  C        124.9120    4.5950   69.3450 C.2    97  GLY97       0.2639
    120  O        124.1440    3.8630   68.7270 O.2    97  GLY97      -0.2714
    121  N        124.4860    5.6320   70.0610 N.am   98  SER98      -0.1949
    122  CA       123.0510    5.8870   70.2220 C.3    98  SER98       0.1924
    123  C        122.5140    6.7540   69.1020 C.2    98  SER98       0.2314
    124  O        123.2730    7.4780   68.4490 O.2    98  SER98      -0.2863
    125  CB       122.7590    6.5640   71.5630 C.3    98  SER98       0.2116
    126  OG       123.1770    7.9240   71.5360 O.3    98  SER98      -0.2180
    127  N        123.5720   10.2860   69.7300 N.3   101  ASP101     -0.1239
    128  CA       124.9120   10.5410   69.1980 C.3   101  ASP101      0.1674
    129  C        124.8420   10.8340   67.6980 C.2   101  ASP101      0.2266
    130  O        125.4920   11.7580   67.1850 O.2   101  ASP101     -0.2867
    131  CB       125.8470    9.3360   69.4300 C.3   101  ASP101      0.1410
    132  CG       126.1400    9.0650   70.9070 C.2   101  ASP101      0.3668
    133  OD1      126.3690   10.0290   71.6720 O.co2 101  ASP101     -0.2456
    134  OD2      126.1580    7.8660   71.2980 O.co2 101  ASP101     -0.2456
    135  N        118.7530    8.4330   73.4510 N.3   140  ALA140     -0.1245
    136  CA       120.0150    7.9990   74.0650 C.3   140  ALA140      0.1562
    137  C        120.0220    6.5040   74.3930 C.2   140  ALA140      0.2260
    138  O        121.0930    5.8970   74.5480 O.2   140  ALA140     -0.2867
    139  CB       120.3000    8.8020   75.3220 C.3   140  ALA140      0.0290
    140  N        120.2200    2.1650   70.4740 N.3   143  LEU143     -0.1245
    141  CA       121.5860    1.9360   70.0110 C.3   143  LEU143      0.1561
    142  C        121.6390    1.2420   68.6600 C.2   143  LEU143      0.2260
    143  O        120.7920    0.3990   68.3440 O.2   143  LEU143     -0.2867
    144  CB       122.3600    1.1000   71.0320 C.3   143  LEU143      0.0270
    145  CG       122.4420    1.6180   72.4700 C.3   143  LEU143      0.0019
    146  CD1      123.3480    0.7130   73.2940 C.3   143  LEU143      0.0001
    147  CD2      122.9510    3.0590   72.5020 C.3   143  LEU143      0.0001
    148  N        118.2100   -0.2770   74.7430 N.3   153  ALA153     -0.1231
    149  CA       119.2010   -0.4420   75.8000 C.3   153  ALA153      0.1694
    150  C        118.7600    0.2290   77.0900 C.2   153  ALA153      0.2592
    151  O        117.7570    0.9500   77.1260 O.2   153  ALA153     -0.2718
    152  CB       120.5480    0.1190   75.3600 C.3   153  ALA153      0.0304
    153  N        119.5440   -0.0150   78.1360 N.am  154  ASP154     -0.1974
    154  CA       119.3470    0.5210   79.4850 C.3   154  ASP154      0.1709
    155  C        117.9850    0.1850   80.0690 C.2   154  ASP154      0.2293
    156  O        117.0380    0.9780   80.0190 O.2   154  ASP154     -0.2864
    157  CB       119.5700    2.0350   79.5240 C.3   154  ASP154      0.1436
    158  CG       119.9470    2.5140   80.9100 C.2   154  ASP154      0.3671
    159  OD1      119.4440    1.9280   81.8880 O.co2 154  ASP154     -0.2456
    160  OD2      120.7680    3.4470   81.0320 O.co2 154  ASP154     -0.2456
    161  N        128.5470   10.3300   61.0690 N.3   282  TYR282     -0.1241
    162  CA       129.0520   10.6260   62.4080 C.3   282  TYR282      0.1605
    163  C        130.5610   10.4400   62.4610 C.2   282  TYR282      0.2264
    164  O        131.2710   11.2460   63.0700 O.2   282  TYR282     -0.2867
    165  CB       128.3680    9.7380   63.4580 C.3   282  TYR282      0.0534
    166  CG       128.8560    9.9530   64.8810 C.ar  282  TYR282     -0.0201
    167  CD1      128.3000   10.9400   65.6900 C.ar  282  TYR282     -0.0009
    168  CD2      129.8800    9.1730   65.4130 C.ar  282  TYR282     -0.0009
    169  CE1      128.7500   11.1440   66.9950 C.ar  282  TYR282      0.0417
    170  CE2      130.3370    9.3720   66.7120 C.ar  282  TYR282      0.0417
    171  CZ       129.7660   10.3550   67.4980 C.ar  282  TYR282      0.1957
    172  OH       130.2190   10.5460   68.7850 O.3   282  TYR282     -0.2866
    173  N        133.0370   13.6260   63.4610 N.3   286  LYS286     -0.1245
    174  CA       133.8510   13.7290   64.6670 C.3   286  LYS286      0.1561
    175  C        135.3320   13.6410   64.3370 C.2   286  LYS286      0.2260
    176  O        136.1830   13.9590   65.1670 O.2   286  LYS286     -0.2867
    177  CB       133.4690   12.6600   65.6910 C.3   286  LYS286      0.0271
    178  CG       133.1400   13.2720   67.0390 C.3   286  LYS286      0.0035
    179  CD       133.0540   12.2680   68.1750 C.3   286  LYS286      0.0206
    180  CE       132.9590   13.0320   69.4960 C.3   286  LYS286      0.1093
    181  NZ       132.3380   12.2460   70.5950 N.3   286  LYS286     -0.1314
@<TRIPOS>BOND
     1   161   162    1
     2   162   163    1
     3   162   165    1
     4   163   164    2
     5   165   166    1
     6   173   174    1
     7   175   174    1
     8   175   176    2
     9   174   177    1
    10   166   168   ar
    11   166   167   ar
    12   168   170   ar
    13   167   169   ar
    14   177   178    1
    15   114   113    1
    16   114   115    1
    17   113   111   am
    18   116   115    2
    19   170   171   ar
    20   112   111    2
    21   111   110    1
    22   169   171   ar
    23   115   117   am
    24   178   179    1
    25   130   129    2
    26   110   109    1
    27   171   172    1
    28   129   128    1
    29   109   103   am
    30   179   180    1
    31   117   118    1
    32   143   142    2
    33   124   123    2
    34   142   141    1
    35   120   119    2
    36   108   106    1
    37   103   102    1
    38   103   104    2
    39   123   122    1
    40   128   131    1
    41   128   127    1
    42   118   119    1
    43    87    86   ar
    44   119   121   am
    45   102   105    1
    46   102   101    1
    47    98    96   ar
    48    98    99   ar
    49   131   132    1
    50   180   181    1
    51    92    91    2
    52   105   106    1
    53    96    94   ar
    54   100    99    1
    55   141   140    1
    56   141   144    1
    57   106   107    1
    58   121   122    1
    59   122   125    1
    60    99    97   ar
    61    91   101   am
    62    91    90    1
    63    86    85    1
    64    86    88   ar
    65   132   134   ar
    66   132   133   ar
    67   144   145    1
    68    94    93    1
    69    94    95   ar
    70    85    84    1
    71    93    90    1
    72   126   125    1
    73    97    95   ar
    74    90    89    1
    75    89    82   am
    76     8     7   ar
    77   145   147    1
    78   145   146    1
    79    84    81    1
    80    82    81    1
    81    82    83    2
    82     7     9   ar
    83     7     6    1
    84    81    80    1
    85   135   136    1
    86    65    66    1
    87    66    67    1
    88    66    69    1
    89    71    69    1
    90   136   137    1
    91   136   139    1
    92   137   138    2
    93     6     5    1
    94    25    23    1
    95    67    68    2
    96    69    70    1
    97   148   149    1
    98    80    74   am
    99    26    24    1
   100    23    24    1
   101    23    20    1
   102    51    52    1
   103   152   149    1
   104    75    74    2
   105     5     2    1
   106    74    73    1
   107   149   150    1
   108    22    21    2
   109    55    52    1
   110    20    21    1
   111    20    19    1
   112    52    53    1
   113     1     2    1
   114    13    12    2
   115    21    27    1
   116     2     3    1
   117     4     3    2
   118   150   151    2
   119   150   153   am
   120    73    76    1
   121    73    72    1
   122    19    12   am
   123     3    10   am
   124    12    11    1
   125    76    77    1
   126    53    54    2
   127    27    28    2
   128    10    11    1
   129   153   154    1
   130    79    78    1
   131    49    48    1
   132    28    29    1
   133    11    14    1
   134    77    78    1
   135    47    46    2
   136   154   157    1
   137   154   155    1
   138    48    50    1
   139    48    45    1
   140   157   158    1
   141    46    45    1
   142    14    15    1
   143    29    31   am
   144    29    30    2
   145   156   155    2
   146    15    16    1
   147    31    32    1
   148    45    44    1
   149   158   160   ar
   150   158   159   ar
   151    34    33    2
   152    16    17    1
   153    56    57    1
   154    33    32    1
   155    33    40   am
   156    18    17    1
   157    32    35    1
   158    40    41    1
   159    41    42    1
   160    35    36    1
   161    57    60    1
   162    57    58    1
   163    60    61    1
   164    64    63    1
   165    63    62    1
   166    62    61    1
   167    42    43    2
   168    36    37    1
   169    58    59    2
   170    37    38    1
   171    38    39    1
