@<TRIPOS>MOLECULE
tmp/4qmnA00.pdb
 203 188 0 0 0
SMALL
GASTEIGER

@<TRIPOS>ATOM
      1  N        -13.3850    2.5890   22.2150 N.3    14  GLU14      -0.1245
      2  CA       -13.2160    1.1750   22.5590 C.3    14  GLU14       0.1567
      3  C        -11.7970    0.6290   22.3510 C.2    14  GLU14       0.2260
      4  O        -11.0220    1.1530   21.5490 O.2    14  GLU14      -0.2867
      5  CB       -14.2110    0.3230   21.7640 C.3    14  GLU14       0.0388
      6  CG       -13.6920   -0.1800   20.4320 C.3    14  GLU14       0.1160
      7  CD       -13.9980    0.7640   19.3020 C.2    14  GLU14       0.3649
      8  OE1      -14.5610    1.8460   19.5730 O.co2  14  GLU14      -0.2457
      9  OE2      -13.6690    0.4230   18.1440 O.co2  14  GLU14      -0.2457
     10  N         -8.7740   -1.6490   21.0450 N.3    16  ILE16      -0.1231
     11  CA        -8.4690   -2.2260   19.7300 C.3    16  ILE16       0.1692
     12  C         -7.1630   -3.0360   19.6940 C.2    16  ILE16       0.2592
     13  O         -6.8100   -3.5940   18.6610 O.2    16  ILE16      -0.2718
     14  CB        -8.3760   -1.1300   18.6370 C.3    16  ILE16       0.0266
     15  CG1       -7.2530   -0.1340   18.9560 C.3    16  ILE16       0.0019
     16  CG2       -9.7130   -0.4130   18.4620 C.3    16  ILE16       0.0020
     17  CD1       -7.0630    0.9430   17.8810 C.3    16  ILE16       0.0001
     18  N         -6.4450   -3.0940   20.8100 N.am   17  GLY17      -0.1957
     19  CA        -5.1810   -3.8190   20.8590 C.3    17  GLY17       0.1869
     20  C         -4.5410   -3.8080   22.2360 C.2    17  GLY17       0.2309
     21  O         -4.8660   -2.9640   23.0740 O.2    17  GLY17      -0.2863
     22  N         -4.2550   -0.3590   23.9060 N.3    24  VAL24      -0.1245
     23  CA        -4.4630    0.6640   22.8900 C.3    24  VAL24       0.1561
     24  C         -5.9500    0.8100   22.5950 C.2    24  VAL24       0.2260
     25  O         -6.6500   -0.1840   22.4030 O.2    24  VAL24      -0.2867
     26  CB        -3.6990    0.3360   21.5930 C.3    24  VAL24       0.0252
     27  CG1       -3.9620    1.4010   20.5020 C.3    24  VAL24       0.0019
     28  CG2       -2.2090    0.2190   21.8950 C.3    24  VAL24       0.0019
     29  N         -9.1380    3.1210   20.4920 N.3    26  LYS26      -0.1245
     30  CA        -9.6230    4.1160   19.5540 C.3    26  LYS26       0.1561
     31  C        -10.0710    5.3230   20.3720 C.2    26  LYS26       0.2260
     32  O        -10.4140    5.1850   21.5490 O.2    26  LYS26      -0.2867
     33  CB       -10.7620    3.5560   18.7170 C.3    26  LYS26       0.0271
     34  CG       -11.1120    4.3530   17.4770 C.3    26  LYS26       0.0035
     35  CD       -11.8020    3.4400   16.4620 C.3    26  LYS26       0.0206
     36  CE       -12.2990    4.2100   15.2440 C.3    26  LYS26       0.1093
     37  NZ       -12.8530    3.3120   14.1930 N.3    26  LYS26      -0.1314
     38  N         -5.5190    7.1820   18.0610 N.3    37  ALA37      -0.1231
     39  CA        -5.2320    5.9820   18.8270 C.3    37  ALA37       0.1694
     40  C         -4.6350    6.3940   20.1640 C.2    37  ALA37       0.2592
     41  O         -3.7710    7.2690   20.2320 O.2    37  ALA37      -0.2718
     42  CB        -4.2900    5.0640   18.0670 C.3    37  ALA37       0.0304
     43  N         -5.1230    5.7670   21.2260 N.am   38  ILE38      -0.1966
     44  CA        -4.7150    6.0860   22.5790 C.3    38  ILE38       0.1727
     45  C         -4.1150    4.8560   23.2670 C.2    38  ILE38       0.2616
     46  O         -4.7540    3.8100   23.3830 O.2    38  ILE38      -0.2715
     47  CB        -5.9000    6.6060   23.4170 C.3    38  ILE38       0.0290
     48  CG1       -6.5250    7.8310   22.7470 C.3    38  ILE38       0.0022
     49  CG2       -5.4460    6.9030   24.8500 C.3    38  ILE38       0.0023
     50  CD1       -7.8420    8.2710   23.3500 C.3    38  ILE38       0.0001
     51  N         -2.8670    4.9850   23.6910 N.am   39  LYS39      -0.1977
     52  CA        -2.2240    3.9480   24.4780 C.3    39  LYS39       0.1596
     53  C         -2.1560    4.4090   25.9260 C.2    39  LYS39       0.2287
     54  O         -1.6470    5.4900   26.2180 O.2    39  LYS39      -0.2864
     55  CB        -0.8290    3.6380   23.9450 C.3    39  LYS39       0.0298
     56  CG        -0.2280    2.3860   24.5400 C.3    39  LYS39       0.0038
     57  CD         1.2530    2.5640   24.7170 C.3    39  LYS39       0.0206
     58  CE         2.0020    2.1960   23.4570 C.3    39  LYS39       0.1093
     59  NZ         3.4670    2.4430   23.6190 N.3    39  LYS39      -0.1314
     60  N         10.7840    6.2680   24.0430 N.3    56  GLU56      -0.1245
     61  CA         9.8120    6.1950   22.9480 C.3    56  GLU56       0.1567
     62  C          9.0980    7.5220   22.7330 C.2    56  GLU56       0.2260
     63  O          9.0760    8.0460   21.6200 O.2    56  GLU56      -0.2867
     64  CB         8.7810    5.0950   23.2050 C.3    56  GLU56       0.0388
     65  CG         7.5890    5.1200   22.2590 C.3    56  GLU56       0.1160
     66  CD         6.8210    3.8020   22.2490 C.2    56  GLU56       0.3649
     67  OE1        5.9350    3.6150   21.3930 O.co2  56  GLU56      -0.2457
     68  OE2        7.1000    2.9380   23.0930 O.co2  56  GLU56      -0.2457
     69  N          9.1950    9.9070   19.4600 N.3    60  LEU60      -0.1245
     70  CA         7.9460   10.2680   18.7760 C.3    60  LEU60       0.1561
     71  C          7.7410   11.7840   18.7230 C.2    60  LEU60       0.2260
     72  O          7.3430   12.3180   17.6960 O.2    60  LEU60      -0.2867
     73  CB         6.7370    9.6150   19.4490 C.3    60  LEU60       0.0270
     74  CG         6.6100    8.0960   19.3570 C.3    60  LEU60       0.0019
     75  CD1        5.3920    7.6380   20.1320 C.3    60  LEU60       0.0001
     76  CD2        6.5300    7.6480   17.9040 C.3    60  LEU60       0.0001
     77  N          4.0290    7.7270   12.0660 N.3    69  THR69      -0.1218
     78  CA         2.8240    7.9660   12.8750 C.3    69  THR69       0.1862
     79  C          2.9120    9.2930   13.6360 C.2    69  THR69       0.2287
     80  O          3.7880    9.4530   14.4680 O.2    69  THR69      -0.2866
     81  CB         2.5980    6.8360   13.9040 C.3    69  THR69       0.1770
     82  OG1        3.8020    6.6380   14.6550 O.3    69  THR69      -0.2211
     83  CG2        2.2210    5.5250   13.1990 C.3    69  THR69       0.0375
     84  N         -0.6880    8.0290   25.7860 N.3    83  ILE83      -0.1245
     85  CA         0.0280    8.4160   24.5850 C.3    83  ILE83       0.1561
     86  C         -0.9450    8.4970   23.4150 C.2    83  ILE83       0.2260
     87  O         -1.6060    7.5140   23.0800 O.2    83  ILE83      -0.2867
     88  CB         1.1600    7.4190   24.2650 C.3    83  ILE83       0.0252
     89  CG1        2.1560    7.3830   25.4360 C.3    83  ILE83       0.0019
     90  CG2        1.8350    7.7910   22.9380 C.3    83  ILE83       0.0019
     91  CD1        3.3540    6.4570   25.2500 C.3    83  ILE83       0.0001
     92  N         -1.7950    9.1680   19.4360 N.3    85  MET85      -0.1230
     93  CA        -1.2470    9.1260   18.0890 C.3    85  MET85       0.1702
     94  C         -2.3700    9.2530   17.0710 C.2    85  MET85       0.2592
     95  O         -3.5440    9.0920   17.4080 O.2    85  MET85      -0.2718
     96  CB        -0.4860    7.8220   17.8540 C.3    85  MET85       0.0401
     97  CG         0.5650    7.4860   18.9220 C.3    85  MET85       0.0596
     98  SD         1.9780    8.6140   18.9730 S.3    85  MET85      -0.1393
     99  CE         2.7340    8.3570   17.3650 C.3    85  MET85       0.0692
    100  N         -2.0140    9.5330   15.8250 N.am   86  GLU86      -0.1966
    101  CA        -2.9940    9.4600   14.7670 C.3    86  GLU86       0.1733
    102  C         -3.4570    8.0260   14.6800 C.2    86  GLU86       0.2616
    103  O         -2.7080    7.1020   14.9890 O.2    86  GLU86      -0.2715
    104  CB        -2.4340    9.9130   13.4240 C.3    86  GLU86       0.0429
    105  CG        -1.4090    8.9730   12.8100 C.3    86  GLU86       0.1163
    106  CD        -0.9970    9.4300   11.4200 C.2    86  GLU86       0.3649
    107  OE1       -1.8820    9.6830   10.5920 O.co2  86  GLU86      -0.2457
    108  OE2        0.2090    9.5830   11.1620 O.co2  86  GLU86      -0.2457
    109  N         -4.7060    7.8570   14.2830 N.am   87  TYR87      -0.1960
    110  CA        -5.2840    6.5500   14.0660 C.3    87  TYR87       0.1771
    111  C         -5.0840    6.1540   12.6100 C.2    87  TYR87       0.2619
    112  O         -5.2870    6.9610   11.7210 O.2    87  TYR87      -0.2715
    113  CB        -6.7720    6.5840   14.4180 C.3    87  TYR87       0.0574
    114  CG        -7.5360    5.3180   14.1180 C.ar   87  TYR87      -0.0198
    115  CD1       -7.4710    4.2330   14.9820 C.ar   87  TYR87      -0.0009
    116  CD2       -8.3490    5.2170   12.9910 C.ar   87  TYR87      -0.0009
    117  CE1       -8.1770    3.0760   14.7350 C.ar   87  TYR87       0.0417
    118  CE2       -9.0690    4.0460   12.7300 C.ar   87  TYR87       0.0417
    119  CZ        -8.9730    2.9850   13.6110 C.ar   87  TYR87       0.1957
    120  OH        -9.6670    1.8190   13.4030 O.3    87  TYR87      -0.2866
    121  N         -4.6830    4.9150   12.3710 N.am   88  LEU88      -0.1963
    122  CA        -4.5160    4.4320   11.0080 C.3    88  LEU88       0.1728
    123  C         -5.4230    3.2260   10.8320 C.2    88  LEU88       0.2616
    124  O         -5.2090    2.1760   11.4420 O.2    88  LEU88      -0.2715
    125  CB        -3.0450    4.1130   10.7290 C.3    88  LEU88       0.0311
    126  CG        -2.1730    5.3790   10.6850 C.3    88  LEU88       0.0022
    127  CD1       -0.6890    5.0610   10.7840 C.3    88  LEU88       0.0001
    128  CD2       -2.4280    6.1530    9.4120 C.3    88  LEU88       0.0001
    129  N         -6.4660    3.4010   10.0250 N.am   89  GLY89      -0.1955
    130  CA        -7.5630    2.4530    9.9760 C.3    89  GLY89       0.1869
    131  C         -7.3740    1.3150    8.9990 C.2    89  GLY89       0.2309
    132  O         -8.2200    0.4330    8.8950 O.2    89  GLY89      -0.2863
    133  N         -4.9670   -0.9930    9.0100 N.3    91  GLY91      -0.1225
    134  CA        -4.2930   -2.1610    9.5440 C.3    91  GLY91       0.1811
    135  C         -2.8030   -2.1020    9.2380 C.2    91  GLY91       0.2280
    136  O         -2.3160   -1.1060    8.7040 O.2    91  GLY91      -0.2866
    137  N         -1.1260   -7.5940    8.6150 N.3    95  ASP95      -0.1239
    138  CA        -2.5560   -7.8590    8.4110 C.3    95  ASP95       0.1674
    139  C         -2.8610   -8.0810    6.9360 C.2    95  ASP95       0.2266
    140  O         -3.5520   -9.0360    6.5640 O.2    95  ASP95      -0.2867
    141  CB        -3.4270   -6.6950    8.9090 C.3    95  ASP95       0.1410
    142  CG        -3.3740   -6.5010   10.4110 C.2    95  ASP95       0.3668
    143  OD1       -3.1100   -7.4620   11.1580 O.co2  95  ASP95      -0.2456
    144  OD2       -3.6240   -5.3610   10.8510 O.co2  95  ASP95      -0.2456
    145  N          4.9040   -3.4880   12.0720 N.3   135  ASN135     -0.1240
    146  CA         5.1660   -2.1240   12.5280 C.3   135  ASN135      0.1653
    147  C          5.0720   -1.1360   11.3760 C.2   135  ASN135      0.2266
    148  O          5.4960    0.0160   11.4790 O.2   135  ASN135     -0.2867
    149  CB         6.5290   -2.0520   13.2160 C.3   135  ASN135      0.1155
    150  CG         6.5340   -2.8170   14.5340 C.2   135  ASN135      0.2627
    151  OD1        5.4730   -3.1480   15.0470 O.2   135  ASN135     -0.2716
    152  ND2        7.7100   -3.0840   15.0850 N.am  135  ASN135     -0.0877
    153  N          2.1460    0.5970    9.3690 N.3   137  LEU137     -0.1245
    154  CA         0.6990    0.8090    9.4140 C.3   137  LEU137      0.1561
    155  C          0.2220    1.6330    8.2210 C.2   137  LEU137      0.2260
    156  O          0.9570    2.4790    7.7030 O.2   137  LEU137     -0.2867
    157  CB         0.2770    1.4950   10.7290 C.3   137  LEU137      0.0270
    158  CG         0.6790    0.8220   12.0540 C.3   137  LEU137      0.0019
    159  CD1        0.0680    1.5310   13.2400 C.3   137  LEU137      0.0001
    160  CD2        0.2800   -0.6370   12.0830 C.3   137  LEU137      0.0001
    161  N          5.5880    2.6430   12.4300 N.3   147  ALA147     -0.1231
    162  CA         5.0400    2.7600   13.7840 C.3   147  ALA147      0.1694
    163  C          5.8580    2.0000   14.8230 C.2   147  ALA147      0.2592
    164  O          6.8040    1.2860   14.4910 O.2   147  ALA147     -0.2718
    165  CB         3.5930    2.2640   13.8130 C.3   147  ALA147      0.0304
    166  N          5.4690    2.1740   16.0790 N.am  148  ASP148     -0.1974
    167  CA         6.0030    1.4130   17.2060 C.3   148  ASP148      0.1709
    168  C          7.4800    1.7160   17.3970 C.2   148  ASP148      0.2293
    169  O          8.3650    0.9510   16.9920 O.2   148  ASP148     -0.2864
    170  CB         5.7720   -0.0830   17.0190 C.3   148  ASP148      0.1436
    171  CG         6.1050   -0.8830   18.2650 C.2   148  ASP148      0.3671
    172  OD1        6.5860   -0.2830   19.2580 O.co2 148  ASP148     -0.2456
    173  OD2        5.9050   -2.1180   18.2440 O.co2 148  ASP148     -0.2456
    174  N         -8.3910   -7.5570    3.0150 N.3   276  TYR276     -0.1227
    175  CA        -8.2830   -7.9260    4.4160 C.3   276  TYR276      0.1736
    176  C         -9.6370   -7.8140    5.1150 C.2   276  TYR276      0.2595
    177  O        -10.0410   -8.7070    5.8590 O.2   276  TYR276     -0.2718
    178  CB        -7.2540   -7.0370    5.1320 C.3   276  TYR276      0.0548
    179  CG        -7.1940   -7.2890    6.6210 C.ar  276  TYR276     -0.0200
    180  CD1       -6.6460   -8.4570    7.1200 C.ar  276  TYR276     -0.0009
    181  CD2       -7.7000   -6.3630    7.5250 C.ar  276  TYR276     -0.0009
    182  CE1       -6.5930   -8.7060    8.4790 C.ar  276  TYR276      0.0417
    183  CE2       -7.6400   -6.5960    8.8880 C.ar  276  TYR276      0.0417
    184  CZ        -7.0860   -7.7730    9.3540 C.ar  276  TYR276      0.1957
    185  OH        -7.0340   -8.0270   10.7050 O.3   276  TYR276     -0.2866
    186  N        -10.3310   -6.7040    4.8860 N.am  277  LYS277     -0.1980
    187  CA       -11.6280   -6.5020    5.5150 C.3   277  LYS277      0.1596
    188  C        -12.5930   -7.6140    5.1230 C.2   277  LYS277      0.2287
    189  O        -13.3250   -8.1380    5.9640 O.2   277  LYS277     -0.2864
    190  CB       -12.1950   -5.1260    5.1420 C.3   277  LYS277      0.0298
    191  CG       -11.5100   -3.9990    5.9010 C.3   277  LYS277      0.0038
    192  CD       -11.6430   -2.6810    5.1930 C.3   277  LYS277      0.0206
    193  CE       -13.0360   -2.1410    5.2820 C.3   277  LYS277      0.1093
    194  NZ       -13.1220   -1.0910    6.3380 N.3   277  LYS277     -0.1314
    195  N        -11.3180  -10.8250    6.8950 N.3   280  LYS280     -0.1245
    196  CA       -11.5550  -10.8280    8.3290 C.3   280  LYS280      0.1561
    197  C        -13.0260  -11.0230    8.6600 C.2   280  LYS280      0.2260
    198  O        -13.3620  -11.7460    9.5980 O.2   280  LYS280     -0.2867
    199  CB       -11.0530   -9.5280    8.9610 C.3   280  LYS280      0.0271
    200  CG       -10.9840   -9.5900   10.4800 C.3   280  LYS280      0.0035
    201  CD       -10.1600   -8.4460   11.0480 C.3   280  LYS280      0.0206
    202  CE       -10.8280   -7.0930   10.8460 C.3   280  LYS280      0.1093
    203  NZ       -11.6730   -6.7250   12.0220 N.3   280  LYS280     -0.1314
@<TRIPOS>BOND
     1   174   175    1
     2   175   176    1
     3   175   178    1
     4   186   176   am
     5   186   187    1
     6   176   177    2
     7   188   187    1
     8   188   189    2
     9   178   179    1
    10   190   187    1
    11   190   191    1
    12   192   193    1
    13   192   191    1
    14   193   194    1
    15   140   139    2
    16   179   180   ar
    17   179   181   ar
    18   195   196    1
    19   139   138    1
    20   180   182   ar
    21   181   183   ar
    22   156   155    2
    23   155   154    1
    24   196   197    1
    25   196   199    1
    26   138   137    1
    27   138   141    1
    28   182   184   ar
    29   197   198    2
    30   136   135    2
    31   183   184   ar
    32   132   131    2
    33   141   142    1
    34   199   200    1
    35   131   130    1
    36   133   134    1
    37   135   134    1
    38   184   185    1
    39   153   154    1
    40   128   126    1
    41   154   157    1
    42   130   129    1
    43   129   123   am
    44   142   144   ar
    45   142   143   ar
    46   200   201    1
    47   107   106   ar
    48   126   125    1
    49   126   127    1
    50   157   158    1
    51   125   122    1
    52   123   122    1
    53   123   124    2
    54   202   201    1
    55   202   203    1
    56   122   121    1
    57   108   106   ar
    58   147   148    2
    59   147   146    1
    60   106   105    1
    61   112   111    2
    62   158   160    1
    63   158   159    1
    64    77    78    1
    65   145   146    1
    66   121   111   am
    67   161   162    1
    68   146   149    1
    69   111   110    1
    70   118   116   ar
    71   118   119   ar
    72   105   104    1
    73    78    79    1
    74    78    81    1
    75   116   114   ar
    76    83    81    1
    77   149   150    1
    78   120   119    1
    79   104   101    1
    80   119   117   ar
    81    79    80    2
    82   162   165    1
    83   162   163    1
    84    81    82    1
    85   110   109    1
    86   110   113    1
    87   114   113    1
    88   114   115   ar
    89    37    36    1
    90   109   102   am
    91   164   163    2
    92   150   151    2
    93   150   152   am
    94   102   101    1
    95   102   103    2
    96   117   115   ar
    97   101   100    1
    98   163   166   am
    99    36    35    1
   100   100    94   am
   101   166   167    1
   102    35    34    1
   103   169   168    2
   104   170   167    1
   105   170   171    1
   106    94    95    2
   107    94    93    1
   108   167   168    1
   109    99    98    1
   110    34    33    1
   111    72    71    2
   112    96    93    1
   113    96    97    1
   114    17    15    1
   115    76    74    1
   116    38    39    1
   117    42    39    1
   118    93    92    1
   119     9     7   ar
   120   173   171   ar
   121   171   172   ar
   122    16    14    1
   123    14    15    1
   124    14    11    1
   125    13    12    2
   126    33    30    1
   127    71    70    1
   128    70    73    1
   129    70    69    1
   130    39    40    1
   131    97    98    1
   132     7     8   ar
   133     7     6    1
   134    74    73    1
   135    74    75    1
   136    30    31    1
   137    30    29    1
   138    12    11    1
   139    12    18   am
   140    11    10    1
   141    40    41    2
   142    40    43   am
   143    31    32    2
   144     6     5    1
   145    27    26    1
   146    18    19    1
   147    19    20    1
   148    43    44    1
   149    67    66   ar
   150     4     3    2
   151    26    28    1
   152    26    23    1
   153    63    62    2
   154     5     2    1
   155     1     2    1
   156    20    21    2
   157    66    65    1
   158    66    68   ar
   159    65    64    1
   160     3     2    1
   161    25    24    2
   162    44    45    1
   163    44    47    1
   164    24    23    1
   165    62    61    1
   166    48    50    1
   167    48    47    1
   168    23    22    1
   169    90    88    1
   170    61    64    1
   171    61    60    1
   172    87    86    2
   173    45    46    2
   174    45    51   am
   175    86    85    1
   176    47    49    1
   177    58    59    1
   178    58    57    1
   179    51    52    1
   180    55    52    1
   181    55    56    1
   182    88    85    1
   183    88    89    1
   184    52    53    1
   185    56    57    1
   186    85    84    1
   187    91    89    1
   188    53    54    2
