@<TRIPOS>MOLECULE
tmp/4qmoA00.pdb
 146 136 0 0 0
SMALL
GASTEIGER

@<TRIPOS>ATOM
      1  N        132.6010    2.1510   76.6890 N.3    22  ILE22      -0.1231
      2  CA       131.6960    2.3770   75.5740 C.3    22  ILE22       0.1692
      3  C        130.3200    2.8380   76.0300 C.2    22  ILE22       0.2593
      4  O        129.4670    3.1810   75.2030 O.2    22  ILE22      -0.2718
      5  CB       131.5410    1.1040   74.7070 C.3    22  ILE22       0.0266
      6  CG1      131.0260   -0.0670   75.5510 C.3    22  ILE22       0.0019
      7  CG2      132.8580    0.7520   74.0530 C.3    22  ILE22       0.0020
      8  CD1      130.8190   -1.3670   74.7430 C.3    22  ILE22       0.0001
      9  N        130.0870    2.8420   77.3390 N.am   23  GLY23      -0.1942
     10  CA       128.8010    3.2830   77.8530 C.3    23  GLY23       0.2014
     11  C        128.6040    3.0420   79.3350 C.2    23  GLY23       0.2639
     12  O        129.5680    2.8160   80.0680 O.2    23  GLY23      -0.2714
     13  N        127.3490    3.0980   79.7780 N.am   24  LYS24      -0.1963
     14  CA       127.0360    2.8580   81.1860 C.3    24  LYS24       0.1728
     15  C        125.6010    2.4200   81.3740 C.2    24  LYS24       0.2616
     16  O        124.7180    2.8130   80.6140 O.2    24  LYS24      -0.2715
     17  CB       127.3150    4.1080   82.0210 C.3    24  LYS24       0.0311
     18  CG       127.0470    5.4040   81.2940 C.3    24  LYS24       0.0038
     19  CD       127.0870    6.5950   82.2410 C.3    24  LYS24       0.0206
     20  CE       127.6440    7.8390   81.5320 C.3    24  LYS24       0.1093
     21  NZ       129.0740    7.6880   81.1080 N.3    24  LYS24      -0.1314
     22  N        125.3820    1.5820   82.3810 N.am   25  GLY25      -0.1955
     23  CA       124.0480    1.1200   82.7190 C.3    25  GLY25       0.1869
     24  C        123.5980    1.8420   83.9710 C.2    25  GLY25       0.2309
     25  O        124.1360    2.9070   84.2890 O.2    25  GLY25      -0.2863
     26  N        130.1440    0.4380   81.1730 N.3    30  VAL30      -0.1245
     27  CA       130.2440   -0.6620   80.2160 C.3    30  VAL30       0.1561
     28  C        131.4830   -0.5150   79.3550 C.2    30  VAL30       0.2260
     29  O        131.7470    0.5600   78.8070 O.2    30  VAL30      -0.2867
     30  CB       129.0140   -0.7380   79.2950 C.3    30  VAL30       0.0252
     31  CG1      129.1670   -1.8980   78.3290 C.3    30  VAL30       0.0019
     32  CG2      127.7420   -0.8900   80.1210 C.3    30  VAL30       0.0019
     33  N        130.6360   -6.9870   75.5270 N.3    43  ALA43      -0.1245
     34  CA       130.4580   -5.7940   76.3320 C.3    43  ALA43       0.1562
     35  C        130.4670   -6.2220   77.7940 C.2    43  ALA43       0.2260
     36  O        129.7780   -7.1680   78.1740 O.2    43  ALA43      -0.2867
     37  CB       129.1570   -5.0800   75.9680 C.3    43  ALA43       0.0290
     38  N        129.9160   -4.9810   81.6500 N.3    45  LYS45      -0.1245
     39  CA       129.5070   -3.9970   82.6470 C.3    45  LYS45       0.1561
     40  C        130.0670   -4.3780   84.0030 C.2    45  LYS45       0.2260
     41  O        129.8770   -5.5000   84.4680 O.2    45  LYS45      -0.2867
     42  CB       127.9900   -3.8870   82.7420 C.3    45  LYS45       0.0271
     43  CG       127.5610   -2.8130   83.7380 C.3    45  LYS45       0.0035
     44  CD       126.1440   -2.3170   83.5090 C.3    45  LYS45       0.0206
     45  CE       125.1130   -3.3930   83.7730 C.3    45  LYS45       0.1093
     46  NZ       123.7390   -2.8490   83.5680 N.3    45  LYS45      -0.1314
     47  N        119.8750   -7.6250   73.3280 N.3    75  THR75      -0.1218
     48  CA       121.2690   -7.9500   73.6810 C.3    75  THR75       0.1862
     49  C        121.3880   -9.2520   74.4490 C.2    75  THR75       0.2287
     50  O        120.7000   -9.4580   75.4420 O.2    75  THR75      -0.2866
     51  CB       121.9250   -6.8610   74.5440 C.3    75  THR75       0.1770
     52  OG1      121.1230   -6.6230   75.7080 O.3    75  THR75      -0.2211
     53  CG2      122.0830   -5.5720   73.7640 C.3    75  THR75       0.0375
     54  N        128.0610   -9.2710   78.2680 N.3    91  MET91      -0.1230
     55  CA       126.9070   -9.1210   77.3920 C.3    91  MET91       0.1702
     56  C        127.3420   -9.0020   75.9480 C.2    91  MET91       0.2592
     57  O        128.5220   -8.8530   75.6450 O.2    91  MET91      -0.2718
     58  CB       126.0850   -7.8970   77.8090 C.3    91  MET91       0.0401
     59  CG       125.3360   -8.0610   79.1440 C.3    91  MET91       0.0596
     60  SD       124.5570   -6.5130   79.6480 S.3    91  MET91      -0.1393
     61  CE       126.0080   -5.5190   79.9970 C.3    91  MET91       0.0692
     62  N        126.3690   -9.0900   75.0510 N.am   92  GLU92      -0.1966
     63  CA       126.6230   -8.9630   73.6310 C.3    92  GLU92       0.1733
     64  C        127.2170   -7.6080   73.2850 C.2    92  GLU92       0.2616
     65  O        126.7430   -6.5850   73.7750 O.2    92  GLU92      -0.2715
     66  CB       125.3190   -9.1610   72.8580 C.3    92  GLU92       0.0429
     67  CG       125.4750   -9.1320   71.3780 C.3    92  GLU92       0.1163
     68  CD       124.1780   -9.5050   70.6820 C.2    92  GLU92       0.3649
     69  OE1      124.1770   -9.5770   69.4390 O.co2  92  GLU92      -0.2457
     70  OE2      123.1640   -9.7480   71.3840 O.co2  92  GLU92      -0.2457
     71  N        128.2410   -7.6050   72.4350 N.am   93  TYR93      -0.1960
     72  CA       128.7940   -6.3640   71.9220 C.3    93  TYR93       0.1771
     73  C        128.2040   -6.0490   70.5630 C.2    93  TYR93       0.2619
     74  O        128.0950   -6.9270   69.7030 O.2    93  TYR93      -0.2715
     75  CB       130.3130   -6.4370   71.8290 C.3    93  TYR93       0.0574
     76  CG       130.9410   -5.2340   71.1790 C.ar   93  TYR93      -0.0198
     77  CD1      131.1240   -4.0580   71.8880 C.ar   93  TYR93      -0.0009
     78  CD2      131.3510   -5.2720   69.8550 C.ar   93  TYR93      -0.0009
     79  CE1      131.7150   -2.9500   71.2950 C.ar   93  TYR93       0.0417
     80  CE2      131.9400   -4.1780   69.2580 C.ar   93  TYR93       0.0417
     81  CZ       132.1210   -3.0200   69.9810 C.ar   93  TYR93       0.1957
     82  OH       132.7040   -1.9220   69.3870 O.3    93  TYR93      -0.2866
     83  N        127.7980   -4.7960   70.3900 N.am   94  LEU94      -0.1963
     84  CA       127.2610   -4.3180   69.1200 C.3    94  LEU94       0.1728
     85  C        128.1050   -3.1520   68.6440 C.2    94  LEU94       0.2616
     86  O        128.1500   -2.1050   69.2980 O.2    94  LEU94      -0.2715
     87  CB       125.8030   -3.9180   69.2840 C.3    94  LEU94       0.0311
     88  CG       124.9980   -5.1690   69.6650 C.3    94  LEU94       0.0022
     89  CD1      123.6230   -4.8500   70.2100 C.3    94  LEU94       0.0001
     90  CD2      124.9050   -6.0670   68.4540 C.3    94  LEU94       0.0001
     91  N        128.7980   -3.3380   67.5260 N.am   95  GLY95      -0.1955
     92  CA       129.8620   -2.4150   67.1630 C.3    95  GLY95       0.1869
     93  C        129.4490   -1.2150   66.3380 C.2    95  GLY95       0.2309
     94  O        130.2820   -0.3830   66.0010 O.2    95  GLY95      -0.2863
     95  N        127.3190    1.1460   67.2340 N.3    97  GLY97      -0.1210
     96  CA       126.9710    2.2910   68.0630 C.3    97  GLY97       0.1956
     97  C        125.4670    2.3790   68.2920 C.2    97  GLY97       0.2612
     98  O        124.7050    1.6400   67.6710 O.2    97  GLY97      -0.2717
     99  N        125.0310    3.2780   69.1720 N.am   98  SER98      -0.1952
    100  CA       123.5940    3.4470   69.4190 C.3    98  SER98       0.1924
    101  C        122.9860    4.3180   68.3370 C.2    98  SER98       0.2314
    102  O        123.7090    5.0500   67.6590 O.2    98  SER98      -0.2863
    103  CB       123.3370    4.0660   70.7950 C.3    98  SER98       0.2116
    104  OG       123.7510    5.4270   70.8140 O.3    98  SER98      -0.2180
    105  N        124.0760    7.8430   68.8420 N.3   101  ASP101     -0.1239
    106  CA       125.4110    8.0770   68.2850 C.3   101  ASP101      0.1674
    107  C        125.3260    8.3910   66.7960 C.2   101  ASP101      0.2266
    108  O        125.9470    9.3320   66.3040 O.2   101  ASP101     -0.2867
    109  CB       126.3260    6.8520   68.4850 C.3   101  ASP101      0.1410
    110  CG       126.6940    6.6120   69.9430 C.2   101  ASP101      0.3668
    111  OD1      126.8190    7.5960   70.7020 O.co2 101  ASP101     -0.2456
    112  OD2      126.8840    5.4300   70.3240 O.co2 101  ASP101     -0.2456
    113  N        119.4250    6.1020   72.8240 N.3   140  ALA140     -0.1231
    114  CA       120.7070    5.7140   73.4250 C.3   140  ALA140      0.1694
    115  C        120.7270    4.2280   73.7540 C.2   140  ALA140      0.2592
    116  O        121.7970    3.6110   73.8270 O.2   140  ALA140     -0.2718
    117  CB       120.9910    6.5300   74.6830 C.3   140  ALA140      0.0304
    118  N        119.5460    3.6540   73.9700 N.am  141  ASN141     -0.1974
    119  CA       119.4280    2.2320   74.3220 C.3   141  ASN141      0.1688
    120  C        119.0630    1.3280   73.1450 C.2   141  ASN141      0.2292
    121  O        118.7070    0.1510   73.3210 O.2   141  ASN141     -0.2864
    122  CB       118.3980    2.0500   75.4410 C.3   141  ASN141      0.1181
    123  CG       118.9020    2.5720   76.7770 C.2   141  ASN141      0.2629
    124  OD1      120.1040    2.7850   76.9500 O.2   141  ASN141     -0.2716
    125  ND2      117.9930    2.7640   77.7290 N.am  141  ASN141     -0.0877
    126  N        120.7860   -0.2390   69.9320 N.3   143  LEU143     -0.1245
    127  CA       122.1590   -0.4690   69.4540 C.3   143  LEU143      0.1561
    128  C        122.1800   -1.1700   68.1110 C.2   143  LEU143      0.2260
    129  O        121.3200   -1.9960   67.8290 O.2   143  LEU143     -0.2867
    130  CB       122.9730   -1.3060   70.4690 C.3   143  LEU143      0.0270
    131  CG       123.0920   -0.8060   71.9050 C.3   143  LEU143      0.0019
    132  CD1      123.9990   -1.7310   72.7300 C.3   143  LEU143      0.0001
    133  CD2      123.6210    0.6390   71.9390 C.3   143  LEU143      0.0001
    134  N        118.8440   -2.5580   74.2620 N.3   153  ALA153     -0.1231
    135  CA       119.8340   -2.7590   75.3150 C.3   153  ALA153      0.1694
    136  C        119.4320   -2.0440   76.6010 C.2   153  ALA153      0.2592
    137  O        118.4650   -1.2660   76.6320 O.2   153  ALA153     -0.2718
    138  CB       121.2010   -2.2670   74.8540 C.3   153  ALA153      0.0304
    139  N        120.2050   -2.3110   77.6480 N.am  154  ASP154     -0.1974
    140  CA       120.0640   -1.6870   78.9620 C.3   154  ASP154      0.1709
    141  C        118.7280   -2.0210   79.5820 C.2   154  ASP154      0.2293
    142  O        117.7480   -1.2740   79.4680 O.2   154  ASP154     -0.2864
    143  CB       120.2600   -0.1670   78.8910 C.3   154  ASP154      0.1436
    144  CG       120.5750    0.4460   80.2550 C.2   154  ASP154      0.3671
    145  OD1      120.2630   -0.1880   81.2840 O.co2 154  ASP154     -0.2456
    146  OD2      121.1290    1.5600   80.2980 O.co2 154  ASP154     -0.2456
@<TRIPOS>BOND
     1    94    93    2
     2   108   107    2
     3    93    92    1
     4   107   106    1
     5    92    91    1
     6    95    96    1
     7    91    85   am
     8   102   101    2
     9    98    97    2
    10   129   128    2
    11    96    97    1
    12   128   127    1
    13   106   109    1
    14   106   105    1
    15    97    99   am
    16   101   100    1
    17    90    88    1
    18   109   110    1
    19    85    84    1
    20    85    86    2
    21    84    87    1
    22    84    83    1
    23    99   100    1
    24    80    78   ar
    25    80    81   ar
    26    87    88    1
    27    82    81    1
    28   100   103    1
    29    69    68   ar
    30   127   126    1
    31   127   130    1
    32    88    89    1
    33    74    73    2
    34    78    76   ar
    35   110   112   ar
    36   110   111   ar
    37    81    79   ar
    38    83    73   am
    39   130   131    1
    40    73    72    1
    41    68    67    1
    42    68    70   ar
    43   103   104    1
    44    76    75    1
    45    76    77   ar
    46    79    77   ar
    47    67    66    1
    48    75    72    1
    49   131   133    1
    50   131   132    1
    51    72    71    1
    52    71    64   am
    53   113   114    1
    54    66    63    1
    55   120   121    2
    56   120   119    1
    57    64    63    1
    58    64    65    2
    59    47    48    1
    60   114   115    1
    61   114   117    1
    62    63    62    1
    63    48    49    1
    64    48    51    1
    65   115   116    2
    66   115   118   am
    67    53    51    1
    68   118   119    1
    69     7     5    1
    70   134   135    1
    71   119   122    1
    72    49    50    2
    73    51    52    1
    74     5     6    1
    75     5     2    1
    76     8     6    1
    77   138   135    1
    78    62    56   am
    79     4     3    2
    80   135   136    1
    81   122   123    1
    82    33    34    1
    83     2     3    1
    84     2     1    1
    85    57    56    2
    86    56    55    1
    87    37    34    1
    88     3     9   am
    89    34    35    1
    90   136   137    2
    91   136   139   am
    92   123   124    2
    93   123   125   am
    94     9    10    1
    95    55    58    1
    96    55    54    1
    97   139   140    1
    98    35    36    2
    99    58    59    1
   100    10    11    1
   101    31    30    1
   102    29    28    2
   103   143   140    1
   104   143   144    1
   105   140   141    1
   106    59    60    1
   107    30    32    1
   108    30    27    1
   109    11    13   am
   110    11    12    2
   111    28    27    1
   112   142   141    2
   113    60    61    1
   114    13    14    1
   115    27    26    1
   116   144   146   ar
   117   144   145   ar
   118    16    15    2
   119    21    20    1
   120    14    15    1
   121    14    17    1
   122    18    17    1
   123    18    19    1
   124    15    22   am
   125    20    19    1
   126    38    39    1
   127    22    23    1
   128    39    42    1
   129    39    40    1
   130    23    24    1
   131    42    43    1
   132    44    43    1
   133    44    45    1
   134    46    45    1
   135    24    25    2
   136    40    41    2
