@<TRIPOS>MOLECULE
tmp/4qmqA01.pdb
 87 81 0 0 0
SMALL
GASTEIGER

@<TRIPOS>ATOM
      1  N         26.9450  -20.0270  148.9030 N.3     6  GLN6       -0.1245
      2  CA        27.9270  -21.0460  148.5570 C.3     6  GLN6        0.1566
      3  C         28.6800  -21.5110  149.7930 C.2     6  GLN6        0.2260
      4  O         28.4920  -20.9600  150.8800 O.2     6  GLN6       -0.2867
      5  CB        28.8990  -20.5100  147.5060 C.3     6  GLN6        0.0367
      6  CG        28.2190  -20.1180  146.2020 C.3     6  GLN6        0.0905
      7  CD        27.4750  -21.2710  145.5730 C.2     6  GLN6        0.2608
      8  OE1       28.0850  -22.2270  145.0980 O.2     6  GLN6       -0.2717
      9  NE2       26.1470  -21.1890  145.5590 N.am    6  GLN6       -0.0878
     10  N         36.6840  -14.5580  141.7880 N.3    16  PHE16      -0.1241
     11  CA        36.2450  -13.4430  140.9510 C.3    16  PHE16       0.1605
     12  C         37.2450  -12.3070  140.9400 C.2    16  PHE16       0.2264
     13  O         37.8220  -11.9560  141.9650 O.2    16  PHE16      -0.2867
     14  CB        34.8820  -12.9190  141.4160 C.3    16  PHE16       0.0534
     15  CG        33.8090  -13.9530  141.3740 C.ar   16  PHE16      -0.0203
     16  CD1       33.0690  -14.1600  140.2170 C.ar   16  PHE16      -0.0042
     17  CD2       33.5670  -14.7550  142.4710 C.ar   16  PHE16      -0.0042
     18  CE1       32.0940  -15.1330  140.1700 C.ar   16  PHE16      -0.0003
     19  CE2       32.6030  -15.7290  142.4360 C.ar   16  PHE16      -0.0003
     20  CZ        31.8540  -15.9270  141.2820 C.ar   16  PHE16      -0.0000
     21  N         34.3310  -13.8640  136.3500 N.3    35  ASP35      -0.1239
     22  CA        34.3210  -15.2060  136.9230 C.3    35  ASP35       0.1674
     23  C         35.6410  -15.8470  136.5160 C.2    35  ASP35       0.2266
     24  O         35.8720  -16.0720  135.3330 O.2    35  ASP35      -0.2867
     25  CB        33.1140  -15.9890  136.3990 C.3    35  ASP35       0.1410
     26  CG        33.0430  -17.4050  136.9150 C.2    35  ASP35       0.3668
     27  OD1       34.1000  -18.0560  137.1350 O.co2  35  ASP35      -0.2456
     28  OD2       31.9030  -17.8800  137.0850 O.co2  35  ASP35      -0.2456
     29  N         35.3280  -19.2900  134.3920 N.3    38  THR38      -0.1218
     30  CA        34.7210  -19.3140  133.0490 C.3    38  THR38       0.1862
     31  C         35.1450  -18.1410  132.1630 C.2    38  THR38       0.2287
     32  O         34.9930  -18.2090  130.9410 O.2    38  THR38      -0.2866
     33  CB        33.1740  -19.3030  133.1200 C.3    38  THR38       0.1770
     34  OG1       32.7500  -18.0790  133.7260 O.3    38  THR38      -0.2211
     35  CG2       32.6430  -20.4770  133.9380 C.3    38  THR38       0.0375
     36  N         33.6350  -15.4550  132.1270 N.3    40  LYS40      -0.1245
     37  CA        32.4490  -14.6440  131.8550 C.3    40  LYS40       0.1561
     38  C         32.4450  -13.4200  132.7650 C.2    40  LYS40       0.2260
     39  O         32.9810  -13.4650  133.8740 O.2    40  LYS40      -0.2867
     40  CB        31.1810  -15.4580  132.0490 C.3    40  LYS40       0.0271
     41  CG        30.9800  -16.4900  130.9620 C.3    40  LYS40       0.0035
     42  CD        29.5990  -17.0750  131.0100 C.3    40  LYS40       0.0206
     43  CE        28.5550  -15.9860  130.9500 C.3    40  LYS40       0.1093
     44  NZ        27.2080  -16.5760  130.7420 N.3    40  LYS40      -0.1314
     45  N         30.5000  -10.8450  135.1860 N.3    42  VAL42      -0.1245
     46  CA        29.3560  -10.9020  136.0780 C.3    42  VAL42       0.1561
     47  C         29.1700   -9.5430  136.7410 C.2    42  VAL42       0.2260
     48  O         30.0430   -8.6790  136.6670 O.2    42  VAL42      -0.2867
     49  CB        29.5220  -11.9960  137.1590 C.3    42  VAL42       0.0252
     50  CG1       29.5120  -13.3710  136.5080 C.3    42  VAL42       0.0019
     51  CG2       30.8180  -11.7820  137.9350 C.3    42  VAL42       0.0019
     52  N         23.2230  -15.9640  140.5230 N.3    78  TYR78      -0.1227
     53  CA        24.0410  -17.1670  140.3970 C.3    78  TYR78       0.1736
     54  C         24.3480  -17.7650  141.7680 C.2    78  TYR78       0.2596
     55  O         24.2290  -18.9780  141.9630 O.2    78  TYR78      -0.2718
     56  CB        25.3220  -16.8400  139.6300 C.3    78  TYR78       0.0548
     57  CG        25.0630  -16.3670  138.1980 C.ar   78  TYR78      -0.0200
     58  CD1       24.3070  -17.1320  137.3280 C.ar   78  TYR78      -0.0009
     59  CD2       25.5860  -15.1630  137.7280 C.ar   78  TYR78      -0.0009
     60  CE1       24.0690  -16.7150  136.0170 C.ar   78  TYR78       0.0417
     61  CE2       25.3580  -14.7370  136.4150 C.ar   78  TYR78       0.0417
     62  CZ        24.5980  -15.5230  135.5720 C.ar   78  TYR78       0.1957
     63  OH        24.3470  -15.1260  134.2740 O.3    78  TYR78      -0.2866
     64  N         24.7210  -16.9160  142.7160 N.am   79  GLY79      -0.1957
     65  CA        25.0020  -17.3740  144.0700 C.3    79  GLY79       0.1869
     66  C         25.6340  -16.2920  144.9210 C.2    79  GLY79       0.2309
     67  O         25.9380  -15.2100  144.4270 O.2    79  GLY79      -0.2863
     68  N         28.6310  -15.4360  148.1950 N.3    81  TYR81      -0.1241
     69  CA        29.8680  -15.8660  148.8450 C.3    81  TYR81       0.1605
     70  C         30.1620  -14.9480  150.0130 C.2    81  TYR81       0.2264
     71  O         29.6890  -13.8180  150.0340 O.2    81  TYR81      -0.2867
     72  CB        31.0480  -15.8180  147.8730 C.3    81  TYR81       0.0534
     73  CG        30.9300  -16.7180  146.6700 C.ar   81  TYR81      -0.0201
     74  CD1       30.1470  -16.3550  145.5720 C.ar   81  TYR81      -0.0009
     75  CD2       31.6180  -17.9240  146.6160 C.ar   81  TYR81      -0.0009
     76  CE1       30.0450  -17.1770  144.4690 C.ar   81  TYR81       0.0417
     77  CE2       31.5260  -18.7520  145.5150 C.ar   81  TYR81       0.0417
     78  CZ        30.7420  -18.3740  144.4440 C.ar   81  TYR81       0.1957
     79  OH        30.6440  -19.1920  143.3490 O.3    81  TYR81      -0.2866
     80  N         26.5070  -12.6080  143.3920 N.3    90  ILE90      -0.1245
     81  CA        26.9360  -12.7300  142.0140 C.3    90  ILE90       0.1561
     82  C         25.7280  -12.8230  141.0880 C.2    90  ILE90       0.2260
     83  O         24.8820  -13.6990  141.2490 O.2    90  ILE90      -0.2867
     84  CB        27.8340  -13.9640  141.8000 C.3    90  ILE90       0.0252
     85  CG1       28.9350  -14.0340  142.8710 C.3    90  ILE90       0.0019
     86  CG2       28.4590  -13.9140  140.4190 C.3    90  ILE90       0.0019
     87  CD1       29.8730  -12.8180  142.9110 C.3    90  ILE90       0.0001
@<TRIPOS>BOND
     1    44    43    1
     2    32    31    2
     3    43    42    1
     4    41    42    1
     5    41    40    1
     6    37    40    1
     7    37    36    1
     8    37    38    1
     9    31    30    1
    10    38    39    2
    11    30    33    1
    12    30    29    1
    13    33    34    1
    14    33    35    1
    15    63    62    1
    16    45    46    1
    17    24    23    2
    18    62    60   ar
    19    62    61   ar
    20    60    58   ar
    21    46    47    1
    22    46    49    1
    23    21    22    1
    24    25    26    1
    25    25    22    1
    26    61    59   ar
    27    50    49    1
    28    23    22    1
    29    48    47    2
    30    26    28   ar
    31    26    27   ar
    32    49    51    1
    33    58    57   ar
    34    59    57   ar
    35    57    56    1
    36    56    53    1
    37    18    16   ar
    38    18    20   ar
    39    16    15   ar
    40    53    52    1
    41    53    54    1
    42    86    84    1
    43    12    11    1
    44    12    13    2
    45    11    14    1
    46    11    10    1
    47    82    83    2
    48    82    81    1
    49    20    19   ar
    50    15    14    1
    51    15    17   ar
    52    54    55    2
    53    54    64   am
    54    84    81    1
    55    84    85    1
    56    81    80    1
    57    19    17   ar
    58    64    65    1
    59    85    87    1
    60    79    78    1
    61    65    66    1
    62    67    66    2
    63    78    76   ar
    64    78    77   ar
    65    76    74   ar
    66     8     7    2
    67    77    75   ar
    68     9     7   am
    69    74    73   ar
    70     7     6    1
    71     6     5    1
    72    75    73   ar
    73    73    72    1
    74     5     2    1
    75    72    69    1
    76    68    69    1
    77     2     1    1
    78     2     3    1
    79    69    70    1
    80     3     4    2
    81    70    71    2
