@<TRIPOS>MOLECULE
tmp/4qmqA00.pdb
 186 175 0 0 0
SMALL
GASTEIGER

@<TRIPOS>ATOM
      1  N         29.8190   -0.1560  138.7840 N.3    22  ILE22      -0.1231
      2  CA        28.9360    0.0840  137.6500 C.3    22  ILE22       0.1696
      3  C         27.5690    0.5920  138.0830 C.2    22  ILE22       0.2632
      4  O         26.7710    1.0360  137.2510 O.2    22  ILE22      -0.2714
      5  CB        28.7450   -1.1880  136.7850 C.3    22  ILE22       0.0266
      6  CG1       28.2810   -2.3640  137.6470 C.3    22  ILE22       0.0019
      7  CG2       30.0350   -1.5150  136.0330 C.3    22  ILE22       0.0020
      8  CD1       27.9960   -3.6430  136.8340 C.3    22  ILE22       0.0001
      9  N         27.2940    0.5440  139.3790 N.am   23  GLY23      -0.1718
     10  CA        26.0340    1.0670  139.8700 C.2    23  GLY23       0.1480
     11  C         25.8580    1.0810  141.3730 C.2    23  GLY23       0.2820
     12  O         26.6400    0.5050  142.1250 O.2    23  GLY23      -0.2669
     13  N         24.8010    1.7590  141.8000 N.am   24  LYS24      -0.1929
     14  CA        24.3900    1.7840  143.1900 C.3    24  LYS24       0.1731
     15  C         22.8770    1.6190  143.2390 C.2    24  LYS24       0.2616
     16  O         22.1440    2.4930  142.7810 O.2    24  LYS24      -0.2715
     17  CB        24.8280    3.0950  143.8530 C.3    24  LYS24       0.0312
     18  CG        24.0480    3.4720  145.1050 C.3    24  LYS24       0.0038
     19  CD        24.1390    2.3980  146.1830 C.3    24  LYS24       0.0206
     20  CE        23.2780    2.7580  147.3910 C.3    24  LYS24       0.1093
     21  NZ        22.7740    1.5410  148.1000 N.3    24  LYS24      -0.1314
     22  N         22.4140    0.4990  143.7800 N.am   25  GLY25      -0.1955
     23  CA        20.9920    0.2080  143.8000 C.3    25  GLY25       0.1869
     24  C         20.3040    0.6320  145.0820 C.2    25  GLY25       0.2309
     25  O         20.8500    1.4210  145.8610 O.2    25  GLY25      -0.2863
     26  N         27.2220   -2.0400  143.1590 N.3    30  VAL30      -0.1245
     27  CA        27.4200   -3.1070  142.1770 C.3    30  VAL30       0.1561
     28  C         28.6770   -2.8790  141.3480 C.2    30  VAL30       0.2260
     29  O         28.9220   -1.7610  140.8680 O.2    30  VAL30      -0.2867
     30  CB        26.2090   -3.2070  141.2200 C.3    30  VAL30       0.0252
     31  CG1       26.3460   -4.4440  140.3280 C.3    30  VAL30       0.0019
     32  CG2       24.9170   -3.2670  142.0250 C.3    30  VAL30       0.0019
     33  N         28.0080   -9.3470  137.3500 N.3    43  ALA43      -0.1245
     34  CA        27.7870   -8.1910  138.2030 C.3    43  ALA43       0.1562
     35  C         27.8640   -8.6350  139.6490 C.2    43  ALA43       0.2260
     36  O         27.2180   -9.6010  140.0380 O.2    43  ALA43      -0.2867
     37  CB        26.4290   -7.5520  137.9010 C.3    43  ALA43       0.0290
     38  N         27.3950   -7.5650  143.5810 N.3    45  LYS45      -0.1245
     39  CA        26.9980   -6.6280  144.6190 C.3    45  LYS45       0.1561
     40  C         27.6990   -7.0330  145.9000 C.2    45  LYS45       0.2260
     41  O         27.6520   -8.1970  146.3080 O.2    45  LYS45      -0.2867
     42  CB        25.4810   -6.5930  144.8000 C.3    45  LYS45       0.0271
     43  CG        25.0400   -5.4650  145.7120 C.3    45  LYS45       0.0035
     44  CD        23.6190   -5.0250  145.4160 C.3    45  LYS45       0.0206
     45  CE        22.6370   -6.0460  145.9110 C.3    45  LYS45       0.1093
     46  NZ        21.3180   -5.4310  146.1860 N.3    45  LYS45      -0.1314
     47  N         15.7430   -9.4090  148.4780 N.3    62  GLU62      -0.1245
     48  CA        16.1010   -9.1620  147.0870 C.3    62  GLU62       0.1567
     49  C         16.6690  -10.4230  146.4440 C.2    62  GLU62       0.2260
     50  O         16.2820  -10.8050  145.3480 O.2    62  GLU62      -0.2867
     51  CB        17.1150   -8.0180  146.9780 C.3    62  GLU62       0.0388
     52  CG        17.4900   -7.6800  145.5340 C.3    62  GLU62       0.1160
     53  CD        18.5320   -6.5890  145.4400 C.2    62  GLU62       0.3649
     54  OE1       18.5510   -5.7080  146.3260 O.co2  62  GLU62      -0.2457
     55  OE2       19.3390   -6.6170  144.4830 O.co2  62  GLU62      -0.2457
     56  N         15.0150  -12.6540  143.3020 N.3    66  LEU66      -0.1245
     57  CA        15.7840  -12.9920  142.0960 C.3    66  LEU66       0.1561
     58  C         15.8790  -14.5020  141.8890 C.2    66  LEU66       0.2260
     59  O         15.6670  -15.0050  140.7860 O.2    66  LEU66      -0.2867
     60  CB        17.1960  -12.4080  142.1660 C.3    66  LEU66       0.0270
     61  CG        17.3650  -10.9010  141.9970 C.3    66  LEU66       0.0019
     62  CD1       18.8220  -10.5290  142.2080 C.3    66  LEU66       0.0001
     63  CD2       16.9020  -10.4800  140.6120 C.3    66  LEU66       0.0001
     64  N         17.2790  -10.1130  135.3480 N.3    75  THR75      -0.1218
     65  CA        18.6850  -10.4330  135.6640 C.3    75  THR75       0.1862
     66  C         18.8070  -11.7180  136.4620 C.2    75  THR75       0.2287
     67  O         18.1450  -11.8780  137.4840 O.2    75  THR75      -0.2866
     68  CB        19.3630   -9.3360  136.4800 C.3    75  THR75       0.1770
     69  OG1       18.6070   -9.0890  137.6740 O.3    75  THR75      -0.2211
     70  CG2       19.5110   -8.0430  135.6800 C.3    75  THR75       0.0375
     71  N         25.6550  -11.9060  140.1290 N.3    91  MET91      -0.1230
     72  CA        24.4830  -11.8080  139.2710 C.3    91  MET91       0.1702
     73  C         24.8790  -11.6020  137.8160 C.2    91  MET91       0.2592
     74  O         26.0550  -11.3980  137.4930 O.2    91  MET91      -0.2718
     75  CB        23.5810  -10.6600  139.7500 C.3    91  MET91       0.0401
     76  CG        23.0280  -10.8830  141.1580 C.3    91  MET91       0.0596
     77  SD        22.2780   -9.4170  141.9180 S.3    91  MET91      -0.1393
     78  CE        23.7130   -8.3950  142.1900 C.3    91  MET91       0.0692
     79  N         23.8810  -11.6610  136.9420 N.am   92  GLU92      -0.1966
     80  CA        24.0780  -11.4800  135.5120 C.3    92  GLU92       0.1733
     81  C         24.6170  -10.0950  135.1690 C.2    92  GLU92       0.2616
     82  O         24.1570   -9.0910  135.7040 O.2    92  GLU92      -0.2715
     83  CB        22.7520  -11.7130  134.7770 C.3    92  GLU92       0.0429
     84  CG        22.8720  -11.6790  133.2670 C.3    92  GLU92       0.1163
     85  CD        21.5620  -12.0030  132.5780 C.2    92  GLU92       0.3649
     86  OE1       21.5630  -12.0750  131.3290 O.co2  92  GLU92      -0.2457
     87  OE2       20.5420  -12.1950  133.2850 O.co2  92  GLU92      -0.2457
     88  N         25.5820  -10.0430  134.2610 N.am   93  TYR93      -0.1960
     89  CA        26.0930   -8.7750  133.7580 C.3    93  TYR93       0.1771
     90  C         25.5590   -8.5050  132.3680 C.2    93  TYR93       0.2619
     91  O         25.5320   -9.3960  131.5190 O.2    93  TYR93      -0.2715
     92  CB        27.6160   -8.7760  133.7230 C.3    93  TYR93       0.0574
     93  CG        28.2220   -7.5540  133.0730 C.ar   93  TYR93      -0.0198
     94  CD1       28.3890   -6.3870  133.7920 C.ar   93  TYR93      -0.0009
     95  CD2       28.6480   -7.5820  131.7480 C.ar   93  TYR93      -0.0009
     96  CE1       28.9700   -5.2660  133.2230 C.ar   93  TYR93       0.0417
     97  CE2       29.2370   -6.4690  131.1660 C.ar   93  TYR93       0.0417
     98  CZ        29.3870   -5.3120  131.9090 C.ar   93  TYR93       0.1957
     99  OH        29.9590   -4.1850  131.3580 O.3    93  TYR93      -0.2866
    100  N         25.1400   -7.2680  132.1450 N.am   94  LEU94      -0.1963
    101  CA        24.6350   -6.8340  130.8430 C.3    94  LEU94       0.1728
    102  C         25.4290   -5.6290  130.3830 C.2    94  LEU94       0.2616
    103  O         25.3580   -4.5740  131.0050 O.2    94  LEU94      -0.2715
    104  CB        23.1500   -6.5040  130.9410 C.3    94  LEU94       0.0311
    105  CG        22.3810   -7.7560  131.3660 C.3    94  LEU94       0.0022
    106  CD1       21.0270   -7.4180  131.9600 C.3    94  LEU94       0.0001
    107  CD2       22.2430   -8.6860  130.1660 C.3    94  LEU94       0.0001
    108  N         26.1820   -5.7830  129.2940 N.am   95  GLY95      -0.1955
    109  CA        27.2190   -4.8220  128.9670 C.3    95  GLY95       0.1869
    110  C         26.8240   -3.6350  128.1130 C.2    95  GLY95       0.2309
    111  O         27.6680   -2.8150  127.7780 O.2    95  GLY95      -0.2863
    112  N         24.6340   -1.2230  128.9270 N.3    97  GLY97      -0.1210
    113  CA        24.3020   -0.0470  129.7190 C.3    97  GLY97       0.1956
    114  C         22.8170    0.0110  130.0400 C.2    97  GLY97       0.2612
    115  O         22.0270   -0.7010  129.4160 O.2    97  GLY97      -0.2717
    116  N         22.4310    0.8410  131.0070 N.am   98  SER98      -0.1952
    117  CA        21.0080    1.0330  131.3040 C.3    98  SER98       0.1924
    118  C         20.3760    1.9070  130.2280 C.2    98  SER98       0.2314
    119  O         21.0750    2.6180  129.5010 O.2    98  SER98      -0.2863
    120  CB        20.8010    1.6630  132.6840 C.3    98  SER98       0.2116
    121  OG        21.1230    3.0500  132.6800 O.3    98  SER98      -0.2180
    122  N         21.5270    5.4480  130.7240 N.3   101  ASP101     -0.1239
    123  CA        22.8540    5.6470  130.1330 C.3   101  ASP101      0.1674
    124  C         22.7610    5.9470  128.6420 C.2   101  ASP101      0.2266
    125  O         23.3960    6.8760  128.1350 O.2   101  ASP101     -0.2867
    126  CB        23.7440    4.4040  130.3040 C.3   101  ASP101      0.1410
    127  CG        24.1290    4.1220  131.7430 C.2   101  ASP101      0.3668
    128  OD1       24.2700    5.0570  132.5560 O.co2 101  ASP101     -0.2456
    129  OD2       24.3160    2.9270  132.0490 O.co2 101  ASP101     -0.2456
    130  N         16.7680    3.7800  134.6440 N.3   140  ALA140     -0.1231
    131  CA        18.0420    3.3790  135.2460 C.3   140  ALA140      0.1694
    132  C         18.0680    1.9020  135.6150 C.2   140  ALA140      0.2592
    133  O         19.1540    1.3150  135.7430 O.2   140  ALA140     -0.2718
    134  CB        18.3450    4.2280  136.4840 C.3   140  ALA140      0.0304
    135  N         16.8910    1.3020  135.8060 N.am  141  ASN141     -0.1974
    136  CA        16.8130   -0.1160  136.1700 C.3   141  ASN141      0.1688
    137  C         16.4740   -1.0290  134.9960 C.2   141  ASN141      0.2292
    138  O         16.1500   -2.2000  135.1920 O.2   141  ASN141     -0.2864
    139  CB        15.7890   -0.3320  137.2870 C.3   141  ASN141      0.1181
    140  CG        16.2930    0.1290  138.6380 C.2   141  ASN141      0.2629
    141  OD1       17.4980    0.2980  138.8370 O.2   141  ASN141     -0.2716
    142  ND2       15.3730    0.3340  139.5730 N.am  141  ASN141     -0.0877
    143  N         18.2420   -2.6210  131.8500 N.3   143  LEU143     -0.1245
    144  CA        19.5820   -2.8860  131.3240 C.3   143  LEU143      0.1561
    145  C         19.5640   -3.5610  129.9660 C.2   143  LEU143      0.2260
    146  O         18.7190   -4.4070  129.7030 O.2   143  LEU143     -0.2867
    147  CB        20.3570   -3.7820  132.3000 C.3   143  LEU143      0.0270
    148  CG        20.5820   -3.2260  133.7030 C.3   143  LEU143      0.0019
    149  CD1       21.2690   -4.2770  134.5950 C.3   143  LEU143      0.0001
    150  CD2       21.4060   -1.9380  133.6480 C.3   143  LEU143      0.0001
    151  N         16.1530   -4.9210  136.2160 N.3   153  ALA153     -0.1231
    152  CA        17.1510   -5.0400  137.2880 C.3   153  ALA153      0.1694
    153  C         16.7310   -4.3380  138.5730 C.2   153  ALA153      0.2592
    154  O         15.7670   -3.5740  138.5990 O.2   153  ALA153     -0.2718
    155  CB        18.4940   -4.4870  136.8250 C.3   153  ALA153      0.0304
    156  N         17.5090   -4.5880  139.6280 N.am  154  ASP154     -0.1960
    157  CA        17.3000   -4.0680  140.9880 C.3   154  ASP154      0.1840
    158  C         15.9410   -4.3970  141.5660 C.2   154  ASP154      0.2622
    159  O         15.0040   -3.5860  141.5350 O.2   154  ASP154     -0.2715
    160  CB        17.5270   -2.5500  141.0650 C.3   154  ASP154      0.1450
    161  CG        17.7870   -2.0860  142.4910 C.2   154  ASP154      0.3671
    162  OD1       17.4790   -2.8590  143.4180 O.co2 154  ASP154     -0.2456
    163  OD2       18.3050   -0.9760  142.6910 O.co2 154  ASP154     -0.2456
    164  N         15.8700   -5.5770  142.1650 N.am  155  PHE155     -0.1974
    165  CA        14.6490   -6.0600  142.7760 C.3   155  PHE155      0.1639
    166  C         14.6540   -5.7650  144.2650 C.2   155  PHE155      0.2290
    167  O         13.9590   -6.4070  145.0420 O.2   155  PHE155     -0.2864
    168  CB        14.4900   -7.5480  142.4780 C.3   155  PHE155      0.0560
    169  CG        14.0070   -7.8030  141.0800 C.ar  155  PHE155     -0.0200
    170  CD1       14.8620   -7.6360  139.9960 C.ar  155  PHE155     -0.0042
    171  CD2       12.6810   -8.1210  140.8450 C.ar  155  PHE155     -0.0042
    172  CE1       14.3940   -7.8180  138.6880 C.ar  155  PHE155     -0.0003
    173  CE2       12.2130   -8.3140  139.5520 C.ar  155  PHE155     -0.0003
    174  CZ        13.0760   -8.1590  138.4760 C.ar  155  PHE155     -0.0000
    175  N         26.4030    5.0230  122.0810 N.3   282  TYR282     -0.1241
    176  CA        26.8950    5.3560  123.4170 C.3   282  TYR282      0.1605
    177  C         28.3980    5.1100  123.5550 C.2   282  TYR282      0.2264
    178  O         29.0940    5.8860  124.2040 O.2   282  TYR282     -0.2867
    179  CB        26.1310    4.5550  124.4820 C.3   282  TYR282      0.0534
    180  CG        26.6090    4.7660  125.9070 C.ar  282  TYR282     -0.0201
    181  CD1       26.2150    5.8790  126.6350 C.ar  282  TYR282     -0.0009
    182  CD2       27.4390    3.8410  126.5270 C.ar  282  TYR282     -0.0009
    183  CE1       26.6400    6.0750  127.9370 C.ar  282  TYR282      0.0417
    184  CE2       27.8700    4.0280  127.8350 C.ar  282  TYR282      0.0417
    185  CZ        27.4690    5.1470  128.5330 C.ar  282  TYR282      0.1957
    186  OH        27.8950    5.3400  129.8300 O.3   282  TYR282     -0.2866
@<TRIPOS>BOND
     1   175   176    1
     2   176   177    1
     3   176   179    1
     4   177   178    2
     5   179   180    1
     6   180   182   ar
     7   180   181   ar
     8   182   184   ar
     9   181   183   ar
    10   111   110    2
    11   184   185   ar
    12   183   185   ar
    13   110   109    1
    14   125   124    2
    15   185   186    1
    16   124   123    1
    17   112   113    1
    18   109   108    1
    19   108   102   am
    20   115   114    2
    21   119   118    2
    22   146   145    2
    23   113   114    1
    24   145   144    1
    25   114   116   am
    26   123   126    1
    27   123   122    1
    28   107   105    1
    29   118   117    1
    30   126   127    1
    31   102   101    1
    32   102   103    2
    33   101   104    1
    34   101   100    1
    35   104   105    1
    36   116   117    1
    37    97    95   ar
    38    97    98   ar
    39   117   120    1
    40   144   143    1
    41   144   147    1
    42    86    85   ar
    43    99    98    1
    44   105   106    1
    45    91    90    2
    46   127   129   ar
    47   127   128   ar
    48    95    93   ar
    49    98    96   ar
    50   100    90   am
    51   147   148    1
    52    90    89    1
    53    85    84    1
    54    85    87   ar
    55   121   120    1
    56    93    92    1
    57    93    94   ar
    58    96    94   ar
    59    84    83    1
    60   150   148    1
    61   148   149    1
    62    92    89    1
    63    89    88    1
    64    88    81   am
    65   130   131    1
    66    83    80    1
    67   137   138    2
    68   137   136    1
    69    81    80    1
    70    81    82    2
    71   131   132    1
    72   131   134    1
    73    64    65    1
    74    80    79    1
    75   132   133    2
    76   132   135   am
    77    65    66    1
    78    65    68    1
    79    70    68    1
    80   135   136    1
    81     7     5    1
    82   136   139    1
    83   151   152    1
    84    66    67    2
    85    68    69    1
    86     5     6    1
    87     5     2    1
    88   155   152    1
    89     8     6    1
    90    79    73   am
    91     4     3    2
    92   139   140    1
    93   152   153    1
    94    33    34    1
    95    74    73    2
    96     2     3    1
    97     2     1    1
    98    73    72    1
    99    37    34    1
   100     3     9    1
   101    34    35    1
   102   174   172   ar
   103   174   173   ar
   104   153   154    2
   105   153   156   am
   106   140   141    2
   107   140   142   am
   108   172   170   ar
   109    72    75    1
   110    72    71    1
   111     9    10    2
   112   173   171   ar
   113   156   157    1
   114    35    36    2
   115    75    76    1
   116    10    11    1
   117   170   169   ar
   118    31    30    1
   119    63    61    1
   120    59    58    2
   121   171   169   ar
   122    29    28    2
   123   157   160    1
   124   157   158    1
   125   160   161    1
   126   169   168    1
   127    76    77    1
   128    30    32    1
   129    30    27    1
   130    28    27    1
   131    11    13   am
   132    11    12    2
   133   159   158    2
   134   158   164   am
   135    13    14    1
   136    58    57    1
   137    77    78    1
   138    61    60    1
   139    61    62    1
   140    57    60    1
   141    57    56    1
   142   164   165    1
   143    27    26    1
   144   168   165    1
   145   161   163   ar
   146   161   162   ar
   147   165   166    1
   148    16    15    2
   149    14    15    1
   150    14    17    1
   151    15    22   am
   152    38    39    1
   153    22    23    1
   154    23    24    1
   155    17    18    1
   156   166   167    2
   157    55    53   ar
   158    39    42    1
   159    39    40    1
   160    42    43    1
   161    24    25    2
   162    18    19    1
   163    50    49    2
   164    44    43    1
   165    44    45    1
   166    53    52    1
   167    53    54   ar
   168    52    51    1
   169    40    41    2
   170    45    46    1
   171    19    20    1
   172    49    48    1
   173    51    48    1
   174    48    47    1
   175    20    21    1
