@<TRIPOS>MOLECULE
tmp/4qmsA00.pdb
 209 198 0 0 0
SMALL
GASTEIGER

@<TRIPOS>ATOM
      1  N         38.7670   -1.5230   21.1040 N.3    16  ILE16      -0.1231
      2  CA        39.0060   -2.0680   19.7680 C.3    16  ILE16       0.1696
      3  C         40.2390   -2.9680   19.6890 C.2    16  ILE16       0.2632
      4  O         40.4700   -3.6190   18.6690 O.2    16  ILE16      -0.2714
      5  CB        39.1500   -0.9510   18.7090 C.3    16  ILE16       0.0266
      6  CG1       40.2240    0.0710   19.1140 C.3    16  ILE16       0.0019
      7  CG2       37.8110   -0.2670   18.4790 C.3    16  ILE16       0.0020
      8  CD1       40.4100    1.2020   18.0840 C.3    16  ILE16       0.0001
      9  N         41.0300   -3.0130   20.7550 N.am   17  GLY17      -0.1718
     10  CA        42.2180   -3.8420   20.7350 C.2    17  GLY17       0.1480
     11  C         43.0330   -3.9040   22.0090 C.2    17  GLY17       0.2820
     12  O         42.7390   -3.2160   22.9930 O.2    17  GLY17      -0.2669
     13  N         44.0390   -4.7800   21.9690 N.am   18  LYS18      -0.1943
     14  CA        45.1220   -4.8880   22.9520 C.3    18  LYS18       0.1599
     15  C         44.6880   -5.2240   24.3890 C.2    18  LYS18       0.2287
     16  O         43.6120   -4.8300   24.8440 O.2    18  LYS18      -0.2864
     17  CB        45.9590   -3.6000   22.9200 C.3    18  LYS18       0.0298
     18  CG        46.7810   -3.4660   21.6270 C.3    18  LYS18       0.0038
     19  CD        47.7090   -2.2580   21.6680 C.3    18  LYS18       0.0206
     20  CE        48.7060   -2.2330   20.4930 C.3    18  LYS18       0.1093
     21  NZ        48.1520   -1.8260   19.1780 N.3    18  LYS18      -0.1314
     22  N         43.2250   -0.4370   24.0360 N.3    24  VAL24      -0.1245
     23  CA        43.0040    0.6170   23.0370 C.3    24  VAL24       0.1561
     24  C         41.5240    0.7500   22.7090 C.2    24  VAL24       0.2260
     25  O         40.8480   -0.2430   22.4520 O.2    24  VAL24      -0.2867
     26  CB        43.7900    0.3500   21.7330 C.3    24  VAL24       0.0252
     27  CG1       43.4580    1.4020   20.6600 C.3    24  VAL24       0.0019
     28  CG2       45.2740    0.3400   22.0140 C.3    24  VAL24       0.0019
     29  N         42.0330    7.0730   18.2080 N.3    37  ALA37      -0.1231
     30  CA        42.3880    5.8370   18.8930 C.3    37  ALA37       0.1694
     31  C         43.0710    6.2030   20.2060 C.2    37  ALA37       0.2592
     32  O         44.0000    7.0060   20.2120 O.2    37  ALA37      -0.2718
     33  CB        43.3260    4.9720   18.0230 C.3    37  ALA37       0.0304
     34  N         42.6070    5.6150   21.3050 N.am   38  ILE38      -0.1966
     35  CA        43.0810    5.9650   22.6470 C.3    38  ILE38       0.1727
     36  C         43.6840    4.7510   23.3400 C.2    38  ILE38       0.2616
     37  O         42.9780    3.7840   23.5970 O.2    38  ILE38      -0.2715
     38  CB        41.9240    6.5030   23.5350 C.3    38  ILE38       0.0290
     39  CG1       41.2190    7.6900   22.8570 C.3    38  ILE38       0.0022
     40  CG2       42.4490    6.8740   24.9290 C.3    38  ILE38       0.0023
     41  CD1       39.9580    8.1790   23.5730 C.3    38  ILE38       0.0001
     42  N         44.9800    4.7960   23.6380 N.am   39  LYS39      -0.1977
     43  CA        45.6010    3.7270   24.4150 C.3    39  LYS39       0.1596
     44  C         45.6470    4.1750   25.8670 C.2    39  LYS39       0.2287
     45  O         46.2040    5.2340   26.1810 O.2    39  LYS39      -0.2864
     46  CB        47.0080    3.4010   23.9070 C.3    39  LYS39       0.0298
     47  CG        47.7010    2.2970   24.7050 C.3    39  LYS39       0.0038
     48  CD        49.0800    1.9760   24.1270 C.3    39  LYS39       0.0206
     49  CE        49.0020    0.8370   23.1340 C.3    39  LYS39       0.1093
     50  NZ        50.3450    0.5060   22.5610 N.3    39  LYS39      -0.1314
     51  N         58.4920    6.4050   24.1540 N.3    56  GLU56      -0.1245
     52  CA        57.4740    6.3270   23.1050 C.3    56  GLU56       0.1567
     53  C         56.7760    7.6730   22.9180 C.2    56  GLU56       0.2260
     54  O         56.6720    8.1720   21.8000 O.2    56  GLU56      -0.2867
     55  CB        56.4490    5.2430   23.4310 C.3    56  GLU56       0.0388
     56  CG        55.3880    5.0600   22.3560 C.3    56  GLU56       0.1160
     57  CD        54.4410    3.9240   22.6730 C.2    56  GLU56       0.3649
     58  OE1       54.5530    3.3520   23.7800 O.co2  56  GLU56      -0.2457
     59  OE2       53.5950    3.5980   21.8190 O.co2  56  GLU56      -0.2457
     60  N         56.8040   10.1850   19.6430 N.3    60  LEU60      -0.1245
     61  CA        55.5190   10.5620   19.0490 C.3    60  LEU60       0.1561
     62  C         55.3550   12.0690   18.9820 C.2    60  LEU60       0.2260
     63  O         54.8790   12.6110   17.9810 O.2    60  LEU60      -0.2867
     64  CB        54.3560    9.9540   19.8440 C.3    60  LEU60       0.0270
     65  CG        54.1660    8.4390   19.7560 C.3    60  LEU60       0.0019
     66  CD1       53.0590    7.9830   20.6710 C.3    60  LEU60       0.0001
     67  CD2       53.8680    8.0280   18.3180 C.3    60  LEU60       0.0001
     68  N         51.3400    7.7290   11.9780 N.3    69  THR69      -0.1218
     69  CA        50.0740    7.9910   12.6720 C.3    69  THR69       0.1862
     70  C         50.1370    9.3000   13.4620 C.2    69  THR69       0.2287
     71  O         51.0240    9.5060   14.2860 O.2    69  THR69      -0.2866
     72  CB        49.6930    6.8320   13.6160 C.3    69  THR69       0.1770
     73  OG1       50.7230    6.6530   14.6000 O.3    69  THR69      -0.2211
     74  CG2       49.5500    5.5590   12.8120 C.3    69  THR69       0.0375
     75  N         47.1350    7.8120   25.7410 N.3    83  ILE83      -0.1245
     76  CA        47.8870    8.1620   24.5450 C.3    83  ILE83       0.1561
     77  C         46.9280    8.2190   23.3590 C.2    83  ILE83       0.2260
     78  O         46.3380    7.2080   22.9760 O.2    83  ILE83      -0.2867
     79  CB        49.0320    7.1530   24.2770 C.3    83  ILE83       0.0252
     80  CG1       49.9730    7.0910   25.4860 C.3    83  ILE83       0.0019
     81  CG2       49.8270    7.5580   23.0440 C.3    83  ILE83       0.0019
     82  CD1       51.1550    6.1570   25.3010 C.3    83  ILE83       0.0001
     83  N         45.8290    9.0580   19.4560 N.3    85  MET85      -0.1230
     84  CA        46.2980    9.0560   18.0810 C.3    85  MET85       0.1702
     85  C         45.1220    9.1960   17.1160 C.2    85  MET85       0.2592
     86  O         43.9680    9.0190   17.4930 O.2    85  MET85      -0.2718
     87  CB        47.0470    7.7520   17.7740 C.3    85  MET85       0.0401
     88  CG        48.0540    7.3340   18.8400 C.3    85  MET85       0.0596
     89  SD        49.5020    8.4010   18.8670 S.3    85  MET85      -0.1393
     90  CE        50.0280    8.2900   17.1840 C.3    85  MET85       0.0692
     91  N         45.4040    9.5110   15.8620 N.am   86  GLU86      -0.1966
     92  CA        44.3360    9.4510   14.8760 C.3    86  GLU86       0.1733
     93  C         43.9180    7.9930   14.7450 C.2    86  GLU86       0.2616
     94  O         44.7220    7.0840   14.9570 O.2    86  GLU86      -0.2715
     95  CB        44.7840   10.0100   13.5240 C.3    86  GLU86       0.0429
     96  CG        45.8360    9.1400   12.8340 C.3    86  GLU86       0.1163
     97  CD        46.1580    9.6150   11.4300 C.2    86  GLU86       0.3649
     98  OE1       45.2220    9.9690   10.6930 O.co2  86  GLU86      -0.2457
     99  OE2       47.3520    9.6500   11.0760 O.co2  86  GLU86      -0.2457
    100  N         42.6530    7.7790   14.4100 N.am   87  TYR87      -0.1960
    101  CA        42.1370    6.4500   14.1670 C.3    87  TYR87       0.1771
    102  C         42.1940    6.1670   12.6760 C.2    87  TYR87       0.2619
    103  O         41.6970    6.9540   11.8840 O.2    87  TYR87      -0.2715
    104  CB        40.7000    6.3380   14.6840 C.3    87  TYR87       0.0574
    105  CG        40.0160    5.0430   14.3080 C.ar   87  TYR87      -0.0198
    106  CD1       40.2260    3.8940   15.0500 C.ar   87  TYR87      -0.0009
    107  CD2       39.1630    4.9750   13.2080 C.ar   87  TYR87      -0.0009
    108  CE1       39.6120    2.7020   14.7090 C.ar   87  TYR87       0.0417
    109  CE2       38.5400    3.7850   12.8600 C.ar   87  TYR87       0.0417
    110  CZ        38.7630    2.6600   13.6160 C.ar   87  TYR87       0.1957
    111  OH        38.1610    1.4720   13.2920 O.3    87  TYR87      -0.2866
    112  N         42.8300    5.0640   12.3050 N.am   88  LEU88      -0.1963
    113  CA        42.8860    4.6210   10.9180 C.3    88  LEU88       0.1728
    114  C         41.9990    3.3940   10.7740 C.2    88  LEU88       0.2617
    115  O         42.2090    2.3870   11.4550 O.2    88  LEU88      -0.2715
    116  CB        44.3240    4.3180   10.5080 C.3    88  LEU88       0.0311
    117  CG        45.1980    5.5730   10.4010 C.3    88  LEU88       0.0022
    118  CD1       46.6760    5.2160   10.4350 C.3    88  LEU88       0.0001
    119  CD2       44.8630    6.2910    9.1100 C.3    88  LEU88       0.0001
    120  N         41.0060    3.4810    9.8970 N.am   89  GLY89      -0.1940
    121  CA        39.9430    2.4900    9.8650 C.3    89  GLY89       0.2014
    122  C         40.1150    1.3180    8.9140 C.2    89  GLY89       0.2639
    123  O         39.2960    0.4090    8.9100 O.2    89  GLY89      -0.2714
    124  N         41.1850    1.3100    8.1250 N.am   90  GLY90      -0.1939
    125  CA        41.2890    0.3210    7.0630 C.3    90  GLY90       0.2014
    126  C         41.8690   -1.0180    7.4890 C.2    90  GLY90       0.2639
    127  O         41.7670   -2.0050    6.7620 O.2    90  GLY90      -0.2714
    128  N         42.4740   -1.0500    8.6680 N.am   91  GLY91      -0.1954
    129  CA        43.1020   -2.2620    9.1690 C.3    91  GLY91       0.1869
    130  C         44.6040   -2.1710    8.9750 C.2    91  GLY91       0.2309
    131  O         45.0900   -1.2150    8.3760 O.2    91  GLY91      -0.2863
    132  N         46.3820   -7.5340    8.6030 N.3    95  ASP95      -0.1239
    133  CA        44.9560   -7.8060    8.4010 C.3    95  ASP95       0.1674
    134  C         44.6520   -8.0090    6.9290 C.2    95  ASP95       0.2266
    135  O         43.9790   -8.9690    6.5390 O.2    95  ASP95      -0.2867
    136  CB        44.0820   -6.6500    8.9250 C.3    95  ASP95       0.1410
    137  CG        44.1850   -6.4600   10.4080 C.2    95  ASP95       0.3668
    138  OD1       44.4490   -7.4480   11.1210 O.co2  95  ASP95      -0.2456
    139  OD2       43.9910   -5.3100   10.8610 O.co2  95  ASP95      -0.2456
    140  N         52.3240   -3.4160   12.0200 N.3   135  ASN135     -0.1240
    141  CA        52.5400   -2.0450   12.4550 C.3   135  ASN135      0.1653
    142  C         52.4570   -1.0520   11.2960 C.2   135  ASN135      0.2266
    143  O         52.9120    0.0940   11.3830 O.2   135  ASN135     -0.2867
    144  CB        53.9020   -1.9320   13.1610 C.3   135  ASN135      0.1155
    145  CG        53.8810   -2.5470   14.5490 C.2   135  ASN135      0.2627
    146  OD1       52.8110   -2.7050   15.1320 O.2   135  ASN135     -0.2716
    147  ND2       55.0570   -2.8900   15.0860 N.am  135  ASN135     -0.0877
    148  N         49.5130    0.6590    9.2100 N.3   137  LEU137     -0.1245
    149  CA        48.0630    0.8270    9.2920 C.3   137  LEU137      0.1561
    150  C         47.5420    1.6150    8.0940 C.2   137  LEU137      0.2260
    151  O         48.2200    2.5080    7.5840 O.2   137  LEU137     -0.2867
    152  CB        47.6690    1.5510   10.5920 C.3   137  LEU137      0.0270
    153  CG        48.0880    0.8890   11.9100 C.3   137  LEU137      0.0019
    154  CD1       47.5300    1.6810   13.0880 C.3   137  LEU137      0.0001
    155  CD2       47.6200   -0.5560   11.9650 C.3   137  LEU137      0.0001
    156  N         52.9240    2.8100   12.4330 N.3   147  ALA147     -0.1231
    157  CA        52.3530    2.8920   13.7710 C.3   147  ALA147      0.1694
    158  C         53.2140    2.1530   14.7940 C.2   147  ALA147      0.2592
    159  O         54.1430    1.4260   14.4460 O.2   147  ALA147     -0.2718
    160  CB        50.9330    2.3240   13.7790 C.3   147  ALA147      0.0304
    161  N         52.8670    2.3510   16.0570 N.am  148  ASP148     -0.1960
    162  CA        53.4850    1.6930   17.2110 C.3   148  ASP148      0.1840
    163  C         54.9690    1.9650   17.3110 C.2   148  ASP148      0.2622
    164  O         55.8190    1.2030   16.8250 O.2   148  ASP148     -0.2715
    165  CB        53.2440    0.1930   17.2180 C.3   148  ASP148      0.1450
    166  CG        53.4920   -0.4150   18.6000 C.2   148  ASP148      0.3671
    167  OD1       54.1350    0.2570   19.4490 O.co2 148  ASP148     -0.2456
    168  OD2       53.0490   -1.5530   18.8370 O.co2 148  ASP148     -0.2456
    169  N         55.2540    3.0560   18.0020 N.am  149  PHE149     -0.1974
    170  CA        56.6060    3.5180   18.2090 C.3   149  PHE149      0.1639
    171  C         57.0820    3.1170   19.5980 C.2   149  PHE149      0.2290
    172  O         57.9500    3.7550   20.1860 O.2   149  PHE149     -0.2864
    173  CB        56.6610    5.0270   17.9760 C.3   149  PHE149      0.0560
    174  CG        56.5430    5.3920   16.5180 C.ar  149  PHE149     -0.0200
    175  CD1       55.3100    5.3830   15.8830 C.ar  149  PHE149     -0.0042
    176  CD2       57.6720    5.6550   15.7740 C.ar  149  PHE149     -0.0042
    177  CE1       55.2090    5.6750   14.5230 C.ar  149  PHE149     -0.0003
    178  CE2       57.5880    5.9570   14.4220 C.ar  149  PHE149     -0.0003
    179  CZ        56.3530    5.9680   13.7940 C.ar  149  PHE149     -0.0000
    180  N         39.0590   -7.4330    2.9250 N.3   276  TYR276     -0.1227
    181  CA        39.1250   -7.7980    4.3290 C.3   276  TYR276      0.1736
    182  C         37.7720   -7.6310    5.0240 C.2   276  TYR276      0.2595
    183  O         37.3600   -8.5090    5.7910 O.2   276  TYR276     -0.2718
    184  CB        40.2020   -6.9780    5.0530 C.3   276  TYR276      0.0548
    185  CG        40.3200   -7.3240    6.5300 C.ar  276  TYR276     -0.0200
    186  CD1       40.8380   -8.5520    6.9450 C.ar  276  TYR276     -0.0009
    187  CD2       39.9000   -6.4320    7.5080 C.ar  276  TYR276     -0.0009
    188  CE1       40.9320   -8.8740    8.2980 C.ar  276  TYR276      0.0417
    189  CE2       39.9960   -6.7420    8.8590 C.ar  276  TYR276      0.0417
    190  CZ        40.5140   -7.9620    9.2460 C.ar  276  TYR276      0.1957
    191  OH        40.6070   -8.2600   10.5920 O.3   276  TYR276     -0.2866
    192  N         37.0770   -6.5230    4.7650 N.am  277  LYS277     -0.1980
    193  CA        35.7700   -6.3190    5.3980 C.3   277  LYS277      0.1596
    194  C         34.8310   -7.4630    5.0550 C.2   277  LYS277      0.2287
    195  O         34.1320   -7.9750    5.9270 O.2   277  LYS277     -0.2864
    196  CB        35.1270   -4.9820    4.9810 C.3   277  LYS277      0.0298
    197  CG        35.6400   -3.7810    5.7500 C.3   277  LYS277      0.0038
    198  CD        34.6430   -2.6180    5.7280 C.3   277  LYS277      0.0206
    199  CE        34.7140   -1.8550    4.4270 C.3   277  LYS277      0.1093
    200  NZ        33.8030   -0.6620    4.4040 N.3   277  LYS277     -0.1314
    201  N         36.1330  -10.7790    6.8880 N.3   280  LYS280     -0.1245
    202  CA        35.9050  -10.7570    8.3300 C.3   280  LYS280      0.1561
    203  C         34.4240  -10.9360    8.6660 C.2   280  LYS280      0.2260
    204  O         34.0740  -11.5710    9.6660 O.2   280  LYS280     -0.2867
    205  CB        36.4320   -9.4460    8.9270 C.3   280  LYS280      0.0271
    206  CG        36.5990   -9.4470   10.4410 C.3   280  LYS280      0.0035
    207  CD        37.6630  -10.4470   10.8900 C.3   280  LYS280      0.0206
    208  CE        38.0100  -10.2590   12.3540 C.3   280  LYS280      0.1093
    209  NZ        39.0840  -11.2000   12.7800 N.3   280  LYS280     -0.1314
@<TRIPOS>BOND
     1   180   181    1
     2   181   182    1
     3   181   184    1
     4   200   199    1
     5   199   198    1
     6   192   182   am
     7   192   193    1
     8   196   193    1
     9   196   197    1
    10   182   183    2
    11   184   185    1
    12   194   193    1
    13   194   195    2
    14   198   197    1
    15   185   186   ar
    16   185   187   ar
    17   135   134    2
    18   127   126    2
    19   201   202    1
    20   134   133    1
    21   186   188   ar
    22   125   126    1
    23   125   124    1
    24   126   128   am
    25   187   189   ar
    26   151   150    2
    27   150   149    1
    28   124   122   am
    29   188   190   ar
    30   202   203    1
    31   202   205    1
    32   131   130    2
    33   133   132    1
    34   133   136    1
    35   203   204    2
    36   128   129    1
    37   189   190   ar
    38   123   122    2
    39   122   121    1
    40   136   137    1
    41   205   206    1
    42   130   129    1
    43   119   117    1
    44   148   149    1
    45   190   191    1
    46   149   152    1
    47   121   120    1
    48   120   114   am
    49   117   118    1
    50   117   116    1
    51   137   139   ar
    52   137   138   ar
    53   206   207    1
    54   116   113    1
    55   152   153    1
    56    98    97   ar
    57   114   113    1
    58   114   115    2
    59   207   208    1
    60   113   112    1
    61    99    97   ar
    62   142   143    2
    63   142   141    1
    64    97    96    1
    65   103   102    2
    66   153   155    1
    67   153   154    1
    68    68    69    1
    69   140   141    1
    70   112   102   am
    71   208   209    1
    72   156   157    1
    73   141   144    1
    74    69    70    1
    75    69    72    1
    76   102   101    1
    77    74    72    1
    78    96    95    1
    79   109   107   ar
    80   109   110   ar
    81   144   145    1
    82   107   105   ar
    83   111   110    1
    84    70    71    2
    85    95    92    1
    86   110   108   ar
    87    72    73    1
    88   157   160    1
    89   157   158    1
    90   179   178   ar
    91   179   177   ar
    92   101   100    1
    93   101   104    1
    94   105   104    1
    95   105   106   ar
    96   100    93   am
    97   178   176   ar
    98   159   158    2
    99   177   175   ar
   100   145   147   am
   101   145   146    2
   102   108   106   ar
   103    93    92    1
   104    93    94    2
   105   158   161   am
   106    92    91    1
   107   176   174   ar
   108    91    85   am
   109   175   174   ar
   110   161   162    1
   111   174   173    1
   112   164   163    2
   113    85    86    2
   114    85    84    1
   115    90    89    1
   116   162   165    1
   117   162   163    1
   118   165   166    1
   119   163   169   am
   120    87    84    1
   121    87    88    1
   122   173   170    1
   123    63    62    2
   124   169   170    1
   125    33    30    1
   126    84    83    1
   127     8     6    1
   128    29    30    1
   129   170   171    1
   130    67    65    1
   131     7     5    1
   132   166   168   ar
   133   166   167   ar
   134     4     3    2
   135     5     6    1
   136     5     2    1
   137    88    89    1
   138    30    31    1
   139    62    61    1
   140    61    60    1
   141    61    64    1
   142    21    20    1
   143   171   172    2
   144     3     2    1
   145     3     9    1
   146    65    64    1
   147    65    66    1
   148     2     1    1
   149    31    32    2
   150    31    34   am
   151    20    19    1
   152    27    26    1
   153    10     9    2
   154    10    11    1
   155    34    35    1
   156    18    19    1
   157    18    17    1
   158    26    28    1
   159    26    23    1
   160    54    53    2
   161    59    57   ar
   162    13    11   am
   163    13    14    1
   164    11    12    2
   165    56    57    1
   166    56    55    1
   167    25    24    2
   168    50    49    1
   169    35    36    1
   170    35    38    1
   171    57    58   ar
   172    24    23    1
   173    39    38    1
   174    39    41    1
   175    53    52    1
   176    17    14    1
   177    14    15    1
   178    78    77    2
   179    23    22    1
   180    81    79    1
   181    52    55    1
   182    52    51    1
   183    49    48    1
   184    36    37    2
   185    36    42   am
   186    77    76    1
   187    38    40    1
   188    42    43    1
   189    46    43    1
   190    46    47    1
   191    48    47    1
   192    79    76    1
   193    79    80    1
   194    15    16    2
   195    43    44    1
   196    76    75    1
   197    82    80    1
   198    44    45    2
