@<TRIPOS>MOLECULE
tmp/4qmtA00.pdb
 211 199 0 0 0
SMALL
GASTEIGER

@<TRIPOS>ATOM
      1  N         17.4420    7.9290   76.0370 N.3    16  ILE16      -0.1231
      2  CA        17.6630    7.5200   74.6480 C.3    16  ILE16       0.1692
      3  C         18.9030    6.6400   74.4940 C.2    16  ILE16       0.2593
      4  O         19.1450    6.0750   73.4260 O.2    16  ILE16      -0.2718
      5  CB        17.7870    8.7390   73.6940 C.3    16  ILE16       0.0266
      6  CG1       18.8930    9.6910   74.1550 C.3    16  ILE16       0.0019
      7  CG2       16.4610    9.4770   73.5910 C.3    16  ILE16       0.0020
      8  CD1       19.0600   10.9020   73.2590 C.3    16  ILE16       0.0001
      9  N         19.6900    6.5130   75.5530 N.am   17  GLY17      -0.1942
     10  CA        20.8160    5.6010   75.5010 C.3    17  GLY17       0.2014
     11  C         21.6900    5.6010   76.7340 C.2    17  GLY17       0.2639
     12  O         21.5290    6.4240   77.6360 O.2    17  GLY17      -0.2714
     13  N         22.6140    4.6490   76.7740 N.am   18  LYS18      -0.1963
     14  CA        23.6330    4.6110   77.8050 C.3    18  LYS18       0.1728
     15  C         24.8770    5.2970   77.2620 C.2    18  LYS18       0.2617
     16  O         25.2940    5.0380   76.1340 O.2    18  LYS18      -0.2715
     17  CB        23.9410    3.1690   78.2200 C.3    18  LYS18       0.0311
     18  CG        25.1290    3.0240   79.1660 C.3    18  LYS18       0.0038
     19  CD        24.8590    3.6840   80.5080 C.3    18  LYS18       0.0206
     20  CE        26.0200    3.4800   81.4710 C.3    18  LYS18       0.1093
     21  NZ        25.6910    3.9520   82.8460 N.3    18  LYS18      -0.1314
     22  N         25.4630    6.1820   78.0550 N.am   19  GLY19      -0.1940
     23  CA        26.6790    6.8460   77.6380 C.3    19  GLY19       0.2014
     24  C         27.8300    6.5110   78.5520 C.2    19  GLY19       0.2639
     25  O         27.6820    5.7310   79.4910 O.2    19  GLY19      -0.2714
     26  N         28.9890    7.0860   78.2670 N.am   20  SER20      -0.1949
     27  CA        30.0950    7.0050   79.1980 C.3    20  SER20       0.1924
     28  C         29.7080    7.7950   80.4380 C.2    20  SER20       0.2314
     29  O         29.1650    8.8950   80.3270 O.2    20  SER20      -0.2863
     30  CB        31.3810    7.5440   78.5720 C.3    20  SER20       0.2116
     31  OG        31.7420    6.7790   77.4300 O.3    20  SER20      -0.2180
     32  N         21.9520    8.9330   78.8920 N.3    24  VAL24      -0.1245
     33  CA        21.6700   10.0820   78.0470 C.3    24  VAL24       0.1561
     34  C         20.1740   10.1910   77.8090 C.2    24  VAL24       0.2260
     35  O         19.5070    9.1960   77.5050 O.2    24  VAL24      -0.2867
     36  CB        22.4150    9.9870   76.7020 C.3    24  VAL24       0.0252
     37  CG1       22.1570   11.2310   75.8550 C.3    24  VAL24       0.0019
     38  CG2       23.9070    9.8010   76.9530 C.3    24  VAL24       0.0019
     39  N         20.4990   16.7920   73.7500 N.3    37  ALA37      -0.1245
     40  CA        20.7930   15.5720   74.4930 C.3    37  ALA37       0.1562
     41  C         21.3720   15.9510   75.8510 C.2    37  ALA37       0.2260
     42  O         22.1810   16.8690   75.9520 O.2    37  ALA37      -0.2867
     43  CB        21.7610   14.6760   73.7200 C.3    37  ALA37       0.0290
     44  N         23.3370   14.3120   79.0620 N.3    39  LYS39      -0.1245
     45  CA        24.0070   13.2170   79.7440 C.3    39  LYS39       0.1561
     46  C         23.9620   13.4960   81.2430 C.2    39  LYS39       0.2260
     47  O         24.4060   14.5560   81.6980 O.2    39  LYS39      -0.2867
     48  CB        25.4510   13.0570   79.2560 C.3    39  LYS39       0.0271
     49  CG        26.1590   11.8290   79.8190 C.3    39  LYS39       0.0035
     50  CD        27.6780   11.8690   79.6010 C.3    39  LYS39       0.0206
     51  CE        28.0710   11.5430   78.1770 C.3    39  LYS39       0.1093
     52  NZ        29.5040   11.1180   78.1120 N.3    39  LYS39      -0.1314
     53  N         36.0930   15.3230   79.9420 N.3    56  GLU56      -0.1245
     54  CA        35.0640   15.3950   78.9070 C.3    56  GLU56       0.1567
     55  C         34.4940   16.8080   78.8100 C.2    56  GLU56       0.2260
     56  O         34.3930   17.3690   77.7230 O.2    56  GLU56      -0.2867
     57  CB        33.9320   14.3940   79.1650 C.3    56  GLU56       0.0388
     58  CG        32.7870   14.5340   78.1600 C.3    56  GLU56       0.1160
     59  CD        31.7060   13.4720   78.2960 C.2    56  GLU56       0.3649
     60  OE1       31.9190   12.4620   79.0000 O.co2  56  GLU56      -0.2457
     61  OE2       30.6320   13.6510   77.6840 O.co2  56  GLU56      -0.2457
     62  N         30.3850   17.0250   68.5090 N.3    69  THR69      -0.1218
     63  CA        29.1340   17.3290   69.2150 C.3    69  THR69       0.1862
     64  C         29.1930   18.6710   69.9330 C.2    69  THR69       0.2287
     65  O         30.0680   18.9020   70.7790 O.2    69  THR69      -0.2866
     66  CB        28.7750   16.2600   70.2680 C.3    69  THR69       0.1770
     67  OG1       29.8520   16.1420   71.2030 O.3    69  THR69      -0.2211
     68  CG2       28.5080   14.9040   69.6210 C.3    69  THR69       0.0375
     69  N         24.1780   18.6690   75.4280 N.3    85  MET85      -0.1230
     70  CA        24.8800   18.5660   74.1630 C.3    85  MET85       0.1702
     71  C         23.9200   18.5640   72.9880 C.2    85  MET85       0.2592
     72  O         22.7040   18.4440   73.1460 O.2    85  MET85      -0.2718
     73  CB        25.7460   17.2930   74.1320 C.3    85  MET85       0.0401
     74  CG        26.9450   17.2670   75.1360 C.3    85  MET85       0.0596
     75  SD        27.7150   15.6280   75.2510 S.3    85  MET85      -0.1393
     76  CE        26.4790   14.7370   76.1940 C.3    85  MET85       0.0692
     77  N         24.4990   18.7190   71.8090 N.am   86  GLU86      -0.1966
     78  CA        23.8010   18.6070   70.5470 C.3    86  GLU86       0.1733
     79  C         23.0030   17.3030   70.4580 C.2    86  GLU86       0.2616
     80  O         23.5270   16.2310   70.7610 O.2    86  GLU86      -0.2715
     81  CB        24.8330   18.6900   69.4220 C.3    86  GLU86       0.0429
     82  CG        24.2880   18.6790   68.0310 C.3    86  GLU86       0.1163
     83  CD        25.3730   18.8880   66.9930 C.2    86  GLU86       0.3649
     84  OE1       25.0110   19.0000   65.8090 O.co2  86  GLU86      -0.2457
     85  OE2       26.5810   18.9370   67.3530 O.co2  86  GLU86      -0.2457
     86  N         21.7380   17.3950   70.0480 N.am   87  TYR87      -0.1960
     87  CA        20.9410   16.2020   69.7700 C.3    87  TYR87       0.1771
     88  C         21.1970   15.7060   68.3580 C.2    87  TYR87       0.2619
     89  O         21.1520   16.4780   67.3890 O.2    87  TYR87      -0.2715
     90  CB        19.4530   16.4710   69.9500 C.3    87  TYR87       0.0574
     91  CG        18.5950   15.2790   69.6010 C.ar   87  TYR87      -0.0198
     92  CD1       18.4960   14.1890   70.4650 C.ar   87  TYR87      -0.0009
     93  CD2       17.8730   15.2470   68.4160 C.ar   87  TYR87      -0.0009
     94  CE1       17.7020   13.0960   70.1490 C.ar   87  TYR87       0.0417
     95  CE2       17.0860   14.1630   68.0930 C.ar   87  TYR87       0.0417
     96  CZ        17.0040   13.0900   68.9590 C.ar   87  TYR87       0.1957
     97  OH        16.2060   12.0190   68.6300 O.3    87  TYR87      -0.2866
     98  N         21.4670   14.4130   68.2450 N.am   88  LEU88      -0.1963
     99  CA        21.7390   13.8020   66.9510 C.3    88  LEU88       0.1728
    100  C         20.8410   12.5880   66.7950 C.2    88  LEU88       0.2617
    101  O         21.1450   11.5040   67.3000 O.2    88  LEU88      -0.2715
    102  CB        23.2240   13.4360   66.8430 C.3    88  LEU88       0.0311
    103  CG        24.1020   14.6890   66.8810 C.3    88  LEU88       0.0022
    104  CD1       25.5620   14.3440   67.1250 C.3    88  LEU88       0.0001
    105  CD2       23.9280   15.4820   65.5900 C.3    88  LEU88       0.0001
    106  N         19.7250   12.7900   66.0970 N.am   89  GLY89      -0.1940
    107  CA        18.6340   11.8270   66.0550 C.3    89  GLY89       0.2014
    108  C         18.8550   10.5750   65.2300 C.2    89  GLY89       0.2639
    109  O         18.0060    9.6830   65.2280 O.2    89  GLY89      -0.2714
    110  N         19.9820   10.4960   64.5280 N.am   90  GLY90      -0.1939
    111  CA        20.3030    9.2950   63.7750 C.3    90  GLY90       0.2014
    112  C         21.0470    8.2530   64.6000 C.2    90  GLY90       0.2639
    113  O         21.3250    7.1600   64.1230 O.2    90  GLY90      -0.2714
    114  N         21.3500    8.5860   65.8530 N.am   91  GLY91      -0.1939
    115  CA        22.0970    7.6870   66.7170 C.3    91  GLY91       0.2014
    116  C         23.5200    7.4480   66.2280 C.2    91  GLY91       0.2639
    117  O         24.0860    8.2780   65.5270 O.2    91  GLY91      -0.2714
    118  N         24.0960    6.3050   66.5800 N.am   92  SER92      -0.1949
    119  CA        25.4880    6.0420   66.2260 C.3    92  SER92       0.1924
    120  C         25.6480    5.2850   64.9120 C.2    92  SER92       0.2314
    121  O         24.7520    4.5460   64.4850 O.2    92  SER92      -0.2863
    122  CB        26.1830    5.2500   67.3340 C.3    92  SER92       0.2116
    123  OG        25.8170    3.8840   67.2600 O.3    92  SER92      -0.2180
    124  N         25.0700    1.5560   65.4050 N.3    95  ASP95      -0.1225
    125  CA        23.6860    1.0930   65.3200 C.3    95  ASP95       0.1805
    126  C         23.2320    0.9590   63.8820 C.2    95  ASP95       0.2597
    127  O         22.5170    0.0130   63.5310 O.2    95  ASP95      -0.2718
    128  CB        22.7530    2.0500   66.0510 C.3    95  ASP95       0.1424
    129  CG        23.0780    2.1640   67.5070 C.2    95  ASP95       0.3668
    130  OD1       23.4510    1.1320   68.1030 O.co2  95  ASP95      -0.2456
    131  OD2       22.9790    3.2900   68.0450 O.co2  95  ASP95      -0.2456
    132  N         23.6540    1.9040   63.0460 N.am   96  LEU96      -0.1979
    133  CA        23.2190    1.9250   61.6600 C.3    96  LEU96       0.1596
    134  C         23.8050    0.7730   60.8410 C.2    96  LEU96       0.2287
    135  O         23.3150    0.4910   59.7480 O.2    96  LEU96      -0.2864
    136  CB        23.5610    3.2620   61.0100 C.3    96  LEU96       0.0297
    137  CG        22.9160    4.4980   61.6410 C.3    96  LEU96       0.0022
    138  CD1       23.3310    5.7540   60.8710 C.3    96  LEU96       0.0001
    139  CD2       21.3880    4.3480   61.6940 C.3    96  LEU96       0.0001
    140  N         30.8310    3.4360   67.3130 N.3   134  ALA134     -0.1231
    141  CA        29.9070    3.7810   68.3940 C.3   134  ALA134      0.1694
    142  C         30.0050    5.2540   68.7900 C.2   134  ALA134      0.2592
    143  O         29.0600    5.8090   69.3570 O.2   134  ALA134     -0.2718
    144  CB        30.1590    2.8920   69.6150 C.3   134  ALA134      0.0304
    145  N         31.1550    5.8680   68.5190 N.am  135  ASN135     -0.1974
    146  CA        31.3900    7.2610   68.8920 C.3   135  ASN135      0.1688
    147  C         31.2690    8.2110   67.7120 C.2   135  ASN135      0.2292
    148  O         31.6810    9.3740   67.7810 O.2   135  ASN135     -0.2864
    149  CB        32.7640    7.3890   69.5510 C.3   135  ASN135      0.1181
    150  CG        32.7770    6.7950   70.9410 C.2   135  ASN135      0.2629
    151  OD1       31.7290    6.6690   71.5790 O.2   135  ASN135     -0.2716
    152  ND2       33.9550    6.4340   71.4260 N.am  135  ASN135     -0.0877
    153  N         28.3490    9.8710   65.5900 N.3   137  LEU137     -0.1245
    154  CA        26.9120   10.1030   65.7010 C.3   137  LEU137      0.1561
    155  C         26.3830   10.8490   64.4910 C.2   137  LEU137      0.2260
    156  O         27.0780   11.6790   63.9110 O.2   137  LEU137     -0.2867
    157  CB        26.5920   10.8910   66.9710 C.3   137  LEU137      0.0270
    158  CG        27.0760   10.3050   68.3000 C.3   137  LEU137      0.0019
    159  CD1       26.5020   11.1080   69.4600 C.3   137  LEU137      0.0001
    160  CD2       26.7620    8.8080   68.4300 C.3   137  LEU137      0.0001
    161  N         31.8680   12.0180   68.9990 N.3   147  ALA147     -0.1231
    162  CA        31.3710   12.1260   70.3680 C.3   147  ALA147      0.1694
    163  C         32.2460   11.3500   71.3390 C.2   147  ALA147      0.2592
    164  O         33.1100   10.5790   70.9160 O.2   147  ALA147     -0.2718
    165  CB        29.9300   11.6250   70.4580 C.3   147  ALA147      0.0304
    166  N         31.9850   11.5670   72.6310 N.am  148  ASP148     -0.1974
    167  CA        32.6220   10.8980   73.7790 C.3   148  ASP148      0.1709
    168  C         34.0830   11.2820   73.9310 C.2   148  ASP148      0.2293
    169  O         34.9730   10.6480   73.3570 O.2   148  ASP148     -0.2864
    170  CB        32.4870    9.3750   73.7010 C.3   148  ASP148      0.1436
    171  CG        32.6900    8.7020   75.0620 C.2   148  ASP148      0.3671
    172  OD1       33.3020    9.3260   75.9560 O.co2 148  ASP148     -0.2456
    173  OD2       32.2410    7.5540   75.2500 O.co2 148  ASP148     -0.2456
    174  N         19.5220    5.9460   57.9820 N.3   273  ILE273     -0.1245
    175  CA        18.7060    6.1490   59.1650 C.3   273  ILE273      0.1561
    176  C         17.3150    5.5430   58.9490 C.2   273  ILE273      0.2260
    177  O         16.7840    4.8560   59.8260 O.2   273  ILE273     -0.2867
    178  CB        18.6280    7.6460   59.5130 C.3   273  ILE273      0.0252
    179  CG1       20.0350    8.1650   59.8410 C.3   273  ILE273      0.0019
    180  CG2       17.6630    7.8800   60.6740 C.3   273  ILE273      0.0019
    181  CD1       20.1830    9.6610   59.7180 C.3   273  ILE273      0.0001
    182  N         17.4540    1.8070   59.2050 N.3   276  TYR276     -0.1227
    183  CA        17.4790    1.3470   60.5800 C.3   276  TYR276      0.1736
    184  C         16.0930    1.4250   61.2130 C.2   276  TYR276      0.2595
    185  O         15.6860    0.5020   61.9020 O.2   276  TYR276     -0.2718
    186  CB        18.4850    2.1440   61.4150 C.3   276  TYR276      0.0548
    187  CG        18.5260    1.6760   62.8560 C.ar  276  TYR276     -0.0200
    188  CD1       17.6230    2.1700   63.8010 C.ar  276  TYR276     -0.0009
    189  CD2       19.4140    0.6950   63.2570 C.ar  276  TYR276     -0.0009
    190  CE1       17.6390    1.7240   65.1110 C.ar  276  TYR276      0.0417
    191  CE2       19.4470    0.2490   64.5790 C.ar  276  TYR276      0.0417
    192  CZ        18.5560    0.7700   65.4970 C.ar  276  TYR276      0.1957
    193  OH        18.5620    0.3380   66.8050 O.3   276  TYR276     -0.2866
    194  N         15.3880    2.5370   61.0160 N.am  277  LYS277     -0.1980
    195  CA        14.0520    2.6720   61.5900 C.3   277  LYS277      0.1596
    196  C         13.1390    1.5480   61.1260 C.2   277  LYS277      0.2287
    197  O         12.3810    0.9810   61.9190 O.2   277  LYS277     -0.2864
    198  CB        13.4260    4.0160   61.2200 C.3   277  LYS277      0.0298
    199  CG        14.0390    5.2120   61.9130 C.3   277  LYS277      0.0038
    200  CD        13.3470    6.4670   61.4080 C.3   277  LYS277      0.0206
    201  CE        13.5730    7.6590   62.2950 C.3   277  LYS277      0.1093
    202  NZ        12.7660    8.7890   61.7610 N.3   277  LYS277     -0.1314
    203  N         14.4190   -1.7800   62.7920 N.3   280  LYS280     -0.1245
    204  CA        14.1030   -1.8120   64.2140 C.3   280  LYS280      0.1561
    205  C         12.6070   -2.0420   64.4680 C.2   280  LYS280      0.2260
    206  O         12.2310   -2.7440   65.4180 O.2   280  LYS280     -0.2867
    207  CB        14.5550   -0.5060   64.8770 C.3   280  LYS280      0.0271
    208  CG        14.6630   -0.5700   66.3870 C.3   280  LYS280      0.0035
    209  CD        15.7660   -1.5360   66.8210 C.3   280  LYS280      0.0206
    210  CE        16.0330   -1.4260   68.3140 C.3   280  LYS280      0.1093
    211  NZ        14.7890   -1.6110   69.1140 N.3   280  LYS280     -0.1314
@<TRIPOS>BOND
     1   174   175    1
     2   176   175    1
     3   176   177    2
     4   175   178    1
     5   182   183    1
     6   178   179    1
     7   178   180    1
     8   181   179    1
     9   135   134    2
    10   183   184    1
    11   183   186    1
    12   134   133    1
    13   138   137    1
    14   136   137    1
    15   136   133    1
    16   194   184   am
    17   194   195    1
    18   196   195    1
    19   196   197    2
    20   184   185    2
    21   198   195    1
    22   198   199    1
    23   200   199    1
    24   200   201    1
    25   186   187    1
    26   137   139    1
    27   133   132    1
    28   202   201    1
    29   203   204    1
    30   187   189   ar
    31   187   188   ar
    32   132   126   am
    33   189   191   ar
    34   127   126    2
    35   111   110    1
    36   111   112    1
    37   188   190   ar
    38   126   125    1
    39   156   155    2
    40   113   112    2
    41   204   205    1
    42   204   207    1
    43   205   206    2
    44   121   120    2
    45   155   154    1
    46   110   108   am
    47   191   192   ar
    48   112   114   am
    49   207   208    1
    50   120   119    1
    51   190   192   ar
    52   109   108    2
    53   108   107    1
    54   125   124    1
    55   125   128    1
    56   192   193    1
    57   117   116    2
    58   153   154    1
    59   105   103    1
    60   154   157    1
    61    84    83   ar
    62   114   115    1
    63   128   129    1
    64   107   106    1
    65   106   100   am
    66   119   118    1
    67   119   122    1
    68   116   118   am
    69   116   115    1
    70   208   209    1
    71   100    99    1
    72   100   101    2
    73   209   210    1
    74   102   103    1
    75   102    99    1
    76   103   104    1
    77    99    98    1
    78   157   158    1
    79    83    85   ar
    80    83    82    1
    81   123   122    1
    82   140   141    1
    83    89    88    2
    84   129   131   ar
    85   129   130   ar
    86   147   148    2
    87   147   146    1
    88    82    81    1
    89    95    93   ar
    90    95    96   ar
    91    98    88   am
    92   158   160    1
    93   158   159    1
    94   210   211    1
    95    88    87    1
    96   141   142    1
    97   141   144    1
    98    93    91   ar
    99    62    63    1
   100   145   142   am
   101   145   146    1
   102    97    96    1
   103   142   143    2
   104   146   149    1
   105    96    94   ar
   106   161   162    1
   107    63    64    1
   108    63    66    1
   109    81    78    1
   110   149   150    1
   111    91    90    1
   112    91    92   ar
   113    68    66    1
   114    87    90    1
   115    87    86    1
   116    64    65    2
   117    86    79   am
   118    94    92   ar
   119    66    67    1
   120   162   165    1
   121   162   163    1
   122    79    78    1
   123    79    80    2
   124    78    77    1
   125   164   163    2
   126   150   152   am
   127   150   151    2
   128   163   166   am
   129    77    71   am
   130   166   167    1
   131    71    72    2
   132    71    70    1
   133     8     6    1
   134   169   168    2
   135     4     3    2
   136     7     5    1
   137     5     6    1
   138     5     2    1
   139   170   167    1
   140   170   171    1
   141    43    40    1
   142    39    40    1
   143   167   168    1
   144    73    70    1
   145    73    74    1
   146    70    69    1
   147    40    41    1
   148     3     2    1
   149     3     9   am
   150     2     1    1
   151   171   173   ar
   152   171   172   ar
   153    74    75    1
   154    75    76    1
   155    10     9    1
   156    10    11    1
   157    41    42    2
   158    37    36    1
   159    16    15    2
   160    36    38    1
   161    36    33    1
   162    11    13   am
   163    11    12    2
   164    13    14    1
   165    15    14    1
   166    15    22   am
   167    31    30    1
   168    35    34    2
   169    23    22    1
   170    23    24    1
   171    61    59   ar
   172    56    55    2
   173    14    17    1
   174    34    33    1
   175    33    32    1
   176    52    51    1
   177    58    59    1
   178    58    57    1
   179    51    50    1
   180    17    18    1
   181    26    24   am
   182    26    27    1
   183    59    60   ar
   184    24    25    2
   185    30    27    1
   186    55    54    1
   187    54    57    1
   188    54    53    1
   189    44    45    1
   190    18    19    1
   191    27    28    1
   192    48    45    1
   193    48    49    1
   194    50    49    1
   195    45    46    1
   196    29    28    2
   197    19    20    1
   198    46    47    2
   199    20    21    1
