@<TRIPOS>MOLECULE
tmp/4qmuA00.pdb
 177 167 0 0 0
SMALL
GASTEIGER

@<TRIPOS>ATOM
      1  N         -8.7340   -1.5880   20.6110 N.3    19  ILE19      -0.1231
      2  CA        -8.4300   -2.0320   19.2560 C.3    19  ILE19       0.1696
      3  C         -7.2970   -3.0500   19.2090 C.2    19  ILE19       0.2632
      4  O         -7.1280   -3.7420   18.2060 O.2    19  ILE19      -0.2714
      5  CB        -8.1080   -0.8400   18.3220 C.3    19  ILE19       0.0266
      6  CG1       -6.8880   -0.0610   18.8070 C.3    19  ILE19       0.0019
      7  CG2       -9.3240    0.0690   18.1820 C.3    19  ILE19       0.0020
      8  CD1       -6.6050    1.1900   17.9700 C.3    19  ILE19       0.0001
      9  N         -6.5370   -3.1670   20.2940 N.am   20  GLY20      -0.1718
     10  CA        -5.5300   -4.2100   20.3680 C.2    20  GLY20       0.1480
     11  C         -4.4880   -4.0660   21.4570 C.2    20  GLY20       0.2820
     12  O         -4.4120   -3.0500   22.1450 O.2    20  GLY20      -0.2669
     13  N         -3.6830   -5.1100   21.6140 N.am   21  LYS21      -0.1929
     14  CA        -2.5450   -5.0790   22.5200 C.3    21  LYS21       0.1731
     15  C         -1.4400   -4.2190   21.9180 C.2    21  LYS21       0.2617
     16  O         -1.0920   -4.3700   20.7450 O.2    21  LYS21      -0.2715
     17  CB        -2.0320   -6.4960   22.7910 C.3    21  LYS21       0.0312
     18  CG        -0.7600   -6.5570   23.6200 C.3    21  LYS21       0.0038
     19  CD        -1.0620   -6.5620   25.1110 C.3    21  LYS21       0.0206
     20  CE         0.2200   -6.5560   25.9340 C.3    21  LYS21       0.1093
     21  NZ         1.0090   -5.3050   25.7390 N.3    21  LYS21      -0.1314
     22  N         -0.8980   -3.3080   22.7160 N.am   22  GLY22      -0.1940
     23  CA         0.1790   -2.4570   22.2530 C.3    22  GLY22       0.2014
     24  C          1.5200   -3.0970   22.5460 C.2    22  GLY22       0.2639
     25  O          1.5880   -4.1260   23.2230 O.2    22  GLY22      -0.2714
     26  N          2.5890   -2.4980   22.0340 N.am   23  SER23      -0.1949
     27  CA         3.9290   -2.9500   22.3830 C.3    23  SER23       0.1924
     28  C          4.0980   -2.8060   23.8920 C.2    23  SER23       0.2314
     29  O          4.8160   -3.5740   24.5330 O.2    23  SER23      -0.2863
     30  CB         4.9960   -2.1570   21.6300 C.3    23  SER23       0.2116
     31  OG         6.1920   -2.9120   21.5250 O.3    23  SER23      -0.2180
     32  N         -4.2260   -0.6380   23.4540 N.3    27  VAL27      -0.1245
     33  CA        -4.5120    0.5210   22.6200 C.3    27  VAL27       0.1561
     34  C         -6.0100    0.6280   22.3660 C.2    27  VAL27       0.2260
     35  O         -6.6740   -0.3610   22.0500 O.2    27  VAL27      -0.2867
     36  CB        -3.7620    0.4620   21.2760 C.3    27  VAL27       0.0252
     37  CG1       -3.8550    1.8070   20.5580 C.3    27  VAL27       0.0019
     38  CG2       -2.3050    0.0760   21.4970 C.3    27  VAL27       0.0019
     39  N         -5.5650    6.9630   18.1600 N.3    40  ALA40      -0.1245
     40  CA        -5.2480    5.7440   18.8870 C.3    40  ALA40       0.1562
     41  C         -4.6180    6.1430   20.2190 C.2    40  ALA40       0.2260
     42  O         -3.7150    6.9710   20.2520 O.2    40  ALA40      -0.2867
     43  CB        -4.3020    4.8580   18.0890 C.3    40  ALA40       0.0290
     44  N         -2.7280    4.7120   23.4370 N.3    42  LYS42      -0.1245
     45  CA        -2.0290    3.6190   24.0930 C.3    42  LYS42       0.1561
     46  C         -2.0270    3.9280   25.5860 C.2    42  LYS42       0.2260
     47  O         -1.5190    4.9680   26.0110 O.2    42  LYS42      -0.2867
     48  CB        -0.6100    3.4640   23.5420 C.3    42  LYS42       0.0271
     49  CG         0.1930    2.3330   24.1710 C.3    42  LYS42       0.0035
     50  CD         1.6310    2.2820   23.6300 C.3    42  LYS42       0.0206
     51  CE         1.6640    1.9940   22.1330 C.3    42  LYS42       0.1093
     52  NZ         3.0640    1.7920   21.6380 N.3    42  LYS42      -0.1314
     53  N          3.8900    7.6280   12.3260 N.3    72  THR72      -0.1218
     54  CA         2.6240    7.8770   13.0320 C.3    72  THR72       0.1862
     55  C          2.6520    9.2080   13.7710 C.2    72  THR72       0.2287
     56  O          3.5270    9.4430   14.6050 O.2    72  THR72      -0.2866
     57  CB         2.3030    6.7760   14.0500 C.3    72  THR72       0.1770
     58  OG1        3.3600    6.6880   15.0140 O.3    72  THR72      -0.2211
     59  CG2        2.1450    5.4460   13.3600 C.3    72  THR72       0.0375
     60  N         -1.8450    9.0210   19.5010 N.3    88  MET88      -0.1230
     61  CA        -1.2830    9.0940   18.1560 C.3    88  MET88       0.1702
     62  C         -2.4160    9.0240   17.1290 C.2    88  MET88       0.2592
     63  O         -3.5470    8.7250   17.4890 O.2    88  MET88      -0.2718
     64  CB        -0.2880    7.9530   17.9320 C.3    88  MET88       0.0401
     65  CG         0.8840    7.8870   18.9210 C.3    88  MET88       0.0596
     66  SD         1.2390    6.1630   19.3070 S.3    88  MET88      -0.1393
     67  CE         0.6460    5.4500   17.7990 C.3    88  MET88       0.0692
     68  N         -2.1270    9.2910   15.8570 N.am   89  GLU89      -0.1966
     69  CA        -3.1670    9.1460   14.8370 C.3    89  GLU89       0.1733
     70  C         -3.5730    7.6830   14.7180 C.2    89  GLU89       0.2616
     71  O         -2.7640    6.7740   14.9300 O.2    89  GLU89      -0.2715
     72  CB        -2.7080    9.6760   13.4740 C.3    89  GLU89       0.0429
     73  CG        -1.7510    8.7430   12.7410 C.3    89  GLU89       0.1163
     74  CD        -1.2270    9.3100   11.4300 C.2    89  GLU89       0.3649
     75  OE1       -2.0370    9.5930   10.5180 O.co2  89  GLU89      -0.2457
     76  OE2        0.0090    9.4790   11.3340 O.co2  89  GLU89      -0.2457
     77  N         -4.8450    7.4850   14.4170 N.am   90  TYR90      -0.1960
     78  CA        -5.3880    6.1730   14.1550 C.3    90  TYR90       0.1771
     79  C         -5.2610    5.8930   12.6730 C.2    90  TYR90       0.2619
     80  O         -5.6180    6.7360   11.8470 O.2    90  TYR90      -0.2715
     81  CB        -6.8490    6.0940   14.5870 C.3    90  TYR90       0.0574
     82  CG        -7.5280    4.8330   14.1310 C.ar   90  TYR90      -0.0198
     83  CD1       -7.3360    3.6390   14.8110 C.ar   90  TYR90      -0.0009
     84  CD2       -8.3730    4.8380   13.0250 C.ar   90  TYR90      -0.0009
     85  CE1       -7.9590    2.4820   14.4000 C.ar   90  TYR90       0.0417
     86  CE2       -8.9970    3.6830   12.6070 C.ar   90  TYR90       0.0417
     87  CZ        -8.7920    2.5120   13.2990 C.ar   90  TYR90       0.1957
     88  OH        -9.4140    1.3550   12.8910 O.3    90  TYR90      -0.2866
     89  N         -4.7520    4.7160   12.3350 N.am   91  LEU91      -0.1963
     90  CA        -4.6450    4.3110   10.9400 C.3    91  LEU91       0.1728
     91  C         -5.5530    3.1090   10.6900 C.2    91  LEU91       0.2617
     92  O         -5.4030    2.0520   11.2970 O.2    91  LEU91      -0.2715
     93  CB        -3.1920    4.0140   10.5850 C.3    91  LEU91       0.0311
     94  CG        -2.3770    5.3130   10.5930 C.3    91  LEU91       0.0022
     95  CD1       -0.8920    5.0410   10.7580 C.3    91  LEU91       0.0001
     96  CD2       -2.6400    6.1020    9.3300 C.3    91  LEU91       0.0001
     97  N         -6.5060    3.2900    9.7830 N.am   92  GLY92      -0.1940
     98  CA        -7.6130    2.3620    9.6580 C.3    92  GLY92       0.2014
     99  C         -7.4100    1.1380    8.7880 C.2    92  GLY92       0.2639
    100  O         -8.2790    0.2730    8.7260 O.2    92  GLY92      -0.2714
    101  N         -6.2680    1.0520    8.1220 N.am   93  GLY93      -0.1939
    102  CA        -6.0030   -0.0730    7.2430 C.3    93  GLY93       0.2014
    103  C         -5.3220   -1.2600    7.9080 C.2    93  GLY93       0.2639
    104  O         -5.1870   -2.3110    7.2880 O.2    93  GLY93      -0.2714
    105  N         -4.9030   -1.1000    9.1600 N.am   94  GLY94      -0.1939
    106  CA        -4.2170   -2.1580    9.8870 C.3    94  GLY94       0.2014
    107  C         -2.7550   -2.2300    9.4780 C.2    94  GLY94       0.2639
    108  O         -2.2620   -1.3560    8.7770 O.2    94  GLY94      -0.2714
    109  N         -2.0610   -3.2700    9.9120 N.am   95  SER95      -0.1949
    110  CA        -0.6400   -3.4020    9.5940 C.3    95  SER95       0.1924
    111  C         -0.3910   -4.1560    8.2900 C.2    95  SER95       0.2314
    112  O         -1.2520   -4.8690    7.7850 O.2    95  SER95      -0.2863
    113  CB         0.0920   -4.1210   10.7180 C.3    95  SER95       0.2116
    114  OG        -0.1460   -5.5210   10.6300 O.3    95  SER95      -0.2180
    115  N         -1.0680   -7.7430    8.9250 N.3    98  ASP98      -0.1239
    116  CA        -2.4980   -8.0270    8.8290 C.3    98  ASP98       0.1674
    117  C         -2.8950   -8.2450    7.3830 C.2    98  ASP98       0.2266
    118  O         -3.6440   -9.1800    7.0590 O.2    98  ASP98      -0.2867
    119  CB        -3.3350   -6.8760    9.3980 C.3    98  ASP98       0.1410
    120  CG        -3.1270   -6.6710   10.8720 C.2    98  ASP98       0.3668
    121  OD1       -2.7070   -7.6240   11.5620 O.co2  98  ASP98      -0.2456
    122  OD2       -3.3810   -5.5430   11.3530 O.co2  98  ASP98      -0.2456
    123  N          4.6950   -6.0900   10.9260 N.3   137  ALA137     -0.1231
    124  CA         3.7520   -5.7770   12.0140 C.3   137  ALA137      0.1694
    125  C          3.8360   -4.3260   12.4900 C.2   137  ALA137      0.2592
    126  O          2.8980   -3.8260   13.1150 O.2   137  ALA137     -0.2718
    127  CB         3.9760   -6.7120   13.1920 C.3   137  ALA137      0.0304
    128  N          4.9530   -3.6560   12.2080 N.am  138  ASN138     -0.1974
    129  CA         5.1340   -2.2700   12.6510 C.3   138  ASN138      0.1688
    130  C          5.0180   -1.2860   11.4960 C.2   138  ASN138      0.2292
    131  O          5.4330   -0.1210   11.5960 O.2   138  ASN138     -0.2864
    132  CB         6.4880   -2.1010   13.3590 C.3   138  ASN138      0.1181
    133  CG         6.5030   -2.7620   14.7340 C.2   138  ASN138      0.2629
    134  OD1        5.4550   -2.9050   15.3670 O.2   138  ASN138     -0.2716
    135  ND2        7.6870   -3.1610   15.2040 N.am  138  ASN138     -0.0877
    136  N          2.1090    0.4090    9.3600 N.3   140  LEU140     -0.1245
    137  CA         0.6610    0.6160    9.4370 C.3   140  LEU140      0.1561
    138  C          0.1630    1.3400    8.2100 C.2   140  LEU140      0.2260
    139  O          0.8580    2.1850    7.6540 O.2   140  LEU140     -0.2867
    140  CB         0.2910    1.4310   10.6780 C.3   140  LEU140      0.0270
    141  CG         0.6710    0.8650   12.0440 C.3   140  LEU140      0.0019
    142  CD1        0.0800    1.7270   13.1480 C.3   140  LEU140      0.0001
    143  CD2        0.2410   -0.5860   12.1980 C.3   140  LEU140      0.0001
    144  N          5.5310    2.6090   12.6980 N.3   150  ALA150     -0.1231
    145  CA         4.9970    2.6660   14.0560 C.3   150  ALA150      0.1694
    146  C          5.8770    1.9160   15.0600 C.2   150  ALA150      0.2592
    147  O          6.7930    1.1770   14.6730 O.2   150  ALA150     -0.2718
    148  CB         3.5670    2.0980   14.0890 C.3   150  ALA150      0.0304
    149  N          5.5850    2.1310   16.3450 N.am  151  ASP151     -0.1974
    150  CA         6.1650    1.4030   17.4910 C.3   151  ASP151      0.1709
    151  C          7.6500    1.6860   17.6830 C.2   151  ASP151      0.2293
    152  O          8.5210    0.8900   17.2980 O.2   151  ASP151     -0.2864
    153  CB         5.9080   -0.1010   17.3730 C.3   151  ASP151      0.1436
    154  CG         4.4950   -0.4890   17.8190 C.2   151  ASP151      0.3671
    155  OD1        3.7620    0.3810   18.3500 O.co2 151  ASP151     -0.2456
    156  OD2        4.1160   -1.6710   17.6690 O.co2 151  ASP151     -0.2456
    157  N         -8.5950   -7.5100    2.9630 N.3   279  TYR279     -0.1241
    158  CA        -8.5180   -7.8720    4.3640 C.3   279  TYR279      0.1605
    159  C         -9.8780   -7.7390    5.0480 C.2   279  TYR279      0.2264
    160  O        -10.2750   -8.6120    5.8160 O.2   279  TYR279     -0.2867
    161  CB        -7.4700   -7.0140    5.0840 C.3   279  TYR279      0.0534
    162  CG        -7.3910   -7.3180    6.5600 C.ar  279  TYR279     -0.0201
    163  CD1       -6.7070   -8.4350    7.0170 C.ar  279  TYR279     -0.0009
    164  CD2       -8.0260   -6.5120    7.4930 C.ar  279  TYR279     -0.0009
    165  CE1       -6.6380   -8.7300    8.3630 C.ar  279  TYR279      0.0417
    166  CE2       -7.9650   -6.8060    8.8460 C.ar  279  TYR279      0.0417
    167  CZ        -7.2680   -7.9180    9.2700 C.ar  279  TYR279      0.1957
    168  OH        -7.2020   -8.2220   10.6100 O.3   279  TYR279     -0.2866
    169  N        -11.6530  -10.7740    6.8650 N.3   283  LYS283     -0.1245
    170  CA       -11.8520  -10.7250    8.3110 C.3   283  LYS283      0.1561
    171  C        -13.3200  -10.9360    8.6750 C.2   283  LYS283      0.2260
    172  O        -13.6410  -11.5710    9.6860 O.2   283  LYS283     -0.2867
    173  CB       -11.3560   -9.3850    8.8670 C.3   283  LYS283      0.0271
    174  CG       -11.2230   -9.3330   10.3820 C.3   283  LYS283      0.0035
    175  CD       -10.1350  -10.2790   10.8670 C.3   283  LYS283      0.0206
    176  CE        -9.5420   -9.8190   12.1910 C.3   283  LYS283      0.1093
    177  NZ       -10.4530  -10.0770   13.3390 N.3   283  LYS283     -0.1314
@<TRIPOS>BOND
     1   157   158    1
     2   158   159    1
     3   158   161    1
     4   159   160    2
     5   161   162    1
     6   162   163   ar
     7   162   164   ar
     8   169   170    1
     9   163   165   ar
    10   118   117    2
    11   102   103    1
    12   102   101    1
    13   104   103    2
    14   117   116    1
    15   164   166   ar
    16   139   138    2
    17   112   111    2
    18   103   105   am
    19   101    99   am
    20   138   137    1
    21   111   110    1
    22   170   171    1
    23   170   173    1
    24   165   167   ar
    25   171   172    2
    26   100    99    2
    27   108   107    2
    28    99    98    1
    29   116   115    1
    30   116   119    1
    31   166   167   ar
    32   173   174    1
    33   105   106    1
    34   167   168    1
    35    96    94    1
    36   136   137    1
    37   119   120    1
    38   137   140    1
    39   107   106    1
    40   107   109   am
    41   110   109    1
    42   110   113    1
    43    98    97    1
    44    97    91   am
    45   174   175    1
    46    75    74   ar
    47    93    94    1
    48    93    90    1
    49    94    95    1
    50   114   113    1
    51   140   141    1
    52    91    90    1
    53    91    92    2
    54   175   176    1
    55   120   122   ar
    56   120   121   ar
    57   123   124    1
    58    90    89    1
    59    76    74   ar
    60    74    73    1
    61   130   131    2
    62   130   129    1
    63    80    79    2
    64   124   125    1
    65   124   127    1
    66   141   143    1
    67   141   142    1
    68   176   177    1
    69   128   125   am
    70   128   129    1
    71    53    54    1
    72    89    79   am
    73   125   126    2
    74    86    84   ar
    75    86    87   ar
    76   129   132    1
    77    79    78    1
    78   144   145    1
    79    73    72    1
    80    88    87    1
    81    84    82   ar
    82    54    55    1
    83    54    57    1
    84    87    85   ar
    85   132   133    1
    86    59    57    1
    87    72    69    1
    88    55    56    2
    89    57    58    1
    90   145   148    1
    91   145   146    1
    92    82    81    1
    93    82    83   ar
    94    78    77    1
    95    78    81    1
    96    85    83   ar
    97    77    70   am
    98   147   146    2
    99    70    69    1
   100    70    71    2
   101   133   135   am
   102   133   134    2
   103    69    68    1
   104   146   149   am
   105    68    62   am
   106   149   150    1
   107    62    63    2
   108    62    61    1
   109   152   151    2
   110   153   150    1
   111   153   154    1
   112   150   151    1
   113   156   154   ar
   114    67    66    1
   115   154   155   ar
   116    64    61    1
   117    64    65    1
   118     8     6    1
   119    43    40    1
   120    61    60    1
   121    39    40    1
   122     7     5    1
   123     4     3    2
   124     5     6    1
   125     5     2    1
   126    40    41    1
   127    65    66    1
   128     3     2    1
   129     3     9    1
   130     2     1    1
   131    41    42    2
   132     9    10    2
   133    10    11    1
   134    37    36    1
   135    16    15    2
   136    36    38    1
   137    36    33    1
   138    11    13   am
   139    11    12    2
   140    31    30    1
   141    13    14    1
   142    30    27    1
   143    52    51    1
   144    15    14    1
   145    15    22   am
   146    26    27    1
   147    26    24   am
   148    35    34    2
   149    51    50    1
   150    23    24    1
   151    23    22    1
   152    34    33    1
   153    27    28    1
   154    14    17    1
   155    24    25    2
   156    33    32    1
   157    17    18    1
   158    44    45    1
   159    48    45    1
   160    48    49    1
   161    18    19    1
   162    50    49    1
   163    28    29    2
   164    45    46    1
   165    19    20    1
   166    46    47    2
   167    21    20    1
