@<TRIPOS>MOLECULE
tmp/4qmvA00.pdb
 190 179 0 0 0
SMALL
GASTEIGER

@<TRIPOS>ATOM
      1  N         39.0620   -1.6490   76.1580 N.3    19  GLU19      -0.1231
      2  CA        38.5820   -0.3070   76.4760 C.3    19  GLU19       0.1699
      3  C         37.1450   -0.2890   76.9790 C.2    19  GLU19       0.2592
      4  O         36.3470   -1.1710   76.6470 O.2    19  GLU19      -0.2718
      5  CB        38.6940    0.6040   75.2520 C.3    19  GLU19       0.0402
      6  CG        37.6500    0.3320   74.1740 C.3    19  GLU19       0.1161
      7  CD        38.1530   -0.5900   73.0690 C.2    19  GLU19       0.3649
      8  OE1       37.5130   -0.6250   71.9900 O.co2  19  GLU19      -0.2457
      9  OE2       39.1840   -1.2730   73.2780 O.co2  19  GLU19      -0.2457
     10  N         36.8250    0.7240   77.7850 N.am   20  LYS20      -0.1966
     11  CA        35.4560    0.9430   78.2140 C.3    20  LYS20       0.1728
     12  C         34.6630    1.4170   77.0320 C.2    20  LYS20       0.2616
     13  O         35.1260    2.2790   76.2960 O.2    20  LYS20      -0.2715
     14  CB        35.3410    1.9750   79.3330 C.3    20  LYS20       0.0311
     15  CG        33.8680    2.2650   79.6520 C.3    20  LYS20       0.0038
     16  CD        33.6600    3.4690   80.5270 C.3    20  LYS20       0.0206
     17  CE        34.1450    3.2070   81.9120 C.3    20  LYS20       0.1093
     18  NZ        33.8590    4.3590   82.8260 N.3    20  LYS20      -0.1314
     19  N         33.4740    0.8480   76.8620 N.am   21  ILE21      -0.1963
     20  CA        32.5960    1.2020   75.7600 C.3    21  ILE21       0.1730
     21  C         31.3280    1.8540   76.2980 C.2    21  ILE21       0.2656
     22  O         30.5110    2.3630   75.5440 O.2    21  ILE21      -0.2711
     23  CB        32.2280   -0.0310   74.9090 C.3    21  ILE21       0.0290
     24  CG1       31.5460   -1.0940   75.7710 C.3    21  ILE21       0.0022
     25  CG2       33.4650   -0.6150   74.2350 C.3    21  ILE21       0.0023
     26  CD1       30.8770   -2.2040   74.9560 C.3    21  ILE21       0.0001
     27  N         31.1580    1.8320   77.6100 N.am   22  GLY22      -0.1716
     28  CA        29.9990    2.4510   78.2040 C.2    22  GLY22       0.1480
     29  C         29.8220    2.1930   79.6850 C.2    22  GLY22       0.2820
     30  O         30.4420    1.3020   80.2670 O.2    22  GLY22      -0.2669
     31  N         28.9720    3.0070   80.2970 N.am   23  LYS23      -0.1929
     32  CA        28.5230    2.7940   81.6590 C.3    23  LYS23       0.1731
     33  C         27.1560    2.1370   81.5600 C.2    23  LYS23       0.2616
     34  O         26.3170    2.5490   80.7610 O.2    23  LYS23      -0.2715
     35  CB        28.4640    4.1140   82.4280 C.3    23  LYS23       0.0312
     36  CG        27.3670    4.1980   83.4860 C.3    23  LYS23       0.0038
     37  CD        27.3030    5.5980   84.0870 C.3    23  LYS23       0.0206
     38  CE        28.6830    6.0680   84.5230 C.3    23  LYS23       0.1093
     39  NZ        28.7270    7.5460   84.7160 N.3    23  LYS23      -0.1314
     40  N         26.9380    1.0970   82.3510 N.am   24  GLY24      -0.1955
     41  CA        25.7600    0.2790   82.1640 C.3    24  GLY24       0.1869
     42  C         24.7310    0.4420   83.2540 C.2    24  GLY24       0.2309
     43  O         24.7250    1.4480   83.9840 O.2    24  GLY24      -0.2863
     44  N         30.8570   -0.9890   81.4880 N.3    29  VAL29      -0.1245
     45  CA        30.8750   -2.0000   80.4360 C.3    29  VAL29       0.1561
     46  C         32.1170   -1.8620   79.5750 C.2    29  VAL29       0.2260
     47  O         32.4600   -0.7610   79.1500 O.2    29  VAL29      -0.2867
     48  CB        29.6420   -1.9080   79.5210 C.3    29  VAL29       0.0252
     49  CG1       29.6410   -3.0590   78.5160 C.3    29  VAL29       0.0019
     50  CG2       28.3750   -1.9050   80.3340 C.3    29  VAL29       0.0019
     51  N         34.6300   -3.5560   76.2390 N.3    31  LYS31      -0.1245
     52  CA        34.9630   -4.4670   75.1670 C.3    31  LYS31       0.1561
     53  C         35.9690   -5.4700   75.7160 C.2    31  LYS31       0.2260
     54  O         36.8300   -5.1170   76.5170 O.2    31  LYS31      -0.2867
     55  CB        35.5390   -3.6970   73.9810 C.3    31  LYS31       0.0271
     56  CG        35.8200   -4.5100   72.7320 C.3    31  LYS31       0.0035
     57  CD        36.3230   -3.5750   71.6220 C.3    31  LYS31       0.0206
     58  CE        36.8270   -4.3390   70.4160 C.3    31  LYS31       0.1093
     59  NZ        38.1750   -3.8550   69.9620 N.3    31  LYS31      -0.1314
     60  N         31.1450   -8.3320   75.3660 N.3    42  ALA42      -0.1245
     61  CA        30.9980   -7.1600   76.2070 C.3    42  ALA42       0.1562
     62  C         31.0740   -7.5850   77.6770 C.2    42  ALA42       0.2260
     63  O         30.4470   -8.5660   78.0950 O.2    42  ALA42      -0.2867
     64  CB        29.6650   -6.4300   75.8970 C.3    42  ALA42       0.0290
     65  N         30.4230   -6.5020   81.5450 N.3    44  LYS44      -0.1245
     66  CA        29.8980   -5.5800   82.5380 C.3    44  LYS44       0.1561
     67  C         30.5480   -5.9100   83.8720 C.2    44  LYS44       0.2260
     68  O         30.4800   -7.0570   84.3340 O.2    44  LYS44      -0.2867
     69  CB        28.3660   -5.6610   82.6400 C.3    44  LYS44       0.0271
     70  CG        27.7990   -4.7940   83.7660 C.3    44  LYS44       0.0035
     71  CD        26.5140   -4.0610   83.3920 C.3    44  LYS44       0.0206
     72  CE        25.3760   -5.0220   83.1570 C.3    44  LYS44       0.1093
     73  NZ        24.0530   -4.3330   83.1890 N.3    44  LYS44      -0.1314
     74  N         20.0580   -9.2150   73.5500 N.3    74  THR74      -0.1218
     75  CA        21.4790   -9.4410   73.8260 C.3    74  THR74       0.1862
     76  C         21.6670  -10.7460   74.5710 C.2    74  THR74       0.2287
     77  O         21.0120  -10.9700   75.5990 O.2    74  THR74      -0.2866
     78  CB        22.0950   -8.3220   74.6990 C.3    74  THR74       0.1770
     79  OG1       21.3910   -8.2700   75.9480 O.3    74  THR74      -0.2211
     80  CG2       22.0140   -6.9710   74.0210 C.3    74  THR74       0.0375
     81  N         28.5940  -10.5670   78.2070 N.3    90  MET90      -0.1230
     82  CA        27.4760  -10.3380   77.2960 C.3    90  MET90       0.1702
     83  C         27.8940  -10.4680   75.8420 C.2    90  MET90       0.2592
     84  O         29.0720  -10.3370   75.5040 O.2    90  MET90      -0.2718
     85  CB        26.8940   -8.9350   77.5120 C.3    90  MET90       0.0401
     86  CG        26.5050   -8.5990   78.9390 C.3    90  MET90       0.0596
     87  SD        25.0960   -9.6030   79.4110 S.3    90  MET90      -0.1393
     88  CE        23.8150   -8.9880   78.3040 C.3    90  MET90       0.0692
     89  N         26.9120  -10.6960   74.9820 N.am   91  GLU91      -0.1966
     90  CA        27.0840  -10.5560   73.5360 C.3    91  GLU91       0.1733
     91  C         27.5940   -9.1660   73.1730 C.2    91  GLU91       0.2616
     92  O         27.0600   -8.1620   73.6470 O.2    91  GLU91      -0.2715
     93  CB        25.7580  -10.8180   72.8300 C.3    91  GLU91       0.0429
     94  CG        25.8000  -10.6340   71.3450 C.3    91  GLU91       0.1163
     95  CD        24.4740  -10.9540   70.6980 C.2    91  GLU91       0.3649
     96  OE1       24.4500  -11.2280   69.4860 O.co2  91  GLU91      -0.2457
     97  OE2       23.4460  -10.9390   71.3930 O.co2  91  GLU91      -0.2457
     98  N         28.6360   -9.0960   72.3530 N.am   92  TYR92      -0.1960
     99  CA        29.1630   -7.7990   71.9240 C.3    92  TYR92       0.1771
    100  C         28.4720   -7.3570   70.6480 C.2    92  TYR92       0.2619
    101  O         28.4790   -8.0710   69.6490 O.2    92  TYR92      -0.2715
    102  CB        30.6800   -7.8490   71.7060 C.3    92  TYR92       0.0574
    103  CG        31.2780   -6.5480   71.2160 C.ar   92  TYR92      -0.0198
    104  CD1       31.5340   -5.4990   72.0990 C.ar   92  TYR92      -0.0009
    105  CD2       31.5930   -6.3640   69.8700 C.ar   92  TYR92      -0.0009
    106  CE1       32.0900   -4.2920   71.6550 C.ar   92  TYR92       0.0417
    107  CE2       32.1560   -5.1750   69.4210 C.ar   92  TYR92       0.0417
    108  CZ        32.3940   -4.1410   70.3180 C.ar   92  TYR92       0.1957
    109  OH        32.9300   -2.9540   69.8750 O.3    92  TYR92      -0.2866
    110  N         27.8670   -6.1820   70.6890 N.am   93  LEU93      -0.1963
    111  CA        27.2500   -5.6120   69.5010 C.3    93  LEU93       0.1728
    112  C         28.0840   -4.4350   68.9780 C.2    93  LEU93       0.2617
    113  O         28.1130   -3.3350   69.5620 O.2    93  LEU93      -0.2715
    114  CB        25.8050   -5.2160   69.8140 C.3    93  LEU93       0.0311
    115  CG        25.0320   -6.5250   70.0740 C.3    93  LEU93       0.0022
    116  CD1       23.9110   -6.3430   71.0340 C.3    93  LEU93       0.0001
    117  CD2       24.4990   -7.1100   68.7880 C.3    93  LEU93       0.0001
    118  N         28.7760   -4.6880   67.8710 N.am   94  GLY94      -0.1940
    119  CA        29.7970   -3.7800   67.3790 C.3    94  GLY94       0.2014
    120  C         29.3340   -2.4760   66.7520 C.2    94  GLY94       0.2639
    121  O         30.1490   -1.5930   66.5180 O.2    94  GLY94      -0.2714
    122  N         28.0410   -2.3310   66.4830 N.am   95  GLY95      -0.1939
    123  CA        27.5500   -1.0960   65.9010 C.3    95  GLY95       0.2014
    124  C         27.2620   -0.0300   66.9340 C.2    95  GLY95       0.2639
    125  O         27.0320    1.1310   66.5940 O.2    95  GLY95      -0.2714
    126  N         27.2630   -0.4100   68.2040 N.am   96  GLY96      -0.1939
    127  CA        26.8730    0.5240   69.2450 C.3    96  GLY96       0.2014
    128  C         25.3600    0.6700   69.2970 C.2    96  GLY96       0.2639
    129  O         24.6320   -0.1380   68.7110 O.2    96  GLY96      -0.2714
    130  N         24.8820    1.6870   70.0090 N.am   97  SER97      -0.1949
    131  CA        23.4460    1.9010   70.1540 C.3    97  SER97       0.1924
    132  C         22.9290    2.7710   69.0310 C.2    97  SER97       0.2314
    133  O         23.6970    3.5240   68.4210 O.2    97  SER97      -0.2863
    134  CB        23.1140    2.5530   71.4900 C.3    97  SER97       0.2116
    135  OG        23.5810    3.8870   71.5070 O.3    97  SER97      -0.2180
    136  N         24.0670    6.2120   69.5060 N.3   100  ASP100     -0.1239
    137  CA        25.3990    6.5270   68.9700 C.3   100  ASP100      0.1674
    138  C         25.2970    6.8030   67.4790 C.2   100  ASP100      0.2266
    139  O         25.8960    7.7490   66.9640 O.2   100  ASP100     -0.2867
    140  CB        26.4240    5.3940   69.1850 C.3   100  ASP100      0.1410
    141  CG        26.7160    5.1200   70.6410 C.2   100  ASP100      0.3668
    142  OD1       27.2460    6.0170   71.3280 O.co2 100  ASP100     -0.2456
    143  OD2       26.4410    3.9910   71.0980 O.co2 100  ASP100     -0.2456
    144  N         19.2570    4.3910   73.4030 N.3   139  ALA139     -0.1245
    145  CA        20.5400    4.0090   73.9820 C.3   139  ALA139      0.1562
    146  C         20.5490    2.5230   74.3060 C.2   139  ALA139      0.2260
    147  O         21.6130    1.8930   74.3340 O.2   139  ALA139     -0.2867
    148  CB        20.8510    4.8430   75.2430 C.3   139  ALA139      0.0290
    149  N         20.7060   -1.8630   70.4380 N.3   142  LEU142     -0.1245
    150  CA        22.0710   -2.0570   69.9520 C.3   142  LEU142      0.1561
    151  C         22.0960   -2.7180   68.5880 C.2   142  LEU142      0.2260
    152  O         21.1640   -3.4390   68.2120 O.2   142  LEU142     -0.2867
    153  CB        22.8940   -2.8860   70.9420 C.3   142  LEU142      0.0270
    154  CG        22.9260   -2.3640   72.3860 C.3   142  LEU142      0.0019
    155  CD1       23.9660   -3.1100   73.2540 C.3   142  LEU142      0.0001
    156  CD2       23.1730   -0.8640   72.4280 C.3   142  LEU142      0.0001
    157  N         18.6890   -4.1790   74.7700 N.3   152  ALA152     -0.1231
    158  CA        19.6740   -4.3470   75.8290 C.3   152  ALA152      0.1694
    159  C         19.2260   -3.6940   77.1220 C.2   152  ALA152      0.2592
    160  O         18.2340   -2.9420   77.1550 O.2   152  ALA152     -0.2718
    161  CB        21.0070   -3.7780   75.4070 C.3   152  ALA152      0.0304
    162  N         19.9760   -4.0110   78.1720 N.am  153  ASP153     -0.1974
    163  CA        19.8520   -3.4120   79.4910 C.3   153  ASP153      0.1709
    164  C         18.5110   -3.7290   80.1080 C.2   153  ASP153      0.2293
    165  O         17.5720   -2.9280   80.0610 O.2   153  ASP153     -0.2864
    166  CB        20.0660   -1.9020   79.4170 C.3   153  ASP153      0.1436
    167  CG        20.3720   -1.2910   80.7580 C.2   153  ASP153      0.3671
    168  OD1       19.8310   -1.7760   81.7750 O.co2 153  ASP153     -0.2456
    169  OD2       21.1560   -0.3190   80.7850 O.co2 153  ASP153     -0.2456
    170  N         29.0010    6.1720   60.9340 N.3   281  TYR281     -0.1241
    171  CA        29.5140    6.4640   62.2690 C.3   281  TYR281      0.1605
    172  C         31.0260    6.3420   62.3030 C.2   281  TYR281      0.2264
    173  O         31.7020    7.1340   62.9620 O.2   281  TYR281     -0.2867
    174  CB        28.9050    5.5270   63.3100 C.3   281  TYR281      0.0534
    175  CG        29.3540    5.7950   64.7360 C.ar  281  TYR281     -0.0201
    176  CD1       28.7320    6.7660   65.5050 C.ar  281  TYR281     -0.0009
    177  CD2       30.3850    5.0690   65.3140 C.ar  281  TYR281     -0.0009
    178  CE1       29.1200    7.0190   66.8040 C.ar  281  TYR281      0.0417
    179  CE2       30.7880    5.3170   66.6270 C.ar  281  TYR281      0.0417
    180  CZ        30.1490    6.2940   67.3600 C.ar  281  TYR281      0.1957
    181  OH        30.5160    6.5430   68.6540 O.3   281  TYR281     -0.2866
    182  N         33.5340    9.2810   63.2060 N.3   285  LYS285     -0.1245
    183  CA        34.3430    9.2080   64.4240 C.3   285  LYS285      0.1561
    184  C         35.8350    9.2550   64.1090 C.2   285  LYS285      0.2260
    185  O         36.6430    9.5380   64.9950 O.2   285  LYS285     -0.2867
    186  CB        34.0280    7.9410   65.2260 C.3   285  LYS285      0.0271
    187  CG        34.3190    8.0840   66.7150 C.3   285  LYS285      0.0035
    188  CD        35.0260    6.8620   67.2770 C.3   285  LYS285      0.0206
    189  CE        34.8810    6.7900   68.7960 C.3   285  LYS285      0.1093
    190  NZ        33.7490    5.8970   69.2370 N.3   285  LYS285     -0.1314
@<TRIPOS>BOND
     1   170   171    1
     2   171   172    1
     3   171   174    1
     4   172   173    2
     5   182   183    1
     6   174   175    1
     7   184   183    1
     8   184   185    2
     9   183   186    1
    10   175   177   ar
    11   175   176   ar
    12   186   187    1
    13   177   179   ar
    14   176   178   ar
    15   123   122    1
    16   123   124    1
    17   122   120   am
    18   121   120    2
    19   125   124    2
    20   179   180   ar
    21   187   188    1
    22   120   119    1
    23   178   180   ar
    24   124   126   am
    25   139   138    2
    26   188   189    1
    27   180   181    1
    28   119   118    1
    29   138   137    1
    30   118   112   am
    31   126   127    1
    32   152   151    2
    33   133   132    2
    34   151   150    1
    35   129   128    2
    36   117   115    1
    37   189   190    1
    38   137   140    1
    39   137   136    1
    40   112   111    1
    41   112   113    2
    42   132   131    1
    43   140   141    1
    44   127   128    1
    45   128   130   am
    46   107   105   ar
    47   107   108   ar
    48    96    95   ar
    49   111   114    1
    50   111   110    1
    51   101   100    2
    52   114   115    1
    53   105   103   ar
    54   109   108    1
    55   150   149    1
    56   150   153    1
    57    59    58    1
    58   130   131    1
    59   115   116    1
    60   131   134    1
    61   108   106   ar
    62    58    57    1
    63   141   143   ar
    64   141   142   ar
    65   100   110   am
    66   100    99    1
    67    95    94    1
    68    95    97   ar
    69   153   154    1
    70   103   102    1
    71   103   104   ar
    72    94    93    1
    73   134   135    1
    74    57    56    1
    75   106   104   ar
    76   102    99    1
    77    99    98    1
    78     8     7   ar
    79    98    91   am
    80   154   156    1
    81   154   155    1
    82    56    55    1
    83    93    90    1
    84     7     9   ar
    85     7     6    1
    86    91    90    1
    87    91    92    2
    88   144   145    1
    89    90    89    1
    90    74    75    1
    91    75    76    1
    92    75    78    1
    93    55    52    1
    94   145   146    1
    95   145   148    1
    96    80    78    1
    97     6     5    1
    98    25    23    1
    99   146   147    2
   100    76    77    2
   101    78    79    1
   102   157   158    1
   103    23    20    1
   104    23    24    1
   105    26    24    1
   106    89    83   am
   107    52    53    1
   108    52    51    1
   109     5     2    1
   110    60    61    1
   111   161   158    1
   112    84    83    2
   113    22    21    2
   114    53    54    2
   115    20    21    1
   116    20    19    1
   117   158   159    1
   118    83    82    1
   119    64    61    1
   120     1     2    1
   121    61    62    1
   122    13    12    2
   123    21    27    1
   124     2     3    1
   125     4     3    2
   126    19    12   am
   127     3    10   am
   128    12    11    1
   129   159   160    2
   130   159   162   am
   131    82    85    1
   132    82    81    1
   133    85    86    1
   134    27    28    2
   135    62    63    2
   136    10    11    1
   137   162   163    1
   138    28    29    1
   139    11    14    1
   140    88    87    1
   141    49    48    1
   142    86    87    1
   143    47    46    2
   144    14    15    1
   145   166   163    1
   146   166   167    1
   147   163   164    1
   148    48    50    1
   149    48    45    1
   150    46    45    1
   151    15    16    1
   152    29    30    2
   153    29    31   am
   154   165   164    2
   155    31    32    1
   156    45    44    1
   157    16    17    1
   158   167   169   ar
   159   167   168   ar
   160    34    33    2
   161    65    66    1
   162    33    32    1
   163    33    40   am
   164    32    35    1
   165    17    18    1
   166    41    40    1
   167    41    42    1
   168    35    36    1
   169    66    69    1
   170    66    67    1
   171    69    70    1
   172    72    73    1
   173    72    71    1
   174    42    43    2
   175    71    70    1
   176    36    37    1
   177    67    68    2
   178    37    38    1
   179    38    39    1
