@<TRIPOS>MOLECULE
tmp/4qmwA00.pdb
 159 149 0 0 0
SMALL
GASTEIGER

@<TRIPOS>ATOM
      1  N         -8.2760   -1.2940   20.8190 N.3    19  ILE19      -0.1231
      2  CA        -7.8420   -1.7840   19.5060 C.3    19  ILE19       0.1692
      3  C         -6.9910   -3.0410   19.6380 C.2    19  ILE19       0.2593
      4  O         -7.1570   -4.0040   18.8970 O.2    19  ILE19      -0.2718
      5  CB        -6.9800   -0.7480   18.7490 C.3    19  ILE19       0.0266
      6  CG1       -7.7460    0.5320   18.4540 C.3    19  ILE19       0.0019
      7  CG2       -6.4700   -1.3420   17.4390 C.3    19  ILE19       0.0020
      8  CD1       -6.8880    1.5540   17.7190 C.3    19  ILE19       0.0001
      9  N         -6.0580   -3.0160   20.5790 N.am   20  GLY20      -0.1942
     10  CA        -5.1640   -4.1430   20.7720 C.3    20  GLY20       0.2014
     11  C         -4.0990   -3.8620   21.8080 C.2    20  GLY20       0.2639
     12  O         -4.1000   -2.8130   22.4480 O.2    20  GLY20      -0.2714
     13  N         -3.1910   -4.8130   21.9900 N.am   21  LYS21      -0.1963
     14  CA        -2.0810   -4.6160   22.9050 C.3    21  LYS21       0.1728
     15  C         -0.9350   -3.9470   22.1650 C.2    21  LYS21       0.2617
     16  O         -0.5710   -4.3580   21.0640 O.2    21  LYS21      -0.2715
     17  CB        -1.6290   -5.9520   23.5070 C.3    21  LYS21       0.0311
     18  CG        -0.3090   -5.8790   24.2670 C.3    21  LYS21       0.0038
     19  CD         0.0050   -7.1720   25.0220 C.3    21  LYS21       0.0206
     20  CE        -1.2280   -7.7740   25.6930 C.3    21  LYS21       0.1093
     21  NZ        -1.9030   -6.8270   26.6300 N.3    21  LYS21      -0.1314
     22  N         -0.3750   -2.9030   22.7660 N.am   22  GLY22      -0.1940
     23  CA         0.7970   -2.2600   22.2120 C.3    22  GLY22       0.2014
     24  C          2.0350   -2.8440   22.8490 C.2    22  GLY22       0.2639
     25  O          1.9380   -3.7480   23.6840 O.2    22  GLY22      -0.2714
     26  N          3.1970   -2.3300   22.4640 N.am   23  SER23      -0.1949
     27  CA         4.4550   -2.8550   22.9780 C.3    23  SER23       0.1924
     28  C          4.5240   -2.8050   24.5050 C.2    23  SER23       0.2314
     29  O          5.0750   -3.7180   25.1260 O.2    23  SER23      -0.2863
     30  CB         5.6420   -2.1040   22.3590 C.3    23  SER23       0.2116
     31  OG         5.4050   -0.7090   22.3100 O.3    23  SER23      -0.2180
     32  N         -3.7630   -0.2030   23.4000 N.3    27  VAL27      -0.1245
     33  CA        -4.0270    0.8780   22.4540 C.3    27  VAL27       0.1561
     34  C         -5.5300    0.9680   22.2280 C.2    27  VAL27       0.2260
     35  O         -6.1790   -0.0440   21.9860 O.2    27  VAL27      -0.2867
     36  CB        -3.3050    0.6590   21.1140 C.3    27  VAL27       0.0252
     37  CG1       -3.5610    1.8330   20.1720 C.3    27  VAL27       0.0019
     38  CG2       -1.7970    0.4500   21.3520 C.3    27  VAL27       0.0019
     39  N         -5.3210    7.4490   17.8690 N.3    40  ALA40      -0.1245
     40  CA        -5.0220    6.2670   18.6730 C.3    40  ALA40       0.1562
     41  C         -4.4310    6.7190   19.9980 C.2    40  ALA40       0.2260
     42  O         -3.6490    7.6750   20.0430 O.2    40  ALA40      -0.2867
     43  CB        -4.0620    5.3310   17.9430 C.3    40  ALA40       0.0290
     44  N         -2.4280    5.2170   23.2940 N.3    42  LYS42      -0.1245
     45  CA        -1.7560    4.1270   23.9860 C.3    42  LYS42       0.1561
     46  C         -1.7050    4.4850   25.4660 C.2    42  LYS42       0.2260
     47  O         -1.1790    5.5380   25.8390 O.2    42  LYS42      -0.2867
     48  CB        -0.3560    3.8920   23.4180 C.3    42  LYS42       0.0271
     49  CG         0.3880    2.7630   24.1120 C.3    42  LYS42       0.0035
     50  CD         1.8480    2.7590   23.6820 C.3    42  LYS42       0.0206
     51  CE         2.1190    1.7430   22.6040 C.3    42  LYS42       0.1093
     52  NZ         3.5570    1.7690   22.1850 N.3    42  LYS42      -0.1314
     53  N         10.1790    5.8940   23.6120 N.3    59  GLU59      -0.1245
     54  CA         9.1180    5.9990   22.6160 C.3    59  GLU59       0.1567
     55  C          8.5810    7.4260   22.5200 C.2    59  GLU59       0.2260
     56  O          8.4000    7.9710   21.4260 O.2    59  GLU59      -0.2867
     57  CB         7.9710    5.0350   22.9300 C.3    59  GLU59       0.0388
     58  CG         6.7430    5.2830   22.0590 C.3    59  GLU59       0.1160
     59  CD         6.2290    4.0330   21.3730 C.2    59  GLU59       0.3649
     60  OE1        5.4850    3.2660   22.0050 O.co2  59  GLU59      -0.2457
     61  OE2        6.5740    3.8200   20.1970 O.co2  59  GLU59      -0.2457
     62  N          8.9450    9.8220   19.2700 N.3    63  LEU63      -0.1245
     63  CA         7.7000   10.3040   18.6600 C.3    63  LEU63       0.1561
     64  C          7.6630   11.8220   18.6340 C.2    63  LEU63       0.2260
     65  O          7.3050   12.4350   17.6300 O.2    63  LEU63      -0.2867
     66  CB         6.4630    9.7800   19.4130 C.3    63  LEU63       0.0270
     67  CG         5.9510    8.3760   19.0780 C.3    63  LEU63       0.0019
     68  CD1        4.8790    7.9240   20.0620 C.3    63  LEU63       0.0001
     69  CD2        5.4200    8.3430   17.6580 C.3    63  LEU63       0.0001
     70  N          4.6470    7.5250   12.2880 N.3    72  THR72      -0.1218
     71  CA         3.4000    7.7590   13.0180 C.3    72  THR72       0.1862
     72  C          3.3910    9.1300   13.6950 C.2    72  THR72       0.2287
     73  O          4.2680    9.4430   14.5000 O.2    72  THR72      -0.2866
     74  CB         3.1820    6.6640   14.0730 C.3    72  THR72       0.1770
     75  OG1        3.1560    5.3870   13.4240 O.3    72  THR72      -0.2211
     76  CG2        1.8630    6.8840   14.8270 C.3    72  THR72       0.0375
     77  N         -1.6900    9.4990   19.3280 N.3    88  MET88      -0.1230
     78  CA        -1.0390    9.3780   18.0340 C.3    88  MET88       0.1702
     79  C         -2.0400    9.3830   16.8970 C.2    88  MET88       0.2592
     80  O         -3.2340    9.2050   17.1030 O.2    88  MET88      -0.2718
     81  CB        -0.2530    8.0700   17.9400 C.3    88  MET88       0.0401
     82  CG         0.8030    7.8480   18.9730 C.3    88  MET88       0.0596
     83  SD         1.1790    6.0710   18.9110 S.3    88  MET88      -0.1393
     84  CE        -0.1160    5.3830   19.9330 C.3    88  MET88       0.0692
     85  N         -1.5070    9.5400   15.6930 N.am   89  GLU89      -0.1966
     86  CA        -2.2220    9.2750   14.4560 C.3    89  GLU89       0.1733
     87  C         -2.9280    7.9140   14.4880 C.2    89  GLU89       0.2616
     88  O         -2.3130    6.9240   14.8740 O.2    89  GLU89      -0.2715
     89  CB        -1.2040    9.3350   13.3130 C.3    89  GLU89       0.0429
     90  CG        -1.7110    9.0070   11.9550 C.3    89  GLU89       0.1163
     91  CD        -0.6800    9.3130   10.8970 C.2    89  GLU89       0.3649
     92  OE1        0.5290    9.3430   11.2210 O.co2  89  GLU89      -0.2457
     93  OE2       -1.0750    9.5290    9.7350 O.co2  89  GLU89      -0.2457
     94  N         -4.2070    7.8610   14.1110 N.am   90  TYR90      -0.1960
     95  CA        -4.9030    6.5810   13.9630 C.3    90  TYR90       0.1771
     96  C         -4.5860    5.9760   12.5990 C.2    90  TYR90       0.2619
     97  O         -4.8290    6.6030   11.5630 O.2    90  TYR90      -0.2715
     98  CB        -6.4220    6.7420   14.1160 C.3    90  TYR90       0.0574
     99  CG        -7.1690    5.4500   13.8600 C.ar   90  TYR90      -0.0198
    100  CD1       -7.0910    4.3940   14.7590 C.ar   90  TYR90      -0.0009
    101  CD2       -7.9340    5.2810   12.7120 C.ar   90  TYR90      -0.0009
    102  CE1       -7.7620    3.1960   14.5260 C.ar   90  TYR90       0.0417
    103  CE2       -8.6110    4.0950   12.4760 C.ar   90  TYR90       0.0417
    104  CZ        -8.5230    3.0610   13.3810 C.ar   90  TYR90       0.1957
    105  OH        -9.1980    1.8800   13.1390 O.3    90  TYR90      -0.2866
    106  N         -4.0400    4.7660   12.5950 N.am   91  LEU91      -0.1977
    107  CA        -3.7130    4.0900   11.3440 C.3    91  LEU91       0.1596
    108  C         -4.5690    2.8370   11.2500 C.2    91  LEU91       0.2287
    109  O         -4.2550    1.8200   11.8520 O.2    91  LEU91      -0.2864
    110  CB        -2.2080    3.7670   11.2810 C.3    91  LEU91       0.0297
    111  CG        -1.3420    5.0370   11.2720 C.3    91  LEU91       0.0022
    112  CD1        0.1270    4.7030   11.4690 C.3    91  LEU91       0.0001
    113  CD2       -1.5590    5.7920    9.9690 C.3    91  LEU91       0.0001
    114  N         -1.5660   -3.6930    9.8670 N.3    95  SER95      -0.1217
    115  CA        -0.1120   -3.7330    9.6930 C.3    95  SER95       0.1889
    116  C          0.2190   -4.4590    8.3970 C.2    95  SER95       0.2288
    117  O         -0.6120   -5.1910    7.8710 O.2    95  SER95      -0.2866
    118  CB         0.5630   -4.4310   10.8670 C.3    95  SER95       0.2089
    119  OG         0.4420   -5.8420   10.7430 O.3    95  SER95      -0.2183
    120  N         -0.4360   -8.0170    8.9290 N.3    98  ASP98      -0.1239
    121  CA        -1.8670   -8.3350    8.8270 C.3    98  ASP98       0.1674
    122  C         -2.2700   -8.5440    7.3770 C.2    98  ASP98       0.2266
    123  O         -3.0100   -9.4790    7.0320 O.2    98  ASP98      -0.2867
    124  CB        -2.7190   -7.2090    9.4170 C.3    98  ASP98       0.1410
    125  CG        -2.5440   -7.0480   10.8980 C.2    98  ASP98       0.3668
    126  OD1       -2.2230   -8.0410   11.5820 O.co2  98  ASP98      -0.2456
    127  OD2       -2.7470   -5.9090   11.3840 O.co2  98  ASP98      -0.2456
    128  N          2.6560    0.1450    9.7300 N.3   140  LEU140     -0.1245
    129  CA         1.2060    0.3090    9.8140 C.3   140  LEU140      0.1561
    130  C          0.6750    1.1340    8.6590 C.2   140  LEU140      0.2260
    131  O          1.2870    2.1100    8.2310 O.2   140  LEU140     -0.2867
    132  CB         0.8080    0.9720   11.1380 C.3   140  LEU140      0.0270
    133  CG         1.1250    0.2560   12.4500 C.3   140  LEU140      0.0019
    134  CD1        0.5410    1.0130   13.6380 C.3   140  LEU140      0.0001
    135  CD2        0.6170   -1.1700   12.4290 C.3   140  LEU140      0.0001
    136  N          6.0530    2.3430   12.9190 N.3   150  ALA150     -0.1231
    137  CA         5.5120    2.3610   14.2850 C.3   150  ALA150      0.1694
    138  C          6.4530    1.6750   15.2810 C.2   150  ALA150      0.2592
    139  O          7.4130    1.0160   14.8770 O.2   150  ALA150     -0.2718
    140  CB         4.1470    1.6950   14.3190 C.3   150  ALA150      0.0304
    141  N          6.1640    1.8470   16.5720 N.am  151  ASP151     -0.1960
    142  CA         6.7960    1.0980   17.6660 C.3   151  ASP151      0.1840
    143  C          8.2610    1.5010   17.8670 C.2   151  ASP151      0.2622
    144  O          9.1680    0.8550   17.3410 O.2   151  ASP151     -0.2715
    145  CB         6.6570   -0.4100   17.4010 C.3   151  ASP151      0.1450
    146  CG         6.9950   -1.2600   18.6110 C.2   151  ASP151      0.3671
    147  OD1        7.1720   -0.6950   19.7100 O.co2 151  ASP151     -0.2456
    148  OD2        7.0730   -2.5030   18.4590 O.co2 151  ASP151     -0.2456
    149  N          8.4750    2.5570   18.6510 N.am  152  PHE152     -0.1974
    150  CA         9.7970    3.1670   18.7970 C.3   152  PHE152      0.1639
    151  C         10.4160    2.9800   20.1920 C.2   152  PHE152      0.2290
    152  O         11.3730    3.6740   20.5580 O.2   152  PHE152     -0.2864
    153  CB         9.6970    4.6570   18.4340 C.3   152  PHE152      0.0560
    154  CG         9.4890    4.9000   16.9550 C.ar  152  PHE152     -0.0200
    155  CD1        8.2430    4.7570   16.3730 C.ar  152  PHE152     -0.0042
    156  CD2       10.5570    5.2390   16.1420 C.ar  152  PHE152     -0.0042
    157  CE1        8.0700    4.9690   15.0070 C.ar  152  PHE152     -0.0003
    158  CE2       10.3860    5.4540   14.7910 C.ar  152  PHE152     -0.0003
    159  CZ         9.1390    5.3100   14.2230 C.ar  152  PHE152     -0.0000
@<TRIPOS>BOND
     1   123   122    2
     2   122   121    1
     3   117   116    2
     4   131   130    2
     5   116   115    1
     6   130   129    1
     7   121   120    1
     8   121   124    1
     9   124   125    1
    10   115   114    1
    11   115   118    1
    12   128   129    1
    13    93    91   ar
    14   129   132    1
    15   113   111    1
    16   119   118    1
    17    91    92   ar
    18    91    90    1
    19   125   127   ar
    20   125   126   ar
    21   132   133    1
    22   108   107    1
    23   108   109    2
    24   111   110    1
    25   111   112    1
    26   110   107    1
    27   107   106    1
    28    97    96    2
    29    90    89    1
    30    70    71    1
    31   135   133    1
    32   133   134    1
    33   103   101   ar
    34   103   104   ar
    35   106    96   am
    36    96    95    1
    37   101    99   ar
    38   136   137    1
    39    71    72    1
    40    71    74    1
    41   105   104    1
    42    89    86    1
    43   104   102   ar
    44    75    74    1
    45    72    73    2
    46    99    98    1
    47    99   100   ar
    48    95    94    1
    49    95    98    1
    50    74    76    1
    51    94    87   am
    52   159   158   ar
    53   159   157   ar
    54   137   140    1
    55   137   138    1
    56    86    87    1
    57    86    85    1
    58    87    88    2
    59   102   100   ar
    60   158   156   ar
    61   139   138    2
    62   157   155   ar
    63   138   141   am
    64    85    79   am
    65   156   154   ar
    66   155   154   ar
    67   141   142    1
    68    79    80    2
    69    79    78    1
    70   154   153    1
    71   144   143    2
    72   145   142    1
    73   145   146    1
    74     7     5    1
    75    65    64    2
    76    69    67    1
    77   142   143    1
    78     8     6    1
    79   143   149   am
    80    39    40    1
    81    81    78    1
    82    81    82    1
    83    43    40    1
    84    78    77    1
    85   153   150    1
    86     6     5    1
    87   148   146   ar
    88   146   147   ar
    89    64    63    1
    90   149   150    1
    91    63    62    1
    92    63    66    1
    93    40    41    1
    94     5     2    1
    95   150   151    1
    96     4     3    2
    97    83    82    1
    98    83    84    1
    99    67    66    1
   100    67    68    1
   101     2     3    1
   102     2     1    1
   103     3     9   am
   104    41    42    2
   105    37    36    1
   106   151   152    2
   107    61    59   ar
   108     9    10    1
   109    10    11    1
   110    16    15    2
   111    36    38    1
   112    36    33    1
   113    59    60   ar
   114    59    58    1
   115    56    55    2
   116    11    13   am
   117    11    12    2
   118    35    34    2
   119    13    14    1
   120    58    57    1
   121    15    22   am
   122    15    14    1
   123    52    51    1
   124    23    22    1
   125    23    24    1
   126    34    33    1
   127    31    30    1
   128    30    27    1
   129    33    32    1
   130    26    24   am
   131    26    27    1
   132    55    54    1
   133    51    50    1
   134    54    57    1
   135    54    53    1
   136    24    25    2
   137    14    17    1
   138    27    28    1
   139    44    45    1
   140    48    45    1
   141    48    49    1
   142    17    18    1
   143    50    49    1
   144    45    46    1
   145    18    19    1
   146    28    29    2
   147    19    20    1
   148    46    47    2
   149    20    21    1
