@<TRIPOS>MOLECULE
tmp/4qmxA00.pdb
 197 185 0 0 0
SMALL
GASTEIGER

@<TRIPOS>ATOM
      1  N         16.5740    6.5030   77.3520 N.3    19  ILE19      -0.1231
      2  CA        16.7980    6.0550   75.9760 C.3    19  ILE19       0.1692
      3  C         18.0850    5.2560   75.8310 C.2    19  ILE19       0.2593
      4  O         18.4810    4.9030   74.7210 O.2    19  ILE19      -0.2718
      5  CB        16.8500    7.2360   74.9800 C.3    19  ILE19       0.0266
      6  CG1       18.0090    8.1820   75.3200 C.3    19  ILE19       0.0019
      7  CG2       15.5200    7.9760   74.9430 C.3    19  ILE19       0.0020
      8  CD1       18.1570    9.3330   74.3440 C.3    19  ILE19       0.0001
      9  N         18.7420    4.9720   76.9480 N.am   20  GLY20      -0.1942
     10  CA        19.9570    4.1840   76.9080 C.3    20  GLY20       0.2014
     11  C         20.7940    4.2720   78.1680 C.2    20  GLY20       0.2639
     12  O         20.4060    4.9050   79.1530 O.2    20  GLY20      -0.2714
     13  N         21.9450    3.6130   78.1390 N.am   21  LYS21      -0.1963
     14  CA        22.8990    3.7080   79.2330 C.3    21  LYS21       0.1728
     15  C         24.2530    4.1320   78.6720 C.2    21  LYS21       0.2616
     16  O         24.6860    3.6350   77.6320 O.2    21  LYS21      -0.2715
     17  CB        23.0090    2.3820   79.9960 C.3    21  LYS21       0.0311
     18  CG        22.7700    2.5300   81.4970 C.3    21  LYS21       0.0038
     19  CD        23.3480    1.3730   82.2970 C.3    21  LYS21       0.0206
     20  CE        22.4010    0.1860   82.3330 C.3    21  LYS21       0.1093
     21  NZ        22.6670   -0.6990   83.5060 N.3    21  LYS21      -0.1314
     22  N         24.9020    5.0690   79.3550 N.am   22  GLY22      -0.1955
     23  CA        26.1720    5.6040   78.8970 C.3    22  GLY22       0.1869
     24  C         27.3490    5.0440   79.6690 C.2    22  GLY22       0.2309
     25  O         28.4080    5.6730   79.7490 O.2    22  GLY22      -0.2863
     26  N         21.0880    7.6060   80.1270 N.3    27  VAL27      -0.1245
     27  CA        20.8350    8.6600   79.1470 C.3    27  VAL27       0.1561
     28  C         19.3270    8.8090   78.9470 C.2    27  VAL27       0.2260
     29  O         18.6080    7.8180   78.7880 O.2    27  VAL27      -0.2867
     30  CB        21.5310    8.3710   77.7990 C.3    27  VAL27       0.0252
     31  CG1       21.3340    9.5350   76.8160 C.3    27  VAL27       0.0019
     32  CG2       23.0120    8.1030   78.0220 C.3    27  VAL27       0.0019
     33  N         19.8140   15.2010   74.4590 N.3    40  ALA40      -0.1245
     34  CA        20.1530   13.9620   75.1440 C.3    40  ALA40       0.1562
     35  C         20.8020   14.3320   76.4740 C.2    40  ALA40       0.2260
     36  O         21.7350   15.1400   76.5140 O.2    40  ALA40      -0.2867
     37  CB        21.0880   13.1050   74.3000 C.3    40  ALA40       0.0290
     38  N         22.6860   12.9500   79.8510 N.3    42  LYS42      -0.1245
     39  CA        23.3390   11.8880   80.5990 C.3    42  LYS42       0.1561
     40  C         23.4050   12.2680   82.0660 C.2    42  LYS42       0.2260
     41  O         24.0220   13.2730   82.4210 O.2    42  LYS42      -0.2867
     42  CB        24.7460   11.6080   80.0720 C.3    42  LYS42       0.0271
     43  CG        25.3730   10.4020   80.7410 C.3    42  LYS42       0.0035
     44  CD        26.5900    9.8970   79.9860 C.3    42  LYS42       0.0206
     45  CE        27.6920   10.9350   79.9590 C.3    42  LYS42       0.1093
     46  NZ        28.9510   10.3580   79.4250 N.3    42  LYS42      -0.1314
     47  N         35.7220   14.0120   80.3920 N.3    59  GLU59      -0.1245
     48  CA        34.7030   14.0630   79.3440 C.3    59  GLU59       0.1567
     49  C         34.1250   15.4730   79.1990 C.2    59  GLU59       0.2260
     50  O         34.0350   15.9970   78.0870 O.2    59  GLU59      -0.2867
     51  CB        33.5740   13.0670   79.6130 C.3    59  GLU59       0.0388
     52  CG        32.4690   13.1440   78.5600 C.3    59  GLU59       0.1160
     53  CD        31.4490   12.0330   78.6800 C.2    59  GLU59       0.3649
     54  OE1       31.6260   11.1450   79.5370 O.co2  59  GLU59      -0.2457
     55  OE2       30.4730   12.0320   77.8960 O.co2  59  GLU59      -0.2457
     56  N         29.4670   15.5630   68.5300 N.3    72  THR72      -0.1218
     57  CA        28.2270   15.7980   69.2730 C.3    72  THR72       0.1862
     58  C         28.2900   17.1120   70.0360 C.2    72  THR72       0.2287
     59  O         29.1740   17.3080   70.8650 O.2    72  THR72      -0.2866
     60  CB        27.9310   14.6650   70.2660 C.3    72  THR72       0.1770
     61  OG1       29.0930   14.4260   71.0750 O.3    72  THR72      -0.2211
     62  CG2       27.5510   13.3930   69.5140 C.3    72  THR72       0.0375
     63  N         24.7170   16.0310   82.0580 N.3    86  ILE86      -0.1245
     64  CA        25.5110   16.4310   80.9150 C.3    86  ILE86       0.1561
     65  C         24.5770   16.4530   79.7200 C.2    86  ILE86       0.2260
     66  O         24.0860   15.4120   79.2930 O.2    86  ILE86      -0.2867
     67  CB        26.6880   15.4700   80.6810 C.3    86  ILE86       0.0252
     68  CG1       27.5640   15.4220   81.9410 C.3    86  ILE86       0.0019
     69  CG2       27.4940   15.9000   79.4600 C.3    86  ILE86       0.0019
     70  CD1       28.4710   14.2040   82.0260 C.3    86  ILE86       0.0001
     71  N         23.4110   17.3130   75.8870 N.3    88  MET88      -0.1230
     72  CA        23.9910   17.3390   74.5580 C.3    88  MET88       0.1702
     73  C         22.9300   17.2650   73.4740 C.2    88  MET88       0.2592
     74  O         21.7490   17.1000   73.7580 O.2    88  MET88      -0.2718
     75  CB        24.9670   16.1870   74.4050 C.3    88  MET88       0.0401
     76  CG        25.8620   16.0870   75.5950 C.3    88  MET88       0.0596
     77  SD        27.3900   15.3280   75.2230 S.3    88  MET88      -0.1393
     78  CE        28.0110   16.3380   73.8790 C.3    88  MET88       0.0692
     79  N         23.3540   17.3940   72.2260 N.am   89  GLU89      -0.1966
     80  CA        22.3900   17.3270   71.1480 C.3    89  GLU89       0.1733
     81  C         21.8910   15.8950   71.0360 C.2    89  GLU89       0.2616
     82  O         22.6110   14.9430   71.3100 O.2    89  GLU89      -0.2715
     83  CB        22.9880   17.8190   69.8260 C.3    89  GLU89       0.0429
     84  CG        23.8230   16.8230   69.0490 C.3    89  GLU89       0.1163
     85  CD        24.3610   17.4240   67.7530 C.2    89  GLU89       0.3649
     86  OE1       23.5570   17.7440   66.8530 O.co2  89  GLU89      -0.2457
     87  OE2       25.5880   17.6100   67.6540 O.co2  89  GLU89      -0.2457
     88  N         20.6190   15.7610   70.6930 N.am   90  TYR90      -0.1960
     89  CA        20.0180   14.4610   70.4930 C.3    90  TYR90       0.1771
     90  C         20.2160   14.0640   69.0390 C.2    90  TYR90       0.2619
     91  O         19.9740   14.8760   68.1520 O.2    90  TYR90      -0.2715
     92  CB        18.5390   14.5260   70.8470 C.3    90  TYR90       0.0574
     93  CG        17.7420   13.3050   70.4690 C.ar   90  TYR90      -0.0198
     94  CD1       17.6680   12.2170   71.3260 C.ar   90  TYR90      -0.0009
     95  CD2       17.0410   13.2480   69.2590 C.ar   90  TYR90      -0.0009
     96  CE1       16.9300   11.1000   70.9980 C.ar   90  TYR90       0.0417
     97  CE2       16.2940   12.1270   68.9210 C.ar   90  TYR90       0.0417
     98  CZ        16.2440   11.0630   69.7980 C.ar   90  TYR90       0.1957
     99  OH        15.5190    9.9430   69.4910 O.3    90  TYR90      -0.2866
    100  N         20.6730   12.8420   68.7940 N.am   91  LEU91      -0.1963
    101  CA        20.8170   12.3460   67.4280 C.3    91  LEU91       0.1728
    102  C         19.9180   11.1260   67.2440 C.2    91  LEU91       0.2617
    103  O         20.1370   10.0790   67.8540 O.2    91  LEU91      -0.2715
    104  CB        22.2800   12.0210   67.1230 C.3    91  LEU91       0.0311
    105  CG        23.1660   13.2780   67.0990 C.3    91  LEU91       0.0022
    106  CD1       24.6340   12.9160   67.0720 C.3    91  LEU91       0.0001
    107  CD2       22.8090   14.1370   65.9000 C.3    91  LEU91       0.0001
    108  N         18.9020   11.2760   66.4020 N.am   92  GLY92      -0.1940
    109  CA        17.8280   10.3030   66.3240 C.3    92  GLY92       0.2014
    110  C         17.9930    9.1530   65.3490 C.2    92  GLY92       0.2639
    111  O         17.1120    8.3030   65.2580 O.2    92  GLY92      -0.2714
    112  N         19.1120    9.1040   64.6310 N.am   93  GLY93      -0.1939
    113  CA        19.2650    8.1170   63.5720 C.3    93  GLY93       0.2014
    114  C         19.9280    6.8210   64.0160 C.2    93  GLY93       0.2639
    115  O         20.0380    5.8790   63.2400 O.2    93  GLY93      -0.2714
    116  N         20.3670    6.7770   65.2660 N.am   94  GLY94      -0.1939
    117  CA        21.0150    5.5900   65.8030 C.3    94  GLY94       0.2014
    118  C         22.5180    5.6410   65.5730 C.2    94  GLY94       0.2639
    119  O         23.0310    6.6220   65.0420 O.2    94  GLY94      -0.2714
    120  N         23.2370    4.6010   65.9850 N.am   95  SER95      -0.1949
    121  CA        24.6760    4.5860   65.7720 C.3    95  SER95       0.1924
    122  C         24.9780    3.8540   64.4720 C.2    95  SER95       0.2314
    123  O         24.1170    3.1490   63.9310 O.2    95  SER95      -0.2863
    124  CB        25.3940    3.9110   66.9410 C.3    95  SER95       0.2116
    125  OG        25.1160    2.5230   66.9200 O.3    95  SER95      -0.2180
    126  N         24.2990    0.2430   65.0400 N.3    98  ASP98      -0.1239
    127  CA        22.8760   -0.0350   64.8500 C.3    98  ASP98       0.1674
    128  C         22.5490   -0.2500   63.3940 C.2    98  ASP98       0.2266
    129  O         21.8140   -1.1880   63.0410 O.2    98  ASP98      -0.2867
    130  CB        22.0010    1.1200   65.3580 C.3    98  ASP98       0.1410
    131  CG        22.0560    1.2810   66.8360 C.2    98  ASP98       0.3668
    132  OD1       22.2990    0.2750   67.5230 O.co2  98  ASP98      -0.2456
    133  OD2       21.8600    2.4190   67.3160 O.co2  98  ASP98      -0.2456
    134  N         29.9750    1.9370   67.1920 N.3   137  ALA137     -0.1231
    135  CA        29.0300    2.2300   68.2730 C.3   137  ALA137      0.1694
    136  C         29.1330    3.6760   68.7640 C.2   137  ALA137      0.2592
    137  O         28.1840    4.1830   69.3480 O.2   137  ALA137     -0.2718
    138  CB        29.2350    1.2750   69.4360 C.3   137  ALA137      0.0304
    139  N         30.2790    4.3240   68.5290 N.am  138  ASN138     -0.1974
    140  CA        30.5010    5.7120   68.9560 C.3   138  ASN138      0.1688
    141  C         30.4180    6.7140   67.8070 C.2   138  ASN138      0.2292
    142  O         30.8850    7.8590   67.9150 O.2   138  ASN138     -0.2864
    143  CB        31.8580    5.8260   69.6610 C.3   138  ASN138      0.1181
    144  CG        31.8490    5.1570   71.0270 C.2   138  ASN138      0.2629
    145  OD1       30.7860    4.9420   71.5960 O.2   138  ASN138     -0.2716
    146  ND2       33.0220    4.8260   71.5510 N.am  138  ASN138     -0.0877
    147  N         27.4300    8.4150   65.8110 N.3   140  LEU140     -0.1245
    148  CA        25.9730    8.5980   65.8570 C.3   140  LEU140      0.1561
    149  C         25.4730    9.4090   64.6660 C.2   140  LEU140      0.2260
    150  O         26.1660   10.3010   64.1740 O.2   140  LEU140     -0.2867
    151  CB        25.5480    9.2920   67.1600 C.3   140  LEU140      0.0270
    152  CG        25.9400    8.6140   68.4820 C.3   140  LEU140      0.0019
    153  CD1       25.3750    9.3580   69.6750 C.3   140  LEU140      0.0001
    154  CD2       25.4600    7.1700   68.4830 C.3   140  LEU140      0.0001
    155  N         30.8500   10.5620   68.9190 N.3   150  ALA150     -0.1231
    156  CA        30.2490   10.6160   70.2450 C.3   150  ALA150      0.1694
    157  C         31.0930    9.8740   71.2830 C.2   150  ALA150      0.2592
    158  O         32.0490    9.1700   70.9470 O.2   150  ALA150     -0.2718
    159  CB        28.8410   10.0310   70.1980 C.3   150  ALA150      0.0304
    160  N         30.7180   10.0470   72.5440 N.am  151  ASP151     -0.1974
    161  CA        31.3270    9.3800   73.7010 C.3   151  ASP151      0.1709
    162  C         32.7990    9.7040   73.8310 C.2   151  ASP151      0.2293
    163  O         33.6790    8.9540   73.3710 O.2   151  ASP151     -0.2864
    164  CB        31.1320    7.8700   73.6630 C.3   151  ASP151      0.1436
    165  CG        31.3530    7.2270   75.0300 C.2   151  ASP151      0.3671
    166  OD1       31.9740    7.8710   75.9140 O.co2 151  ASP151     -0.2456
    167  OD2       30.9120    6.0780   75.2210 O.co2 151  ASP151     -0.2456
    168  N         16.9710    0.4260   59.3690 N.3   279  TYR279     -0.1227
    169  CA        17.0230    0.0410   60.7690 C.3   279  TYR279      0.1736
    170  C         15.6670    0.1690   61.4680 C.2   279  TYR279      0.2595
    171  O         15.2800   -0.7230   62.2220 O.2   279  TYR279     -0.2718
    172  CB        18.0630    0.8710   61.5260 C.3   279  TYR279      0.0548
    173  CG        18.1480    0.5070   62.9980 C.ar  279  TYR279     -0.0200
    174  CD1       18.7960   -0.6500   63.4040 C.ar  279  TYR279     -0.0009
    175  CD2       17.5670    1.3080   63.9760 C.ar  279  TYR279     -0.0009
    176  CE1       18.8760   -1.0040   64.7420 C.ar  279  TYR279      0.0417
    177  CE2       17.6490    0.9630   65.3270 C.ar  279  TYR279      0.0417
    178  CZ        18.3080   -0.1940   65.6960 C.ar  279  TYR279      0.1957
    179  OH        18.3990   -0.5560   67.0220 O.3   279  TYR279     -0.2866
    180  N         14.9540    1.2720   61.2420 N.am  280  LYS280     -0.1980
    181  CA        13.6710    1.4710   61.9170 C.3   280  LYS280      0.1596
    182  C         12.6950    0.3580   61.5530 C.2   280  LYS280      0.2287
    183  O         12.0130   -0.1890   62.4110 O.2   280  LYS280     -0.2864
    184  CB        13.0640    2.8370   61.5600 C.3   280  LYS280      0.0298
    185  CG        13.7890    4.0080   62.2130 C.3   280  LYS280      0.0038
    186  CD        13.4960    5.3200   61.5130 C.3   280  LYS280      0.0206
    187  CE        12.1070    5.8020   61.8250 C.3   280  LYS280      0.1093
    188  NZ        11.7400    7.0710   61.0910 N.3   280  LYS280     -0.1314
    189  N         14.0260   -2.9440   63.1770 N.3   283  LYS283     -0.1245
    190  CA        13.8050   -2.8860   64.6150 C.3   283  LYS283      0.1561
    191  C         12.3310   -3.0760   64.9710 C.2   283  LYS283      0.2260
    192  O         11.9900   -3.7290   65.9640 O.2   283  LYS283     -0.2867
    193  CB        14.3150   -1.5490   65.1560 C.3   283  LYS283      0.0271
    194  CG        14.4980   -1.5220   66.6480 C.3   283  LYS283      0.0035
    195  CD        15.3790   -2.6730   67.1010 C.3   283  LYS283      0.0206
    196  CE        15.6530   -2.5810   68.5840 C.3   283  LYS283      0.1093
    197  NZ        16.2710   -1.2630   68.9120 N.3   283  LYS283     -0.1314
@<TRIPOS>BOND
     1   168   169    1
     2   169   170    1
     3   169   172    1
     4   188   187    1
     5   180   170   am
     6   180   181    1
     7   170   171    2
     8   186   187    1
     9   186   185    1
    10   172   173    1
    11   182   181    1
    12   182   183    2
    13   184   181    1
    14   184   185    1
    15   173   174   ar
    16   173   175   ar
    17   129   128    2
    18   189   190    1
    19   115   114    2
    20   128   127    1
    21   174   176   ar
    22   113   114    1
    23   113   112    1
    24   123   122    2
    25   175   177   ar
    26   114   116   am
    27   150   149    2
    28   122   121    1
    29   190   191    1
    30   190   193    1
    31   112   110   am
    32   149   148    1
    33   176   178   ar
    34   127   126    1
    35   127   130    1
    36   191   192    2
    37   119   118    2
    38   193   194    1
    39   111   110    2
    40   116   117    1
    41   177   178   ar
    42   110   109    1
    43   130   131    1
    44   118   117    1
    45   118   120   am
    46   178   179    1
    47   121   120    1
    48   121   124    1
    49   147   148    1
    50   148   151    1
    51   107   105    1
    52   109   108    1
    53   108   102   am
    54   194   195    1
    55   131   133   ar
    56   131   132   ar
    57    86    85   ar
    58   125   124    1
    59   106   105    1
    60   105   104    1
    61   195   196    1
    62   104   101    1
    63   151   152    1
    64   134   135    1
    65   102   101    1
    66   102   103    2
    67   101   100    1
    68    87    85   ar
    69    85    84    1
    70   141   142    2
    71   141   140    1
    72    91    90    2
    73   135   136    1
    74   135   138    1
    75   152   154    1
    76   152   153    1
    77   139   136   am
    78   139   140    1
    79    56    57    1
    80   196   197    1
    81   136   137    2
    82   100    90   am
    83   155   156    1
    84    97    95   ar
    85    97    98   ar
    86   140   143    1
    87    90    89    1
    88    84    83    1
    89    95    93   ar
    90    57    58    1
    91    57    60    1
    92    99    98    1
    93    62    60    1
    94   143   144    1
    95    98    96   ar
    96    83    80    1
    97    58    59    2
    98   159   156    1
    99   156   157    1
   100    60    61    1
   101    93    92    1
   102    93    94   ar
   103    89    88    1
   104    89    92    1
   105    88    81   am
   106   158   157    2
   107    96    94   ar
   108   144   146   am
   109   144   145    2
   110    81    80    1
   111    81    82    2
   112    80    79    1
   113   157   160   am
   114    79    73   am
   115   160   161    1
   116   163   162    2
   117    73    74    2
   118    73    72    1
   119   164   161    1
   120   164   165    1
   121   161   162    1
   122    78    77    1
   123    37    34    1
   124     8     6    1
   125    75    72    1
   126    75    76    1
   127    33    34    1
   128    72    71    1
   129     4     3    2
   130     7     5    1
   131     5     6    1
   132     5     2    1
   133   165   167   ar
   134   165   166   ar
   135    34    35    1
   136    77    76    1
   137     3     2    1
   138     3     9   am
   139     2     1    1
   140    35    36    2
   141    31    30    1
   142    10     9    1
   143    10    11    1
   144    16    15    2
   145    30    32    1
   146    30    27    1
   147    55    53   ar
   148    50    49    2
   149    13    11   am
   150    13    14    1
   151    11    12    2
   152    52    53    1
   153    52    51    1
   154    15    14    1
   155    15    22   am
   156    53    54   ar
   157    29    28    2
   158    23    22    1
   159    23    24    1
   160    28    27    1
   161    27    26    1
   162    49    48    1
   163    14    17    1
   164    66    65    2
   165    48    51    1
   166    48    47    1
   167    46    45    1
   168    69    67    1
   169    24    25    2
   170    65    64    1
   171    38    39    1
   172    45    44    1
   173    44    43    1
   174    17    18    1
   175    42    39    1
   176    42    43    1
   177    39    40    1
   178    67    64    1
   179    67    68    1
   180    64    63    1
   181    18    19    1
   182    68    70    1
   183    40    41    2
   184    19    20    1
   185    20    21    1
