@<TRIPOS>MOLECULE
tmp/4qmyA00.pdb
 198 186 0 0 0
SMALL
GASTEIGER

@<TRIPOS>ATOM
      1  N         17.0140   -1.9740   77.3930 N.3    20  ILE20      -0.1231
      2  CA        17.3790   -2.4170   76.0480 C.3    20  ILE20       0.1692
      3  C         18.7350   -3.1250   75.9770 C.2    20  ILE20       0.2593
      4  O         19.0900   -3.6780   74.9340 O.2    20  ILE20      -0.2718
      5  CB        17.4160   -1.2220   75.0590 C.3    20  ILE20       0.0266
      6  CG1       18.5010   -0.2260   75.4830 C.3    20  ILE20       0.0019
      7  CG2       16.0550   -0.5480   74.9600 C.3    20  ILE20       0.0020
      8  CD1       18.6660    0.9630   74.5430 C.3    20  ILE20       0.0001
      9  N         19.4960   -3.1010   77.0690 N.am   21  GLY21      -0.1942
     10  CA        20.8360   -3.6720   77.0730 C.3    21  GLY21       0.2014
     11  C         21.4350   -3.8600   78.4570 C.2    21  GLY21       0.2638
     12  O         20.9320   -3.3170   79.4410 O.2    21  GLY21      -0.2714
     13  N         22.5200   -4.6260   78.5280 N.am   22  LYS22      -0.1977
     14  CA        23.1470   -4.9700   79.8030 C.3    22  LYS22       0.1596
     15  C         24.6340   -5.2760   79.6140 C.2    22  LYS22       0.2287
     16  O         25.0600   -5.6690   78.5260 O.2    22  LYS22      -0.2864
     17  CB        22.4250   -6.1670   80.4380 C.3    22  LYS22       0.0298
     18  CG        22.8950   -6.5560   81.8370 C.3    22  LYS22       0.0038
     19  CD        21.8040   -7.3080   82.6000 C.3    22  LYS22       0.0206
     20  CE        22.0930   -8.7990   82.6810 C.3    22  LYS22       0.1093
     21  NZ        20.8980   -9.6230   82.3270 N.3    22  LYS22      -0.1314
     22  N         29.1230   -3.1940   83.3600 N.3    25  PHE25      -0.1241
     23  CA        28.9230   -1.8730   83.9500 C.3    25  PHE25       0.1605
     24  C         27.6490   -1.7800   84.7880 C.2    25  PHE25       0.2264
     25  O         27.6780   -1.3890   85.9560 O.2    25  PHE25      -0.2867
     26  CB        28.8900   -0.8120   82.8380 C.3    25  PHE25       0.0534
     27  CG        28.1830   -1.2670   81.5860 C.ar   25  PHE25      -0.0203
     28  CD1       26.8210   -1.0570   81.4230 C.ar   25  PHE25      -0.0042
     29  CD2       28.8810   -1.9080   80.5730 C.ar   25  PHE25      -0.0042
     30  CE1       26.1680   -1.4800   80.2800 C.ar   25  PHE25      -0.0003
     31  CE2       28.2330   -2.3330   79.4230 C.ar   25  PHE25      -0.0003
     32  CZ        26.8730   -2.1170   79.2790 C.ar   25  PHE25      -0.0000
     33  N         21.3680   -0.5480   80.3920 N.3    28  VAL28      -0.1245
     34  CA        21.0660    0.4890   79.4070 C.3    28  VAL28       0.1561
     35  C         19.5590    0.5880   79.1610 C.2    28  VAL28       0.2260
     36  O         18.8720   -0.4260   79.0310 O.2    28  VAL28      -0.2867
     37  CB        21.7820    0.2220   78.0730 C.3    28  VAL28       0.0252
     38  CG1       21.4960    1.3460   77.0730 C.3    28  VAL28       0.0019
     39  CG2       23.2770    0.0560   78.2960 C.3    28  VAL28       0.0019
     40  N         19.7130    6.8980   74.7200 N.3    41  ALA41      -0.1245
     41  CA        20.0810    5.6770   75.4230 C.3    41  ALA41       0.1562
     42  C         20.7270    6.0710   76.7340 C.2    41  ALA41       0.2260
     43  O         21.6780    6.8440   76.7480 O.2    41  ALA41      -0.2867
     44  CB        21.0280    4.8320   74.6030 C.3    41  ALA41       0.0290
     45  N         22.6900    4.7600   79.9510 N.3    43  LYS43      -0.1245
     46  CA        23.4370    3.7240   80.6570 C.3    43  LYS43       0.1561
     47  C         23.4510    4.0350   82.1480 C.2    43  LYS43       0.2260
     48  O         23.9660    5.0760   82.5630 O.2    43  LYS43      -0.2867
     49  CB        24.8620    3.6120   80.1250 C.3    43  LYS43       0.0271
     50  CG        25.6690    2.5010   80.7750 C.3    43  LYS43       0.0035
     51  CD        26.7130    1.9560   79.8210 C.3    43  LYS43       0.0206
     52  CE        27.9760    2.7780   79.8440 C.3    43  LYS43       0.1093
     53  NZ        29.0140    2.1570   80.7200 N.3    43  LYS43      -0.1314
     54  N         35.4900    6.2350   80.7730 N.3    60  GLU60      -0.1245
     55  CA        34.4970    6.1560   79.7050 C.3    60  GLU60       0.1567
     56  C         33.7770    7.4870   79.4800 C.2    60  GLU60       0.2260
     57  O         33.6590    7.9560   78.3480 O.2    60  GLU60      -0.2867
     58  CB        33.4790    5.0660   80.0110 C.3    60  GLU60       0.0388
     59  CG        32.3120    5.0510   79.0530 C.3    60  GLU60       0.1160
     60  CD        31.5220    3.7690   79.1310 C.2    60  GLU60       0.3649
     61  OE1       30.5180    3.6500   78.4030 O.co2  60  GLU60      -0.2457
     62  OE2       31.9110    2.8730   79.9100 O.co2  60  GLU60      -0.2457
     63  N         34.0480    9.8720   76.1180 N.3    64  LEU64      -0.1245
     64  CA        32.7890   10.2240   75.4580 C.3    64  LEU64       0.1561
     65  C         32.6070   11.7290   75.3870 C.2    64  LEU64       0.2260
     66  O         32.2200   12.2700   74.3550 O.2    64  LEU64      -0.2867
     67  CB        31.5960    9.6040   76.1860 C.3    64  LEU64       0.0270
     68  CG        31.2840    8.1330   75.9260 C.3    64  LEU64       0.0019
     69  CD1       30.1640    7.6820   76.8420 C.3    64  LEU64       0.0001
     70  CD2       30.8930    7.9290   74.4740 C.3    64  LEU64       0.0001
     71  N         28.8440    7.6860   68.8200 N.3    73  THR73      -0.1218
     72  CA        27.5880    7.9460   69.5190 C.3    73  THR73       0.1862
     73  C         27.6830    9.2550   70.2820 C.2    73  THR73       0.2287
     74  O         28.5720    9.4220   71.1050 O.2    73  THR73      -0.2866
     75  CB        27.2190    6.8090   70.4900 C.3    73  THR73       0.1770
     76  OG1       28.2210    6.6770   71.5030 O.3    73  THR73      -0.2211
     77  CG2       27.1100    5.4960   69.7390 C.3    73  THR73       0.0375
     78  N         23.3980    8.9450   76.1290 N.3    89  MET89      -0.1230
     79  CA        23.9980    8.9480   74.8150 C.3    89  MET89       0.1702
     80  C         22.9050    8.8690   73.7410 C.2    89  MET89       0.2592
     81  O         21.7460    8.5770   74.0210 O.2    89  MET89      -0.2718
     82  CB        24.9890    7.7750   74.6630 C.3    89  MET89       0.0401
     83  CG        26.2920    7.8470   75.5250 C.3    89  MET89       0.0596
     84  SD        26.9310    6.1680   75.7240 S.3    89  MET89      -0.1393
     85  CE        25.5750    5.4470   76.6440 C.3    89  MET89       0.0692
     86  N         23.3050    9.1880   72.5220 N.am   90  GLU90      -0.1966
     87  CA        22.4950    9.0150   71.3250 C.3    90  GLU90       0.1733
     88  C         21.8610    7.6300   71.2870 C.2    90  GLU90       0.2616
     89  O         22.5290    6.6580   71.6110 O.2    90  GLU90      -0.2715
     90  CB        23.4000    9.2310   70.1130 C.3    90  GLU90       0.0429
     91  CG        22.8070    8.9500   68.7790 C.3    90  GLU90       0.1163
     92  CD        23.7260    9.4100   67.6720 C.2    90  GLU90       0.3649
     93  OE1       23.2620    9.5180   66.5230 O.co2  90  GLU90      -0.2457
     94  OE2       24.9160    9.6810   67.9550 O.co2  90  GLU90      -0.2457
     95  N         20.5830    7.5320   70.9180 N.am   91  TYR91      -0.1960
     96  CA        19.9680    6.2300   70.6990 C.3    91  TYR91       0.1771
     97  C         20.0120    5.8780   69.2140 C.2    91  TYR91       0.2619
     98  O         19.6900    6.7130   68.3740 O.2    91  TYR91      -0.2715
     99  CB        18.5250    6.2060   71.1960 C.3    91  TYR91       0.0574
    100  CG        17.7730    4.9450   70.8130 C.ar   91  TYR91      -0.0198
    101  CD1       17.8600    3.7990   71.5970 C.ar   91  TYR91      -0.0009
    102  CD2       16.9860    4.8920   69.6610 C.ar   91  TYR91      -0.0009
    103  CE1       17.1810    2.6450   71.2550 C.ar   91  TYR91       0.0417
    104  CE2       16.3050    3.7300   69.3040 C.ar   91  TYR91       0.0417
    105  CZ        16.4100    2.6140   70.1080 C.ar   91  TYR91       0.1957
    106  OH        15.7520    1.4530   69.7880 O.3    91  TYR91      -0.2866
    107  N         20.3910    4.6440   68.9000 N.am   92  LEU92      -0.1963
    108  CA        20.4170    4.1670   67.5160 C.3    92  LEU92       0.1728
    109  C         19.5680    2.9000   67.3850 C.2    92  LEU92       0.2616
    110  O         19.8940    1.8730   67.9700 O.2    92  LEU92      -0.2715
    111  CB        21.8610    3.9120   67.0800 C.3    92  LEU92       0.0311
    112  CG        22.6810    5.2040   67.0270 C.3    92  LEU92       0.0022
    113  CD1       24.1600    4.9400   67.1440 C.3    92  LEU92       0.0001
    114  CD2       22.3720    5.9490   65.7410 C.3    92  LEU92       0.0001
    115  N         18.4830    2.9740   66.6170 N.am   93  GLY93      -0.1955
    116  CA        17.4850    1.9170   66.6260 C.3    93  GLY93       0.1869
    117  C         17.5840    0.9060   65.4920 C.2    93  GLY93       0.2309
    118  O         16.7010    0.0680   65.3290 O.2    93  GLY93      -0.2863
    119  N         19.9950   -1.4220   65.0190 N.3    95  GLY95      -0.1210
    120  CA        20.6110   -2.6780   65.4040 C.3    95  GLY95       0.1956
    121  C         22.1140   -2.5690   65.2300 C.2    95  GLY95       0.2612
    122  O         22.5790   -1.6850   64.5180 O.2    95  GLY95      -0.2717
    123  N         22.8670   -3.4420   65.8860 N.am   96  SER96      -0.1952
    124  CA        24.3150   -3.4640   65.6960 C.3    96  SER96       0.1924
    125  C         24.6270   -4.2200   64.4120 C.2    96  SER96       0.2314
    126  O         23.7810   -4.9450   63.8820 O.2    96  SER96      -0.2863
    127  CB        25.0200   -4.1170   66.8820 C.3    96  SER96       0.2116
    128  OG        24.7850   -5.5260   66.8980 O.3    96  SER96      -0.2180
    129  N         26.4290   -6.6980   64.3000 N.3    98  LEU98      -0.1231
    130  CA        26.3170   -8.1040   64.6860 C.3    98  LEU98       0.1693
    131  C         24.8480   -8.5640   64.5950 C.2    98  LEU98       0.2592
    132  O         24.5480   -9.6640   64.1050 O.2    98  LEU98      -0.2718
    133  CB        26.8530   -8.3350   66.0950 C.3    98  LEU98       0.0284
    134  CG        26.8070   -9.8160   66.5070 C.3    98  LEU98       0.0019
    135  CD1       27.6410  -10.6750   65.5870 C.3    98  LEU98       0.0001
    136  CD2       27.2020  -10.0070   67.9610 C.3    98  LEU98       0.0001
    137  N         23.9340   -7.7120   65.0530 N.am   99  ASP99      -0.1974
    138  CA        22.5040   -7.9920   64.9180 C.3    99  ASP99       0.1709
    139  C         22.1470   -8.2130   63.4680 C.2    99  ASP99       0.2293
    140  O         21.4260   -9.1560   63.1290 O.2    99  ASP99      -0.2864
    141  CB        21.6470   -6.8450   65.4620 C.3    99  ASP99       0.1436
    142  CG        21.7840   -6.6710   66.9430 C.2    99  ASP99       0.3671
    143  OD1       22.0490   -7.6670   67.6350 O.co2  99  ASP99      -0.2456
    144  OD2       21.6300   -5.5310   67.4190 O.co2  99  ASP99      -0.2456
    145  N         29.5790   -6.0570   67.2450 N.3   138  ALA138     -0.1231
    146  CA        28.5930   -5.7650   68.2910 C.3   138  ALA138      0.1694
    147  C         28.6340   -4.2980   68.7620 C.2   138  ALA138      0.2592
    148  O         27.6270   -3.7810   69.2590 O.2   138  ALA138     -0.2718
    149  CB        28.7850   -6.6960   69.4850 C.3   138  ALA138      0.0304
    150  N         29.7820   -3.6340   68.5850 N.am  139  ASN139     -0.1974
    151  CA        29.9570   -2.2430   69.0160 C.3   139  ASN139      0.1688
    152  C         29.9000   -1.2470   67.8600 C.2   139  ASN139      0.2292
    153  O         30.2750   -0.0680   67.9990 O.2   139  ASN139     -0.2864
    154  CB        31.2820   -2.0860   69.7770 C.3   139  ASN139      0.1181
    155  CG        31.2530   -2.7870   71.1180 C.2   139  ASN139      0.2629
    156  OD1       30.1760   -3.0060   71.6670 O.2   139  ASN139     -0.2716
    157  ND2       32.4300   -3.1250   71.6630 N.am  139  ASN139     -0.0877
    158  N         27.0180    0.3480   65.8470 N.3   141  LEU141     -0.1245
    159  CA        25.5570    0.5140   65.8670 C.3   141  LEU141      0.1561
    160  C         25.0320    1.3220   64.6860 C.2   141  LEU141      0.2260
    161  O         25.6780    2.2630   64.2450 O.2   141  LEU141     -0.2867
    162  CB        25.1260    1.1980   67.1620 C.3   141  LEU141      0.0270
    163  CG        25.6370    0.5520   68.4500 C.3   141  LEU141      0.0019
    164  CD1       25.0250    1.2130   69.6570 C.3   141  LEU141      0.0001
    165  CD2       25.3490   -0.9450   68.4290 C.3   141  LEU141      0.0001
    166  N         30.3070    2.5250   69.0880 N.3   151  ALA151     -0.1231
    167  CA        29.7880    2.6250   70.4570 C.3   151  ALA151      0.1694
    168  C         30.6340    1.8750   71.4790 C.2   151  ALA151      0.2592
    169  O         31.5320    1.1140   71.1310 O.2   151  ALA151     -0.2718
    170  CB        28.3380    2.1120   70.5070 C.3   151  ALA151      0.0304
    171  N         30.2990    2.0950   72.7500 N.am  152  ASP152     -0.1960
    172  CA        30.8870    1.4180   73.9060 C.3   152  ASP152      0.1840
    173  C         32.3550    1.7480   74.0640 C.2   152  ASP152      0.2622
    174  O         33.2400    1.0010   73.6430 O.2   152  ASP152     -0.2715
    175  CB        30.7010   -0.0930   73.8490 C.3   152  ASP152      0.1450
    176  CG        31.1010   -0.7760   75.1570 C.2   152  ASP152      0.3671
    177  OD1       31.6500   -0.0900   76.0600 O.co2 152  ASP152     -0.2456
    178  OD2       30.8710   -2.0000   75.2870 O.co2 152  ASP152     -0.2456
    179  N         32.5920    2.8710   74.7200 N.am  153  PHE153     -0.1974
    180  CA        33.9400    3.3490   74.9420 C.3   153  PHE153      0.1639
    181  C         34.4390    2.9600   76.3190 C.2   153  PHE153      0.2290
    182  O         35.3380    3.5870   76.8790 O.2   153  PHE153     -0.2864
    183  CB        33.9670    4.8540   74.7040 C.3   153  PHE153      0.0560
    184  CG        33.8710    5.2000   73.2490 C.ar  153  PHE153     -0.0200
    185  CD1       32.6620    5.1120   72.5810 C.ar  153  PHE153     -0.0042
    186  CD2       35.0040    5.5180   72.5300 C.ar  153  PHE153     -0.0042
    187  CE1       32.5810    5.3850   71.2260 C.ar  153  PHE153     -0.0003
    188  CE2       34.9350    5.7980   71.1740 C.ar  153  PHE153     -0.0003
    189  CZ        33.7330    5.7250   70.5210 C.ar  153  PHE153     -0.0000
    190  N         13.5580  -10.7080   63.4800 N.3   284  LYS284     -0.1245
    191  CA        13.3720  -10.6390   64.9250 C.3   284  LYS284      0.1561
    192  C         11.9040  -10.8160   65.3190 C.2   284  LYS284      0.2260
    193  O         11.5920  -11.4810   66.3110 O.2   284  LYS284     -0.2867
    194  CB        13.9050   -9.3080   65.4680 C.3   284  LYS284      0.0271
    195  CG        13.9030   -9.2200   66.9880 C.3   284  LYS284      0.0035
    196  CD        14.7410   -8.0590   67.5060 C.3   284  LYS284      0.0206
    197  CE        13.9110   -6.7900   67.7010 C.3   284  LYS284      0.1093
    198  NZ        14.6980   -5.6950   68.3610 N.3   284  LYS284     -0.1314
@<TRIPOS>BOND
     1   140   139    2
     2   139   138    1
     3   190   191    1
     4   126   125    2
     5   132   131    2
     6   161   160    2
     7   129   130    1
     8   125   124    1
     9   122   121    2
    10   131   130    1
    11   131   137   am
    12   160   159    1
    13   130   133    1
    14   138   137    1
    15   138   141    1
    16   191   192    1
    17   191   194    1
    18   119   120    1
    19   121   120    1
    20   121   123   am
    21   192   193    2
    22   118   117    2
    23   141   142    1
    24   194   195    1
    25   117   116    1
    26   135   134    1
    27   124   123    1
    28   124   127    1
    29   114   112    1
    30   158   159    1
    31   159   162    1
    32   133   134    1
    33   134   136    1
    34    93    92   ar
    35   115   116    1
    36   115   109   am
    37   127   128    1
    38   142   144   ar
    39   142   143   ar
    40   195   196    1
    41   112   111    1
    42   112   113    1
    43   111   108    1
    44   162   163    1
    45   145   146    1
    46   109   108    1
    47   109   110    2
    48   196   197    1
    49   108   107    1
    50    92    94   ar
    51    92    91    1
    52   197   198    1
    53   152   153    2
    54   152   151    1
    55   146   147    1
    56   146   149    1
    57    98    97    2
    58   165   163    1
    59   163   164    1
    60   150   147   am
    61   150   151    1
    62   147   148    2
    63    91    90    1
    64    71    72    1
    65   107    97   am
    66   151   154    1
    67   166   167    1
    68    97    96    1
    69   104   102   ar
    70   104   105   ar
    71    72    73    1
    72    72    75    1
    73   102   100   ar
    74    77    75    1
    75   154   155    1
    76   106   105    1
    77   105   103   ar
    78    90    87    1
    79    73    74    2
    80   167   170    1
    81   167   168    1
    82    75    76    1
    83   189   188   ar
    84   189   187   ar
    85    96    95    1
    86    96    99    1
    87   100    99    1
    88   100   101   ar
    89    95    88   am
    90   155   157   am
    91   155   156    2
    92   169   168    2
    93   188   186   ar
    94   187   185   ar
    95   103   101   ar
    96    88    87    1
    97    88    89    2
    98    87    86    1
    99   168   171   am
   100    86    80   am
   101   186   184   ar
   102   185   184   ar
   103   171   172    1
   104   184   183    1
   105   174   173    2
   106    80    81    2
   107    80    79    1
   108   175   172    1
   109   175   176    1
   110   172   173    1
   111   173   179   am
   112    66    65    2
   113    70    68    1
   114     8     6    1
   115    44    41    1
   116    82    79    1
   117    82    83    1
   118   183   180    1
   119   179   180    1
   120    40    41    1
   121    79    78    1
   122     4     3    2
   123   180   181    1
   124     7     5    1
   125     5     6    1
   126     5     2    1
   127   176   178   ar
   128   176   177   ar
   129    65    64    1
   130    41    42    1
   131    64    63    1
   132    64    67    1
   133    83    84    1
   134    84    85    1
   135    68    67    1
   136    68    69    1
   137     3     2    1
   138     3     9   am
   139     2     1    1
   140   181   182    2
   141    42    43    2
   142     9    10    1
   143    38    37    1
   144    10    11    1
   145    37    39    1
   146    37    34    1
   147    57    56    2
   148    61    60   ar
   149    11    13   am
   150    11    12    2
   151    16    15    2
   152    13    14    1
   153    36    35    2
   154    59    60    1
   155    59    58    1
   156    60    62   ar
   157    35    34    1
   158    32    31   ar
   159    32    30   ar
   160    34    33    1
   161    31    29   ar
   162    56    55    1
   163    15    14    1
   164    55    58    1
   165    55    54    1
   166    14    17    1
   167    51    52    1
   168    51    50    1
   169    52    53    1
   170    45    46    1
   171    49    46    1
   172    49    50    1
   173    30    28   ar
   174    17    18    1
   175    29    27   ar
   176    46    47    1
   177    28    27   ar
   178    27    26    1
   179    18    19    1
   180    47    48    2
   181    21    20    1
   182    19    20    1
   183    26    23    1
   184    22    23    1
   185    23    24    1
   186    24    25    2
