@<TRIPOS>MOLECULE
tmp/4qn4A00.pdb
 116 109 0 0 0
SMALL
GASTEIGER

@<TRIPOS>ATOM
      1  N        -15.5610   51.7040  -59.5370 N.3    38  GLU38      -0.1245
      2  CA       -16.0160   51.2850  -60.8670 C.3    38  GLU38       0.1567
      3  C        -15.0940   51.7180  -62.0070 C.2    38  GLU38       0.2260
      4  O        -15.5350   52.3720  -62.9660 O.2    38  GLU38      -0.2867
      5  CB       -17.4550   51.7460  -61.1180 C.3    38  GLU38       0.0388
      6  CG       -18.4380   51.1930  -60.0860 C.3    38  GLU38       0.1160
      7  CD       -18.5500   52.0460  -58.8210 C.2    38  GLU38       0.3649
      8  OE1      -18.9280   51.4980  -57.7630 O.co2  38  GLU38      -0.2457
      9  OE2      -18.3020   53.2650  -58.8750 O.co2  38  GLU38      -0.2457
     10  N        -15.3800   56.2080  -61.9870 N.3    53  LEU53      -0.1245
     11  CA       -16.3260   57.1810  -61.4750 C.3    53  LEU53       0.1561
     12  C        -15.7170   57.8740  -60.2690 C.2    53  LEU53       0.2260
     13  O        -15.5660   57.2730  -59.2090 O.2    53  LEU53      -0.2867
     14  CB       -17.6370   56.4940  -61.0900 C.3    53  LEU53       0.0270
     15  CG       -18.4790   55.9690  -62.2600 C.3    53  LEU53       0.0019
     16  CD1      -19.6670   55.1700  -61.7390 C.3    53  LEU53       0.0001
     17  CD2      -18.9740   57.1090  -63.1530 C.3    53  LEU53       0.0001
     18  N        -23.0980   54.9650  -53.5110 N.3    70  ASP70      -0.1225
     19  CA       -22.8840   54.8210  -54.9530 C.3    70  ASP70       0.1805
     20  C        -23.2990   56.0380  -55.7670 C.2    70  ASP70       0.2597
     21  O        -22.6650   56.3600  -56.7760 O.2    70  ASP70      -0.2718
     22  CB       -23.6570   53.6110  -55.4980 C.3    70  ASP70       0.1424
     23  CG       -23.1760   52.2940  -54.9160 C.2    70  ASP70       0.3668
     24  OD1      -21.9530   52.0520  -54.8910 O.co2  70  ASP70      -0.2456
     25  OD2      -24.0340   51.5030  -54.4810 O.co2  70  ASP70      -0.2456
     26  N        -24.3780   56.6960  -55.3530 N.am   71  ARG71      -0.1979
     27  CA       -24.9760   57.7460  -56.1840 C.3    71  ARG71       0.1597
     28  C        -25.0370   59.1040  -55.4900 C.2    71  ARG71       0.2287
     29  O        -25.6380   59.2410  -54.4250 O.2    71  ARG71      -0.2864
     30  CB       -26.3770   57.3110  -56.6460 C.3    71  ARG71       0.0334
     31  CG       -26.3460   56.0350  -57.5030 C.3    71  ARG71       0.0492
     32  CD       -27.7580   55.5420  -57.8770 C.3    71  ARG71       0.2205
     33  NE       -28.5390   55.2090  -56.6890 N.pl3  71  ARG71      -0.0865
     34  CZ       -28.4060   54.0800  -56.0000 C.cat  71  ARG71       0.5346
     35  NH1      -27.5340   53.1570  -56.3910 N.pl3  71  ARG71       0.1354
     36  NH2      -29.1490   53.8710  -54.9190 N.pl3  71  ARG71       0.1354
     37  N        -20.4240   62.8500  -58.3850 N.3    75  ARG75      -0.1245
     38  CA       -19.6850   61.8590  -59.1680 C.3    75  ARG75       0.1563
     39  C        -19.5920   62.2380  -60.6440 C.2    75  ARG75       0.2260
     40  O        -20.4300   62.9790  -61.1600 O.2    75  ARG75      -0.2867
     41  CB       -20.3280   60.4740  -59.0280 C.3    75  ARG75       0.0307
     42  CG       -20.4150   59.9910  -57.5800 C.3    75  ARG75       0.0489
     43  CD       -20.5070   58.4690  -57.5160 C.3    75  ARG75       0.2205
     44  NE       -19.2050   57.8350  -57.7240 N.pl3  75  ARG75      -0.0865
     45  CZ       -19.0010   56.5260  -57.6070 C.cat  75  ARG75       0.5346
     46  NH1      -20.0210   55.7280  -57.3030 N.pl3  75  ARG75       0.1354
     47  NH2      -17.7820   56.0130  -57.7950 N.pl3  75  ARG75       0.1354
     48  N        -23.2520   58.7900  -62.1770 N.3    98  TRP98      -0.1227
     49  CA       -22.8800   57.7100  -61.2600 C.3    98  TRP98       0.1737
     50  C        -22.9640   56.3010  -61.8600 C.2    98  TRP98       0.2596
     51  O        -22.8900   55.2930  -61.1380 O.2    98  TRP98      -0.2718
     52  CB       -23.6900   57.8070  -59.9510 C.3    98  TRP98       0.0564
     53  CG       -25.1460   58.2090  -60.1060 C.ar   98  TRP98       0.0003
     54  CD1      -25.7340   59.3710  -59.6630 C.ar   98  TRP98       0.0946
     55  CD2      -26.1900   57.4470  -60.7270 C.ar   98  TRP98       0.0152
     56  NE1      -27.0740   59.3730  -59.9760 N.ar   98  TRP98      -0.2442
     57  CE2      -27.3750   58.2080  -60.6370 C.ar   98  TRP98       0.0810
     58  CE3      -26.2340   56.2000  -61.3600 C.ar   98  TRP98       0.0012
     59  CZ2      -28.5930   57.7580  -61.1500 C.ar   98  TRP98       0.0191
     60  CZ3      -27.4390   55.7550  -61.8760 C.ar   98  TRP98       0.0001
     61  CH2      -28.6050   56.5330  -61.7670 C.ar   98  TRP98       0.0015
     62  N        -23.0860   56.2360  -63.1810 N.am   99  SER99      -0.1952
     63  CA       -22.9980   54.9740  -63.9150 C.3    99  SER99       0.1924
     64  C        -22.5210   55.3480  -65.3070 C.2    99  SER99       0.2314
     65  O        -22.9350   56.3830  -65.8300 O.2    99  SER99      -0.2863
     66  CB       -24.3690   54.2900  -63.9770 C.3    99  SER99       0.2116
     67  OG       -24.2800   53.0540  -64.6750 O.3    99  SER99      -0.2180
     68  N        -33.3760   53.7510  -61.1550 N.3   142  ILE142     -0.1245
     69  CA       -31.9210   53.7620  -61.3480 C.3   142  ILE142      0.1561
     70  C        -31.4840   53.2700  -62.7310 C.2   142  ILE142      0.2260
     71  O        -30.8530   52.2190  -62.8610 O.2   142  ILE142     -0.2867
     72  CB       -31.1980   52.9840  -60.2260 C.3   142  ILE142      0.0252
     73  CG1      -31.7520   53.3900  -58.8550 C.3   142  ILE142      0.0019
     74  CG2      -29.6780   53.2630  -60.2560 C.3   142  ILE142      0.0019
     75  CD1      -31.1830   52.5780  -57.6770 C.3   142  ILE142      0.0001
     76  N        -29.1720   52.6420  -65.5540 N.3   144  ARG144     -0.1245
     77  CA       -27.7510   52.3920  -65.3250 C.3   144  ARG144      0.1563
     78  C        -27.1450   51.5510  -66.4470 C.2   144  ARG144      0.2260
     79  O        -27.8680   50.9820  -67.2750 O.2   144  ARG144     -0.2867
     80  CB       -27.5700   51.6870  -63.9830 C.3   144  ARG144      0.0307
     81  CG       -28.3380   50.3550  -63.8810 C.3   144  ARG144      0.0489
     82  CD       -28.5130   49.9560  -62.4280 C.3   144  ARG144      0.2205
     83  NE       -29.1820   48.6670  -62.2190 N.pl3 144  ARG144     -0.0865
     84  CZ       -30.4950   48.5140  -62.0680 C.cat 144  ARG144      0.5346
     85  NH1      -31.3080   49.5630  -62.1480 N.pl3 144  ARG144      0.1354
     86  NH2      -31.0010   47.3030  -61.8410 N.pl3 144  ARG144      0.1354
     87  N        -20.4220   50.0760  -66.7800 N.3   147  GLU147     -0.1245
     88  CA       -19.2450   50.3210  -65.9330 C.3   147  GLU147      0.1567
     89  C        -17.9670   49.7180  -66.5060 C.2   147  GLU147      0.2260
     90  O        -17.0060   49.4680  -65.7730 O.2   147  GLU147     -0.2867
     91  CB       -19.4320   49.8730  -64.4700 C.3   147  GLU147      0.0388
     92  CG       -20.8500   50.0060  -63.8810 C.3   147  GLU147      0.1160
     93  CD       -21.4000   51.4240  -63.8450 C.2   147  GLU147      0.3649
     94  OE1      -22.5590   51.5760  -63.3960 O.co2 147  GLU147     -0.2457
     95  OE2      -20.6920   52.3760  -64.2440 O.co2 147  GLU147     -0.2457
     96  N        -24.2980   45.5560  -65.5540 N.3   197  GLU197     -0.1245
     97  CA       -22.8380   45.7340  -65.6300 C.3   197  GLU197      0.1567
     98  C        -22.1100   44.8310  -66.6370 C.2   197  GLU197      0.2260
     99  O        -21.1290   44.1490  -66.3060 O.2   197  GLU197     -0.2867
    100  CB       -22.2590   45.5820  -64.2190 C.3   197  GLU197      0.0388
    101  CG       -22.8600   46.6130  -63.2510 C.3   197  GLU197      0.1160
    102  CD       -22.4430   46.4150  -61.8030 C.2   197  GLU197      0.3649
    103  OE1      -22.0430   45.2950  -61.4490 O.co2 197  GLU197     -0.2457
    104  OE2      -22.5250   47.3850  -61.0160 O.co2 197  GLU197     -0.2457
    105  N        -14.7240   44.8590  -58.8050 N.3   325  TYR325     -0.1241
    106  CA       -15.2090   44.6910  -60.1690 C.3   325  TYR325      0.1605
    107  C        -14.0760   44.2720  -61.0950 C.2   325  TYR325      0.2264
    108  O        -12.8970   44.5660  -60.8360 O.2   325  TYR325     -0.2867
    109  CB       -15.8180   46.0000  -60.6830 C.3   325  TYR325      0.0534
    110  CG       -17.2190   46.2880  -60.2080 C.ar  325  TYR325     -0.0201
    111  CD1      -17.7940   45.5660  -59.1740 C.ar  325  TYR325     -0.0009
    112  CD2      -17.9800   47.2870  -60.8180 C.ar  325  TYR325     -0.0009
    113  CE1      -19.1000   45.8310  -58.7500 C.ar  325  TYR325      0.0417
    114  CE2      -19.2710   47.5590  -60.4090 C.ar  325  TYR325      0.0417
    115  CZ       -19.8230   46.8280  -59.3730 C.ar  325  TYR325      0.1957
    116  OH       -21.1150   47.1040  -58.9740 O.3   325  TYR325     -0.2866
@<TRIPOS>BOND
     1    79    78    2
     2    87    88    1
     3    98    99    2
     4    98    97    1
     5    89    88    1
     6    89    90    2
     7    78    77    1
     8    88    91    1
     9    65    64    2
    10    97    96    1
    11    97   100    1
    12    76    77    1
    13    77    80    1
    14    64    63    1
    15    67    66    1
    16    91    92    1
    17    95    93   ar
    18   100   101    1
    19    80    81    1
    20    66    63    1
    21    63    62    1
    22    81    82    1
    23    92    93    1
    24    93    94   ar
    25   101   102    1
    26    62    50   am
    27    17    15    1
    28     4     3    2
    29    71    70    2
    30    70    69    1
    31    82    83    1
    32    15    16    1
    33    15    14    1
    34    83    84    2
    35    48    49    1
    36    85    84    1
    37    84    86    1
    38     3     2    1
    39    10    11    1
    40    60    61   ar
    41    60    58   ar
    42    50    49    1
    43    50    51    2
    44   102   103   ar
    45   102   104   ar
    46    61    59   ar
    47    11    14    1
    48    11    12    1
    49    58    55   ar
    50    69    68    1
    51    69    72    1
    52    49    52    1
    53    40    39    2
    54    59    57   ar
    55     5     2    1
    56     5     6    1
    57   107   108    2
    58   107   106    1
    59     2     1    1
    60   112   114   ar
    61   112   110   ar
    62    55    57   ar
    63    55    53   ar
    64   109   110    1
    65   109   106    1
    66    39    38    1
    67    57    56   ar
    68   114   115   ar
    69    12    13    2
    70    74    72    1
    71    72    73    1
    72   110   111   ar
    73   106   105    1
    74    53    52    1
    75    53    54   ar
    76     6     7    1
    77    56    54   ar
    78   115   116    1
    79   115   113   ar
    80   111   113   ar
    81    38    41    1
    82    38    37    1
    83    41    42    1
    84     9     7   ar
    85    73    75    1
    86     7     8   ar
    87    32    31    1
    88    32    33    1
    89    47    45    1
    90    44    45    2
    91    44    43    1
    92    45    46    1
    93    42    43    1
    94    31    30    1
    95    21    20    2
    96    33    34    2
    97    30    27    1
    98    35    34    1
    99    27    28    1
   100    27    26    1
   101    34    36    1
   102    20    26   am
   103    20    19    1
   104    22    19    1
   105    22    23    1
   106    28    29    2
   107    19    18    1
   108    23    24   ar
   109    23    25   ar
