@<TRIPOS>MOLECULE
tmp/4qn4A01.pdb
 75 72 0 0 0
SMALL
GASTEIGER

@<TRIPOS>ATOM
      1  N         -9.6930   38.0150  -85.6550 N.3     9  PRO9       -0.2102
      2  CA       -10.0560   37.0060  -84.6570 C.3     9  PRO9        0.1504
      3  C         -9.4470   37.3610  -83.3080 C.2     9  PRO9        0.2575
      4  O         -8.5890   38.2330  -83.2440 O.2     9  PRO9       -0.2718
      5  CB        -9.3810   35.7370  -85.1910 C.3     9  PRO9        0.0282
      6  CG        -8.1710   36.2500  -85.9060 C.3     9  PRO9        0.0208
      7  CD        -8.6200   37.5460  -86.5530 C.3     9  PRO9        0.0893
      8  N         -9.8910   36.6950  -82.2520 N.am   10  LEU10      -0.1980
      9  CA        -9.3090   36.8780  -80.9300 C.3    10  LEU10       0.1596
     10  C         -7.9540   36.1700  -80.8640 C.2    10  LEU10       0.2287
     11  O         -7.8070   35.0560  -81.3800 O.2    10  LEU10      -0.2864
     12  CB       -10.2500   36.2740  -79.8950 C.3    10  LEU10       0.0297
     13  CG       -10.3010   36.8740  -78.5020 C.3    10  LEU10       0.0022
     14  CD1      -10.7470   38.3400  -78.5670 C.3    10  LEU10       0.0001
     15  CD2      -11.2420   36.0500  -77.6290 C.3    10  LEU10       0.0001
     16  N        -16.5330   42.6530  -75.4210 N.3   201  TYR201     -0.1227
     17  CA       -15.3960   42.7130  -76.3380 C.3   201  TYR201      0.1736
     18  C        -15.8730   42.2020  -77.6960 C.2   201  TYR201      0.2596
     19  O        -16.9320   41.5670  -77.7920 O.2   201  TYR201     -0.2718
     20  CB       -14.2190   41.8610  -75.8190 C.3   201  TYR201      0.0548
     21  CG       -14.5170   40.3820  -75.8980 C.ar  201  TYR201     -0.0200
     22  CD1      -15.2490   39.7530  -74.9010 C.ar  201  TYR201     -0.0009
     23  CD2      -14.1140   39.6310  -76.9970 C.ar  201  TYR201     -0.0009
     24  CE1      -15.5660   38.4100  -74.9840 C.ar  201  TYR201      0.0417
     25  CE2      -14.4270   38.2860  -77.0900 C.ar  201  TYR201      0.0417
     26  CZ       -15.1520   37.6850  -76.0790 C.ar  201  TYR201      0.1957
     27  OH       -15.4760   36.3500  -76.1610 O.3   201  TYR201     -0.2866
     28  N        -15.1030   42.4790  -78.7440 N.am  202  GLY202     -0.1942
     29  CA       -15.4970   42.0780  -80.0830 C.3   202  GLY202      0.2014
     30  C        -14.3980   41.3880  -80.8760 C.2   202  GLY202      0.2639
     31  O        -13.2030   41.5610  -80.6100 O.2   202  GLY202     -0.2714
     32  N        -14.8150   40.5960  -81.8570 N.am  203  ALA203     -0.1963
     33  CA       -13.8990   39.9320  -82.7800 C.3   203  ALA203      0.1728
     34  C        -14.7420   39.3630  -83.9060 C.2   203  ALA203      0.2616
     35  O        -15.8910   38.9850  -83.6720 O.2   203  ALA203     -0.2715
     36  CB       -13.1280   38.8170  -82.0820 C.3   203  ALA203      0.0334
     37  N        -14.1640   39.3060  -85.1060 N.am  204  VAL204     -0.1977
     38  CA       -14.8360   38.8000  -86.3180 C.3   204  VAL204      0.1596
     39  C        -16.3260   39.1500  -86.4220 C.2   204  VAL204      0.2287
     40  O        -17.1740   38.2860  -86.6680 O.2   204  VAL204     -0.2864
     41  CB       -14.5690   37.2750  -86.5670 C.3   204  VAL204      0.0276
     42  CG1      -13.1080   37.0510  -86.9370 C.3   204  VAL204      0.0022
     43  CG2      -14.9360   36.4320  -85.3610 C.3   204  VAL204      0.0022
     44  N        -18.5030   40.0360  -84.2410 N.3   206  VAL206     -0.1245
     45  CA       -19.3820   39.6680  -83.1300 C.3   206  VAL206      0.1561
     46  C        -18.9830   40.4560  -81.8940 C.2   206  VAL206      0.2260
     47  O        -17.7980   40.6270  -81.6380 O.2   206  VAL206     -0.2867
     48  CB       -19.2720   38.1610  -82.8180 C.3   206  VAL206      0.0252
     49  CG1      -20.1810   37.7720  -81.6560 C.3   206  VAL206      0.0019
     50  CG2      -19.6060   37.3290  -84.0620 C.3   206  VAL206      0.0019
     51  N        -19.5050   40.2680  -77.7560 N.3   208  LYS208     -0.1245
     52  CA       -19.9840   39.3690  -76.7130 C.3   208  LYS208      0.1561
     53  C        -19.8720   40.0680  -75.3690 C.2   208  LYS208      0.2260
     54  O        -18.8360   40.6420  -75.0590 O.2   208  LYS208     -0.2867
     55  CB       -19.1590   38.0790  -76.7200 C.3   208  LYS208      0.0271
     56  CG       -19.8960   36.8470  -76.2310 C.3   208  LYS208      0.0035
     57  CD       -19.0990   35.5530  -76.5150 C.3   208  LYS208      0.0206
     58  CE       -19.1310   35.1310  -77.9820 C.3   208  LYS208      0.1093
     59  NZ       -18.4000   33.8220  -78.1940 N.3   208  LYS208     -0.1314
     60  N        -14.7550   34.2450  -74.3700 N.3   275  LEU275     -0.1231
     61  CA       -15.3590   32.9840  -74.7900 C.3   275  LEU275      0.1693
     62  C        -15.0690   32.7550  -76.2670 C.2   275  LEU275      0.2592
     63  O        -15.6420   33.4260  -77.1320 O.2   275  LEU275     -0.2718
     64  CB       -16.8710   33.0250  -74.5450 C.3   275  LEU275      0.0284
     65  CG       -17.2820   33.2830  -73.0950 C.3   275  LEU275      0.0019
     66  CD1      -18.8030   33.4670  -72.9670 C.3   275  LEU275      0.0001
     67  CD2      -16.8190   32.1340  -72.2250 C.3   275  LEU275      0.0001
     68  N        -14.1720   31.8150  -76.5490 N.am  276  ASP276     -0.1974
     69  CA       -13.7130   31.5810  -77.9080 C.3   276  ASP276      0.1709
     70  C        -13.3580   30.1010  -78.0590 C.2   276  ASP276      0.2293
     71  O        -12.2180   29.7530  -78.3630 O.2   276  ASP276     -0.2864
     72  CB       -12.4940   32.4650  -78.1990 C.3   276  ASP276      0.1436
     73  CG       -11.9840   32.3290  -79.6250 C.2   276  ASP276      0.3671
     74  OD1      -10.7690   32.5070  -79.8250 O.co2 276  ASP276     -0.2456
     75  OD2      -12.7920   32.0680  -80.5400 O.co2 276  ASP276     -0.2456
@<TRIPOS>BOND
     1    42    41    1
     2    40    39    2
     3    41    38    1
     4    41    43    1
     5     7     6    1
     6     7     1    1
     7    39    38    1
     8    38    37    1
     9     6     5    1
    10     1     2    1
    11     5     2    1
    12    37    34   am
    13     2     3    1
    14    44    45    1
    15    50    48    1
    16    34    35    2
    17    34    33    1
    18     3     4    2
    19     3     8   am
    20    45    48    1
    21    45    46    1
    22    48    49    1
    23    33    36    1
    24    33    32    1
    25     8     9    1
    26    46    47    2
    27    32    30   am
    28    11    10    2
    29     9    10    1
    30     9    12    1
    31    30    31    2
    32    30    29    1
    33    75    73   ar
    34    29    28    1
    35    12    13    1
    36    74    73   ar
    37    73    72    1
    38    28    18   am
    39    14    13    1
    40    13    15    1
    41    71    70    2
    42    72    69    1
    43    59    58    1
    44    70    69    1
    45    58    57    1
    46    69    68    1
    47    19    18    2
    48    51    52    1
    49    18    17    1
    50    63    62    2
    51    25    23   ar
    52    25    26   ar
    53    23    21   ar
    54    55    52    1
    55    55    56    1
    56    52    53    1
    57    68    62   am
    58    57    56    1
    59    17    20    1
    60    17    16    1
    61    62    61    1
    62    27    26    1
    63    26    24   ar
    64    21    20    1
    65    21    22   ar
    66    53    54    2
    67    24    22   ar
    68    61    64    1
    69    61    60    1
    70    64    65    1
    71    65    66    1
    72    65    67    1
