@<TRIPOS>MOLECULE
tmp/4qn5B02.pdb
 80 78 0 0 0
SMALL
GASTEIGER

@<TRIPOS>ATOM
      1  N         52.8890  -19.0030  -23.8620 N.3   288  SER288     -0.1202
      2  CA        51.9630  -18.4760  -24.8570 C.3   288  SER288      0.2020
      3  C         50.7130  -17.9190  -24.1840 C.2   288  SER288      0.2619
      4  O         50.2430  -18.4670  -23.1870 O.2   288  SER288     -0.2717
      5  CB        51.5670  -19.5740  -25.8420 C.3   288  SER288      0.2103
      6  OG        50.5380  -19.1260  -26.7050 O.3   288  SER288     -0.2182
      7  N         50.1730  -16.8300  -24.7230 N.am  289  ILE289     -0.1965
      8  CA        48.9340  -16.2720  -24.1860 C.3   289  ILE289      0.1727
      9  C         47.6960  -16.9070  -24.8200 C.2   289  ILE289      0.2617
     10  O         46.5790  -16.6920  -24.3520 O.2   289  ILE289     -0.2715
     11  CB        48.8620  -14.7300  -24.3500 C.3   289  ILE289      0.0290
     12  CG1       48.8150  -14.3400  -25.8310 C.3   289  ILE289      0.0022
     13  CG2       50.0310  -14.0570  -23.6360 C.3   289  ILE289      0.0023
     14  CD1       48.5540  -12.8610  -26.0680 C.3   289  ILE289      0.0001
     15  N         47.8940  -17.7020  -25.8690 N.am  290  SER290     -0.1936
     16  CA        46.7630  -18.2190  -26.6390 C.3   290  SER290      0.2055
     17  C         46.6540  -19.7420  -26.6570 C.2   290  SER290      0.2643
     18  O         45.5540  -20.2880  -26.7210 O.2   290  SER290     -0.2714
     19  CB        46.7940  -17.6810  -28.0730 C.3   290  SER290      0.2130
     20  OG        47.9600  -18.1090  -28.7570 O.3   290  SER290     -0.2179
     21  N         47.7890  -20.4270  -26.6140 N.am  291  SER291     -0.1949
     22  CA        47.7810  -21.8820  -26.6680 C.3   291  SER291      0.1924
     23  C         48.5230  -22.4750  -25.4810 C.2   291  SER291      0.2314
     24  O         49.2040  -21.7660  -24.7400 O.2   291  SER291     -0.2863
     25  CB        48.4000  -22.3790  -27.9740 C.3   291  SER291      0.2116
     26  OG        49.8060  -22.2020  -27.9690 O.3   291  SER291     -0.2180
     27  N         51.3040  -23.7510  -24.5630 N.3   293  SER293     -0.1217
     28  CA        52.6720  -23.8090  -25.0470 C.3   293  SER293      0.1889
     29  C         53.5980  -23.1590  -24.0300 C.2   293  SER293      0.2288
     30  O         53.3450  -22.0380  -23.5810 O.2   293  SER293     -0.2866
     31  CB        52.7680  -23.0750  -26.3890 C.3   293  SER293      0.2089
     32  OG        54.1050  -23.0080  -26.8510 O.3   293  SER293     -0.2183
     33  N         58.8370  -21.9580  -24.9660 N.3   320  ASN320     -0.1225
     34  CA        57.6360  -21.7490  -25.7670 C.3   320  ASN320      0.1785
     35  C         57.6320  -22.5310  -27.0820 C.2   320  ASN320      0.2597
     36  O         56.6940  -22.4260  -27.8660 O.2   320  ASN320     -0.2718
     37  CB        57.4320  -20.2540  -26.0310 C.3   320  ASN320      0.1169
     38  CG        55.9910  -19.9060  -26.3600 C.2   320  ASN320      0.2627
     39  OD1       55.0620  -20.6250  -25.9890 O.2   320  ASN320     -0.2716
     40  ND2       55.7980  -18.7870  -27.0510 N.am  320  ASN320     -0.0877
     41  N         58.6760  -23.3180  -27.3230 N.am  321  LYS321     -0.1966
     42  CA        58.7350  -24.1310  -28.5330 C.3   321  LYS321      0.1728
     43  C         58.1740  -25.5240  -28.2790 C.2   321  LYS321      0.2616
     44  O         58.1940  -26.3860  -29.1570 O.2   321  LYS321     -0.2715
     45  CB        60.1680  -24.2180  -29.0660 C.3   321  LYS321      0.0311
     46  CG        60.7800  -22.8630  -29.3920 C.3   321  LYS321      0.0038
     47  CD        61.5550  -22.8920  -30.7010 C.3   321  LYS321      0.0206
     48  CE        62.7280  -23.8580  -30.6420 C.3   321  LYS321      0.1093
     49  NZ        63.4960  -23.8740  -31.9220 N.3   321  LYS321     -0.1314
     50  N         57.6570  -25.7320  -27.0740 N.am  322  ASN322     -0.1958
     51  CA        57.1680  -27.0440  -26.6740 C.3   322  ASN322      0.1819
     52  C         55.7860  -26.9850  -26.0380 C.2   322  ASN322      0.2621
     53  O         55.4360  -26.0020  -25.3850 O.2   322  ASN322     -0.2715
     54  CB        58.1670  -27.7050  -25.7290 C.3   322  ASN322      0.1195
     55  CG        59.4250  -28.1460  -26.4440 C.2   322  ASN322      0.2630
     56  OD1       59.4460  -29.1900  -27.0920 O.2   322  ASN322     -0.2716
     57  ND2       60.4770  -27.3450  -26.3450 N.am  322  ASN322     -0.0877
     58  N         55.0090  -28.0450  -26.2340 N.am  323  TRP323     -0.1974
     59  CA        53.6300  -28.0870  -25.7590 C.3   323  TRP323      0.1640
     60  C         53.5320  -28.3620  -24.2640 C.2   323  TRP323      0.2290
     61  O         54.2350  -29.2220  -23.7280 O.2   323  TRP323     -0.2864
     62  CB        52.8280  -29.1350  -26.5380 C.3   323  TRP323      0.0576
     63  CG        52.8320  -28.8870  -28.0090 C.ar  323  TRP323      0.0006
     64  CD1       53.4690  -29.6220  -28.9660 C.ar  323  TRP323      0.0946
     65  CD2       52.1860  -27.8080  -28.6950 C.ar  323  TRP323      0.0152
     66  NE1       53.2480  -29.0720  -30.2080 N.ar  323  TRP323     -0.2442
     67  CE2       52.4650  -27.9570  -30.0670 C.ar  323  TRP323      0.0810
     68  CE3       51.3930  -26.7320  -28.2800 C.ar  323  TRP323      0.0012
     69  CZ2       51.9800  -27.0720  -31.0280 C.ar  323  TRP323      0.0191
     70  CZ3       50.9160  -25.8530  -29.2350 C.ar  323  TRP323      0.0001
     71  CH2       51.2110  -26.0290  -30.5930 C.ar  323  TRP323      0.0015
     72  N         46.7270  -29.9050  -31.3940 N.3   356  GLU356     -0.1245
     73  CA        47.8220  -29.0860  -31.9180 C.3   356  GLU356      0.1567
     74  C         48.6660  -29.8170  -32.9580 C.2   356  GLU356      0.2260
     75  O         49.2670  -29.1960  -33.8350 O.2   356  GLU356     -0.2867
     76  CB        48.7130  -28.5780  -30.7810 C.3   356  GLU356      0.0388
     77  CG        48.0010  -27.6750  -29.7900 C.3   356  GLU356      0.1160
     78  CD        47.5520  -26.3610  -30.4050 C.2   356  GLU356      0.3649
     79  OE1       47.8660  -26.1120  -31.5900 O.co2 356  GLU356     -0.2457
     80  OE2       46.8870  -25.5730  -29.6980 O.co2 356  GLU356     -0.2457
@<TRIPOS>BOND
     1    75    74    2
     2    74    73    1
     3    49    48    1
     4    73    72    1
     5    73    76    1
     6    79    78   ar
     7    69    71   ar
     8    69    67   ar
     9    76    77    1
    10    47    48    1
    11    47    46    1
    12    71    70   ar
    13    78    77    1
    14    78    80   ar
    15    66    67   ar
    16    66    64   ar
    17    67    65   ar
    18    46    45    1
    19    70    68   ar
    20    44    43    2
    21    45    42    1
    22    64    63   ar
    23    20    19    1
    24    65    68   ar
    25    65    63   ar
    26    42    43    1
    27    42    41    1
    28    43    50   am
    29    19    16    1
    30    63    62    1
    31    25    26    1
    32    25    22    1
    33    36    35    2
    34    41    35   am
    35    56    55    2
    36    35    34    1
    37    50    51    1
    38    40    38   am
    39    32    31    1
    40    18    17    2
    41     6     5    1
    42    51    52    1
    43    51    54    1
    44    22    21    1
    45    22    23    1
    46    17    16    1
    47    17    21   am
    48    16    15    1
    49    62    59    1
    50    55    57   am
    51    55    54    1
    52    31    28    1
    53    38    37    1
    54    38    39    2
    55    58    52   am
    56    58    59    1
    57    14    12    1
    58    52    53    2
    59    37    34    1
    60    15     9   am
    61     5     2    1
    62    12    11    1
    63    34    33    1
    64    59    60    1
    65    23    24    2
    66    28    27    1
    67    28    29    1
    68     2     3    1
    69     2     1    1
    70     9    10    2
    71     9     8    1
    72     7     8    1
    73     7     3   am
    74    11     8    1
    75    11    13    1
    76    60    61    2
    77     3     4    2
    78    29    30    2
