@<TRIPOS>MOLECULE
tmp/4qn5B01.pdb
 175 165 0 0 0
SMALL
GASTEIGER

@<TRIPOS>ATOM
      1  N         45.5950  -38.6980  -19.9880 N.3    37  ARG37      -0.1231
      2  CA        45.6670  -37.2560  -19.8140 C.3    37  ARG37       0.1694
      3  C         45.3210  -36.9480  -18.3670 C.2    37  ARG37       0.2591
      4  O         45.0220  -37.8600  -17.5910 O.2    37  ARG37      -0.2718
      5  CB        44.7540  -36.5020  -20.7880 C.3    37  ARG37       0.0321
      6  CG        45.4820  -35.9760  -22.0250 C.3    37  ARG37       0.0489
      7  CD        44.8930  -34.6490  -22.4940 C.3    37  ARG37       0.2205
      8  NE        45.0350  -33.6140  -21.4730 N.pl3  37  ARG37      -0.0865
      9  CZ        44.2250  -32.5660  -21.3510 C.cat  37  ARG37       0.5346
     10  NH1       43.2020  -32.4150  -22.1850 N.pl3  37  ARG37       0.1354
     11  NH2       44.4290  -31.6730  -20.3900 N.pl3  37  ARG37       0.1354
     12  N         45.3720  -35.6740  -18.0000 N.am   38  GLU38      -0.1979
     13  CA        45.0580  -35.2580  -16.6370 C.3    38  GLU38       0.1602
     14  C         45.8410  -36.0490  -15.5830 C.2    38  GLU38       0.2287
     15  O         45.2520  -36.6520  -14.6820 O.2    38  GLU38      -0.2864
     16  CB        43.5530  -35.3720  -16.3700 C.3    38  GLU38       0.0415
     17  CG        42.6780  -34.4990  -17.2660 C.3    38  GLU38       0.1163
     18  CD        42.3640  -35.1440  -18.6090 C.2    38  GLU38       0.3649
     19  OE1       42.1250  -34.4020  -19.5870 O.co2  38  GLU38      -0.2457
     20  OE2       42.3530  -36.3900  -18.6880 O.co2  38  GLU38      -0.2457
     21  N         37.2010  -36.5350  -24.3900 N.3    70  ASP70      -0.1225
     22  CA        37.4380  -36.4140  -22.9480 C.3    70  ASP70       0.1805
     23  C         36.7700  -37.4890  -22.0990 C.2    70  ASP70       0.2597
     24  O         37.2870  -37.8590  -21.0440 O.2    70  ASP70      -0.2718
     25  CB        36.9860  -35.0400  -22.4450 C.3    70  ASP70       0.1424
     26  CG        37.8990  -33.9180  -22.9060 C.2    70  ASP70       0.3668
     27  OD1       39.1040  -34.1710  -23.1110 O.co2  70  ASP70      -0.2456
     28  OD2       37.4110  -32.7790  -23.0540 O.co2  70  ASP70      -0.2456
     29  N         35.6130  -37.9750  -22.5380 N.am   71  ARG71      -0.1979
     30  CA        34.8510  -38.9060  -21.7130 C.3    71  ARG71       0.1597
     31  C         34.4380  -40.1650  -22.4660 C.2    71  ARG71       0.2287
     32  O         33.9690  -40.1010  -23.5990 O.2    71  ARG71      -0.2864
     33  CB        33.6280  -38.2030  -21.1130 C.3    71  ARG71       0.0334
     34  CG        33.9840  -36.9630  -20.3030 C.3    71  ARG71       0.0492
     35  CD        32.7470  -36.2460  -19.7860 C.3    71  ARG71       0.2205
     36  NE        31.8610  -35.8340  -20.8720 N.pl3  71  ARG71      -0.0865
     37  CZ        32.0980  -34.8080  -21.6840 C.cat  71  ARG71       0.5346
     38  NH1       33.2050  -34.0860  -21.5450 N.pl3  71  ARG71       0.1354
     39  NH2       31.2300  -34.5070  -22.6410 N.pl3  71  ARG71       0.1354
     40  N         37.7090  -45.0110  -19.7350 N.3    75  ARG75      -0.1245
     41  CA        38.6780  -44.2560  -18.9440 C.3    75  ARG75       0.1563
     42  C         38.6950  -44.7230  -17.4940 C.2    75  ARG75       0.2260
     43  O         37.6480  -44.9840  -16.9060 O.2    75  ARG75      -0.2867
     44  CB        38.3920  -42.7560  -19.0110 C.3    75  ARG75       0.0307
     45  CG        38.3800  -42.2030  -20.4230 C.3    75  ARG75       0.0489
     46  CD        38.7180  -40.7200  -20.4250 C.3    75  ARG75       0.2205
     47  NE        40.1380  -40.4870  -20.1730 N.pl3  75  ARG75      -0.0865
     48  CZ        40.7090  -39.2880  -20.1890 C.cat  75  ARG75       0.5346
     49  NH1       39.9770  -38.2100  -20.4450 N.pl3  75  ARG75       0.1354
     50  NH2       42.0110  -39.1650  -19.9580 N.pl3  75  ARG75       0.1354
     51  N         36.3100  -40.6930  -15.6910 N.3    98  TRP98      -0.1227
     52  CA        36.7460  -39.7170  -16.6900 C.3    98  TRP98       0.1737
     53  C         36.9810  -38.3370  -16.0600 C.2    98  TRP98       0.2596
     54  O         37.2910  -37.3640  -16.7480 O.2    98  TRP98      -0.2718
     55  CB        35.8210  -39.6580  -17.9220 C.3    98  TRP98       0.0564
     56  CG        34.3220  -39.6710  -17.6830 C.ar   98  TRP98       0.0003
     57  CD1       33.4530  -40.6810  -18.0040 C.ar   98  TRP98       0.0946
     58  CD2       33.5170  -38.6150  -17.1330 C.ar   98  TRP98       0.0152
     59  NE1       32.1660  -40.3260  -17.6720 N.ar   98  TRP98      -0.2442
     60  CE2       32.1780  -39.0650  -17.1340 C.ar   98  TRP98       0.0810
     61  CE3       33.7980  -37.3410  -16.6270 C.ar   98  TRP98       0.0012
     62  CZ2       31.1240  -38.2850  -16.6510 C.ar   98  TRP98       0.0191
     63  CZ3       32.7480  -36.5670  -16.1450 C.ar   98  TRP98       0.0001
     64  CH2       31.4300  -37.0420  -16.1620 C.ar   98  TRP98       0.0015
     65  N         36.8330  -38.2760  -14.7400 N.am   99  SER99      -0.1952
     66  CA        37.2260  -37.1170  -13.9420 C.3    99  SER99       0.1924
     67  C         37.5050  -37.6410  -12.5400 C.2    99  SER99       0.2314
     68  O         36.8200  -38.5520  -12.0770 O.2    99  SER99      -0.2863
     69  CB        36.1150  -36.0670  -13.9060 C.3    99  SER99       0.2116
     70  OG        36.5200  -34.9140  -13.1800 O.3    99  SER99      -0.2180
     71  N         27.4090  -33.0890  -16.6730 N.3   142  ILE142     -0.1245
     72  CA        28.8260  -33.4220  -16.5420 C.3   142  ILE142      0.1561
     73  C         29.4030  -33.0860  -15.1660 C.2   142  ILE142      0.2260
     74  O         30.2420  -32.1970  -15.0270 O.2   142  ILE142     -0.2867
     75  CB        29.6810  -32.7820  -17.6600 C.3   142  ILE142      0.0252
     76  CG1       29.0090  -32.9890  -19.0190 C.3   142  ILE142      0.0019
     77  CG2       31.1020  -33.3680  -17.6610 C.3   142  ILE142      0.0019
     78  CD1       29.7430  -32.3530  -20.1700 C.3   142  ILE142      0.0001
     79  N         31.8680  -33.0480  -12.4380 N.3   144  ARG144     -0.1245
     80  CA        33.3120  -33.1040  -12.6440 C.3   144  ARG144      0.1563
     81  C         34.0880  -32.5610  -11.4520 C.2   144  ARG144      0.2260
     82  O         33.5460  -31.8270  -10.6290 O.2   144  ARG144     -0.2867
     83  CB        33.6990  -32.3750  -13.9370 C.3   144  ARG144      0.0307
     84  CG        33.2270  -30.9210  -14.0160 C.3   144  ARG144      0.0489
     85  CD        33.1420  -30.4760  -15.4720 C.3   144  ARG144      0.2205
     86  NE        32.7850  -29.0660  -15.6350 N.pl3 144  ARG144     -0.0865
     87  CZ        31.5380  -28.6070  -15.7140 C.cat 144  ARG144      0.5346
     88  NH1       30.5120  -29.4420  -15.6270 N.pl3 144  ARG144      0.1354
     89  NH2       31.3160  -27.3080  -15.8790 N.pl3 144  ARG144      0.1354
     90  N         40.8690  -33.0820  -10.9390 N.3   147  GLU147     -0.1245
     91  CA        41.9880  -33.6060  -11.7290 C.3   147  GLU147      0.1567
     92  C         43.3150  -33.2870  -11.0390 C.2   147  GLU147      0.2260
     93  O         44.3400  -33.0910  -11.6920 O.2   147  GLU147     -0.2867
     94  CB        42.0050  -33.0540  -13.1620 C.3   147  GLU147      0.0388
     95  CG        40.6390  -32.8310  -13.8000 C.3   147  GLU147      0.1160
     96  CD        39.8240  -34.1020  -13.9490 C.2   147  GLU147      0.3649
     97  OE1       40.3070  -35.1790  -13.5490 O.co2 147  GLU147     -0.2457
     98  OE2       38.6890  -34.0180  -14.4690 O.co2 147  GLU147     -0.2457
     99  N         29.7250  -25.5880  -19.1560 N.3   166  ALA166     -0.1245
    100  CA        31.1530  -25.3080  -19.2400 C.3   166  ALA166      0.1562
    101  C         31.4210  -23.8500  -19.6090 C.2   166  ALA166      0.2260
    102  O         32.4800  -23.3120  -19.2870 O.2   166  ALA166     -0.2867
    103  CB        31.8070  -26.2320  -20.2570 C.3   166  ALA166      0.0290
    104  N         36.2600  -24.4870  -12.0170 N.3   196  GLU196     -0.1231
    105  CA        36.5170  -25.8430  -12.4930 C.3   196  GLU196      0.1699
    106  C         37.9350  -26.2430  -12.1270 C.2   196  GLU196      0.2592
    107  O         38.7950  -25.3880  -11.9580 O.2   196  GLU196     -0.2718
    108  CB        36.3810  -25.9140  -14.0100 C.3   196  GLU196      0.0402
    109  CG        34.9670  -25.8510  -14.5350 C.3   196  GLU196      0.1161
    110  CD        34.9100  -26.0290  -16.0400 C.2   196  GLU196      0.3649
    111  OE1       33.8450  -26.4330  -16.5520 O.co2 196  GLU196     -0.2457
    112  OE2       35.9350  -25.7710  -16.7110 O.co2 196  GLU196     -0.2457
    113  N         38.1680  -27.5450  -12.0020 N.am  197  GLU197     -0.1979
    114  CA        39.5230  -28.0850  -11.8940 C.3   197  GLU197      0.1602
    115  C         40.4010  -27.3520  -10.8800 C.2   197  GLU197      0.2287
    116  O         41.5210  -26.9390  -11.1920 O.2   197  GLU197     -0.2864
    117  CB        40.1780  -28.1080  -13.2800 C.3   197  GLU197      0.0415
    118  CG        39.4330  -29.0060  -14.2640 C.3   197  GLU197      0.1163
    119  CD        39.9410  -28.9010  -15.6870 C.2   197  GLU197      0.3649
    120  OE1       40.5850  -27.8870  -16.0220 O.co2 197  GLU197     -0.2457
    121  OE2       39.6780  -29.8340  -16.4770 O.co2 197  GLU197     -0.2457
    122  N         40.0580  -22.8250  -12.3130 N.3   212  ARG212     -0.1245
    123  CA        39.9250  -22.4410  -13.7090 C.3   212  ARG212      0.1563
    124  C         38.5370  -21.8730  -13.9570 C.2   212  ARG212      0.2260
    125  O         37.5320  -22.5160  -13.6560 O.2   212  ARG212     -0.2867
    126  CB        40.1570  -23.6630  -14.6010 C.3   212  ARG212      0.0307
    127  CG        39.6960  -23.5190  -16.0510 C.3   212  ARG212      0.0489
    128  CD        39.8940  -24.8400  -16.7850 C.3   212  ARG212      0.2205
    129  NE        39.3730  -24.8350  -18.1520 N.pl3 212  ARG212     -0.0865
    130  CZ        39.5450  -25.8400  -19.0070 C.cat 212  ARG212      0.5346
    131  NH1       40.2280  -26.9150  -18.6280 N.pl3 212  ARG212      0.1354
    132  NH2       39.0440  -25.7760  -20.2360 N.pl3 212  ARG212      0.1354
    133  N         36.1240  -21.0890  -16.8330 N.3   214  ASN214     -0.1240
    134  CA        35.9890  -21.4570  -18.2410 C.3   214  ASN214      0.1653
    135  C         34.9290  -20.6070  -18.9310 C.2   214  ASN214      0.2266
    136  O         34.4730  -20.9260  -20.0270 O.2   214  ASN214     -0.2867
    137  CB        35.6320  -22.9400  -18.3670 C.3   214  ASN214      0.1155
    138  CG        36.1260  -23.5530  -19.6640 C.2   214  ASN214      0.2627
    139  OD1       37.3120  -23.4780  -19.9870 O.2   214  ASN214     -0.2716
    140  ND2       35.2200  -24.1770  -20.4090 N.am  214  ASN214     -0.0877
    141  N         37.0090  -20.5110  -22.5260 N.3   268  TYR268     -0.1241
    142  CA        38.0300  -21.5440  -22.4240 C.3   268  TYR268      0.1605
    143  C         38.9500  -21.2540  -21.2620 C.2   268  TYR268      0.2264
    144  O         38.7280  -20.3110  -20.5180 O.2   268  TYR268     -0.2867
    145  CB        38.8270  -21.6760  -23.7230 C.3   268  TYR268      0.0534
    146  CG        39.3790  -23.0710  -23.9430 C.ar  268  TYR268     -0.0201
    147  CD1       38.5460  -24.1820  -23.8820 C.ar  268  TYR268     -0.0009
    148  CD2       40.7230  -23.2750  -24.2260 C.ar  268  TYR268     -0.0009
    149  CE1       39.0370  -25.4620  -24.0860 C.ar  268  TYR268      0.0417
    150  CE2       41.2250  -24.5510  -24.4340 C.ar  268  TYR268      0.0417
    151  CZ        40.3780  -25.6410  -24.3630 C.ar  268  TYR268      0.1957
    152  OH        40.8690  -26.9130  -24.5710 O.3   268  TYR268     -0.2866
    153  N         48.3840  -23.7830  -25.3060 N.3   292  ARG292     -0.1245
    154  CA        49.0460  -24.4730  -24.2130 C.3   292  ARG292      0.1563
    155  C         50.4770  -24.7880  -24.6180 C.2   292  ARG292      0.2260
    156  O         50.8150  -25.9200  -24.9770 O.2   292  ARG292     -0.2867
    157  CB        48.2580  -25.7210  -23.8300 C.3   292  ARG292      0.0307
    158  CG        46.8770  -25.3540  -23.2970 C.3   292  ARG292      0.0489
    159  CD        45.9300  -26.5340  -23.2510 C.3   292  ARG292      0.2205
    160  NE        44.6530  -26.1430  -22.6600 N.pl3 292  ARG292     -0.0865
    161  CZ        43.6670  -26.9900  -22.3920 C.cat 292  ARG292      0.5346
    162  NH1       43.8120  -28.2770  -22.6710 N.pl3 292  ARG292      0.1354
    163  NH2       42.5390  -26.5540  -21.8440 N.pl3 292  ARG292      0.1354
    164  N         47.8060  -28.9550  -18.6220 N.3   326  TYR326     -0.1241
    165  CA        47.3750  -28.7630  -17.2410 C.3   326  TYR326      0.1605
    166  C         48.5650  -28.6440  -16.2950 C.2   326  TYR326      0.2264
    167  O         49.6530  -29.1320  -16.5840 O.2   326  TYR326     -0.2867
    168  CB        46.4980  -29.9360  -16.7930 C.3   326  TYR326      0.0534
    169  CG        45.0670  -29.8760  -17.2710 C.ar  326  TYR326     -0.0201
    170  CD1       44.6840  -29.0020  -18.2810 C.ar  326  TYR326     -0.0009
    171  CD2       44.0970  -30.6970  -16.7110 C.ar  326  TYR326     -0.0009
    172  CE1       43.3750  -28.9440  -18.7150 C.ar  326  TYR326      0.0417
    173  CE2       42.7860  -30.6470  -17.1390 C.ar  326  TYR326      0.0417
    174  CZ        42.4310  -29.7680  -18.1420 C.ar  326  TYR326      0.1957
    175  OH        41.1240  -29.7120  -18.5750 O.3   326  TYR326     -0.2866
@<TRIPOS>BOND
     1   153   154    1
     2   156   155    2
     3   155   154    1
     4   152   151    1
     5   150   151   ar
     6   150   148   ar
     7    21    22    1
     8   151   149   ar
     9   148   146   ar
    10   154   157    1
    11   149   147   ar
    12   146   147   ar
    13   146   145    1
    14   157   158    1
    15   145   142    1
    16    32    31    2
    17   158   159    1
    18   159   160    1
    19    27    26   ar
    20    28    26   ar
    21    22    25    1
    22    22    23    1
    23    26    25    1
    24   162   161    1
    25   160   161    2
    26    39    37    1
    27    29    23   am
    28    29    30    1
    29   141   142    1
    30     7     6    1
    31     7     8    1
    32    31    30    1
    33   142   143    1
    34   161   163    1
    35    10     9    1
    36    23    24    2
    37     6     5    1
    38    30    33    1
    39    37    38    1
    40    37    36    2
    41     8     9    2
    42     9    11    1
    43   143   144    2
    44    33    34    1
    45    36    35    1
    46     5     2    1
    47    49    48    1
    48    46    45    1
    49    46    47    1
    50    45    44    1
    51   140   138   am
    52    34    35    1
    53   103   100    1
    54   132   130    1
    55    48    47    2
    56    48    50    1
    57    78    76    1
    58   136   135    2
    59     1     2    1
    60   139   138    2
    61     2     3    1
    62    40    41    1
    63   138   137    1
    64   101   102    2
    65   101   100    1
    66    19    18   ar
    67   100    99    1
    68    76    75    1
    69    44    41    1
    70   130   131    1
    71   130   129    2
    72    41    42    1
    73   135   134    1
    74   172   170   ar
    75   172   174   ar
    76    20    18   ar
    77   164   165    1
    78    18    17    1
    79   175   174    1
    80     3    12   am
    81     3     4    2
    82   137   134    1
    83   170   169   ar
    84   134   133    1
    85   129   128    1
    86   174   173   ar
    87    57    56   ar
    88    57    59   ar
    89    12    13    1
    90    55    56    1
    91    55    52    1
    92    56    58   ar
    93    59    60   ar
    94    77    75    1
    95    75    72    1
    96    42    43    2
    97   169   168    1
    98   169   171   ar
    99    17    16    1
   100   165   168    1
   101   165   166    1
   102   173   171   ar
   103    60    58   ar
   104    60    62   ar
   105    58    61   ar
   106   128   127    1
   107    54    53    2
   108   112   110   ar
   109    52    53    1
   110    52    51    1
   111    71    72    1
   112    62    64   ar
   113    13    16    1
   114    13    14    1
   115    61    63   ar
   116   167   166    2
   117   111   110   ar
   118    72    73    1
   119   121   119   ar
   120    64    63   ar
   121    53    65   am
   122   127   126    1
   123   110   109    1
   124   120   119   ar
   125    89    87    1
   126    87    86    2
   127    87    88    1
   128   119   118    1
   129    86    85    1
   130    14    15    2
   131    85    84    1
   132    73    74    2
   133    65    66    1
   134   126   123    1
   135   109   108    1
   136    98    96   ar
   137   118   117    1
   138    84    83    1
   139   108   105    1
   140   124   123    1
   141   124   125    2
   142    96    95    1
   143    96    97   ar
   144    66    69    1
   145    66    67    1
   146    83    80    1
   147    69    70    1
   148    95    94    1
   149   123   122    1
   150   117   114    1
   151    94    91    1
   152    80    79    1
   153    80    81    1
   154    67    68    2
   155   105   106    1
   156   105   104    1
   157   106   113   am
   158   106   107    2
   159   113   114    1
   160   114   115    1
   161    91    92    1
   162    91    90    1
   163    93    92    2
   164    81    82    2
   165   116   115    2
