@<TRIPOS>MOLECULE
tmp/4qn6A00.pdb
 171 160 0 0 0
SMALL
GASTEIGER

@<TRIPOS>ATOM
      1  N        150.9740  -53.2980  165.1530 N.3    37  ARG37      -0.1231
      2  CA       151.1520  -51.8520  165.1250 C.3    37  ARG37       0.1694
      3  C        151.6420  -51.5260  163.7270 C.2    37  ARG37       0.2591
      4  O        151.8080  -52.4350  162.9040 O.2    37  ARG37      -0.2718
      5  CB       152.1220  -51.3300  166.1970 C.3    37  ARG37       0.0321
      6  CG       151.4190  -50.6720  167.4100 C.3    37  ARG37       0.0489
      7  CD       152.2370  -49.4950  167.9480 C.3    37  ARG37       0.2205
      8  NE       152.3080  -48.4240  166.9580 N.pl3  37  ARG37      -0.0865
      9  CZ       153.3020  -47.5490  166.8480 C.cat  37  ARG37       0.5346
     10  NH1      153.2490  -46.6210  165.8950 N.pl3  37  ARG37       0.1354
     11  NH2      154.3350  -47.5900  167.6870 N.pl3  37  ARG37       0.1354
     12  N        151.8580  -50.2410  163.4580 N.am   38  GLU38      -0.1979
     13  CA       152.2970  -49.7890  162.1360 C.3    38  GLU38       0.1602
     14  C        151.3970  -50.2940  160.9970 C.2    38  GLU38       0.2287
     15  O        151.8750  -50.9070  160.0420 O.2    38  GLU38      -0.2864
     16  CB       153.7560  -50.1940  161.8920 C.3    38  GLU38       0.0415
     17  CG       154.7650  -49.5860  162.8960 C.3    38  GLU38       0.1163
     18  CD       154.8750  -50.3720  164.2060 C.2    38  GLU38       0.3649
     19  OE1      155.1710  -49.7550  165.2600 O.co2  38  GLU38      -0.2457
     20  OE2      154.6870  -51.6060  164.1850 O.co2  38  GLU38      -0.2457
     21  N        152.0080  -54.7330  161.0180 N.3    53  LEU53      -0.1245
     22  CA       153.0550  -55.5860  161.5400 C.3    53  LEU53       0.1561
     23  C        152.5240  -56.3410  162.7480 C.2    53  LEU53       0.2260
     24  O        152.2930  -55.7570  163.8130 O.2    53  LEU53      -0.2867
     25  CB       154.2760  -54.7600  161.9320 C.3    53  LEU53       0.0270
     26  CG       155.0140  -54.1060  160.7590 C.3    53  LEU53       0.0019
     27  CD1      156.1370  -53.2110  161.2600 C.3    53  LEU53       0.0001
     28  CD2      155.5670  -55.1760  159.8120 C.3    53  LEU53       0.0001
     29  N        159.6470  -52.7980  169.6730 N.3    70  ASP70      -0.1225
     30  CA       159.5030  -52.5490  168.2420 C.3    70  ASP70       0.1805
     31  C        159.9260  -53.7030  167.3420 C.2    70  ASP70       0.2597
     32  O        159.3190  -53.9230  166.2960 O.2    70  ASP70      -0.2718
     33  CB       160.3060  -51.3070  167.8340 C.3    70  ASP70       0.1424
     34  CG       159.5900  -50.0160  168.1450 C.2    70  ASP70       0.3668
     35  OD1      158.4010  -49.8970  167.7860 O.co2  70  ASP70      -0.2456
     36  OD2      160.2290  -49.1140  168.7420 O.co2  70  ASP70      -0.2456
     37  N        160.9820  -54.4180  167.7190 N.am   71  ARG71      -0.1979
     38  CA       161.6210  -55.3510  166.7900 C.3    71  ARG71       0.1597
     39  C        161.9150  -56.6970  167.4440 C.2    71  ARG71       0.2287
     40  O        162.6160  -56.7720  168.4520 O.2    71  ARG71      -0.2864
     41  CB       162.9260  -54.7390  166.2380 C.3    71  ARG71       0.0334
     42  CG       162.7270  -53.4160  165.4770 C.3    71  ARG71       0.0492
     43  CD       164.0610  -52.7660  165.0440 C.3    71  ARG71       0.2205
     44  NE       164.9220  -52.4860  166.1930 N.pl3  71  ARG71      -0.0865
     45  CZ       164.7720  -51.4470  167.0110 C.cat  71  ARG71       0.5346
     46  NH1      163.7990  -50.5630  166.8160 N.pl3  71  ARG71       0.1354
     47  NH2      165.6050  -51.2910  168.0320 N.pl3  71  ARG71       0.1354
     48  N        157.6470  -60.8320  164.6180 N.3    75  ARG75      -0.1245
     49  CA       156.8450  -59.9020  163.8330 C.3    75  ARG75       0.1563
     50  C        156.8050  -60.2830  162.3520 C.2    75  ARG75       0.2260
     51  O        157.7310  -60.9030  161.8260 O.2    75  ARG75      -0.2867
     52  CB       157.3810  -58.4710  163.9910 C.3    75  ARG75       0.0307
     53  CG       157.4290  -58.0120  165.4420 C.3    75  ARG75       0.0489
     54  CD       157.3300  -56.4990  165.5420 C.3    75  ARG75       0.2205
     55  NE       155.9630  -56.0190  165.3090 N.pl3  75  ARG75      -0.0865
     56  CZ       155.5950  -54.7510  165.4700 C.cat  75  ARG75       0.5346
     57  NH1      156.4930  -53.8610  165.8540 N.pl3  75  ARG75       0.1354
     58  NH2      154.3370  -54.3750  165.2570 N.pl3  75  ARG75       0.1354
     59  N        160.0400  -56.4670  160.8000 N.3    98  TRP98      -0.1227
     60  CA       159.5630  -55.4660  161.7430 C.3    98  TRP98       0.1737
     61  C        159.5230  -54.0380  161.1740 C.2    98  TRP98       0.2596
     62  O        159.3820  -53.0530  161.9160 O.2    98  TRP98      -0.2718
     63  CB       160.3870  -55.5300  163.0390 C.3    98  TRP98       0.0564
     64  CG       161.8750  -55.7880  162.8760 C.ar   98  TRP98       0.0003
     65  CD1      162.5780  -56.8770  163.3310 C.ar   98  TRP98       0.0946
     66  CD2      162.8390  -54.9200  162.2640 C.ar   98  TRP98       0.0152
     67  NE1      163.9160  -56.7410  163.0220 N.ar   98  TRP98      -0.2442
     68  CE2      164.0980  -55.5480  162.3680 C.ar   98  TRP98       0.0810
     69  CE3      162.7570  -53.6760  161.6290 C.ar   98  TRP98       0.0012
     70  CZ2      165.2630  -54.9740  161.8550 C.ar   98  TRP98       0.0191
     71  CZ3      163.9120  -53.1120  161.1200 C.ar   98  TRP98       0.0001
     72  CH2      165.1490  -53.7620  161.2360 C.ar   98  TRP98       0.0015
     73  N        159.6430  -53.9440  159.8530 N.am   99  SER99      -0.1952
     74  CA       159.4650  -52.6910  159.1200 C.3    99  SER99       0.1924
     75  C        159.0560  -53.1060  157.7190 C.2    99  SER99       0.2314
     76  O        159.6350  -54.0390  157.1710 O.2    99  SER99      -0.2863
     77  CB       160.7790  -51.9060  159.0490 C.3    99  SER99       0.2116
     78  OG       160.5570  -50.6450  158.4360 O.3    99  SER99      -0.2180
     79  N        169.7190  -50.4900  162.0210 N.3   142  ILE142     -0.1245
     80  CA       168.2680  -50.5980  161.8510 C.3   142  ILE142      0.1561
     81  C        167.7720  -50.1450  160.4690 C.2   142  ILE142      0.2260
     82  O        167.0430  -49.1610  160.3440 O.2   142  ILE142     -0.2867
     83  CB       167.5030  -49.8890  163.0030 C.3   142  ILE142      0.0252
     84  CG1      168.1520  -50.2290  164.3490 C.3   142  ILE142      0.0019
     85  CG2      166.0080  -50.2980  163.0120 C.3   142  ILE142      0.0019
     86  CD1      167.4990  -49.5320  165.5440 C.3   142  ILE142      0.0001
     87  N        165.4220  -49.7110  157.6560 N.3   144  ARG144     -0.1245
     88  CA       163.9790  -49.5990  157.8660 C.3   144  ARG144      0.1563
     89  C        163.3090  -48.8290  156.7360 C.2   144  ARG144      0.2260
     90  O        163.9800  -48.1750  155.9350 O.2   144  ARG144     -0.2867
     91  CB       163.7030  -48.9330  159.2180 C.3   144  ARG144      0.0307
     92  CG       164.3650  -47.5580  159.3750 C.3   144  ARG144      0.0489
     93  CD       164.4990  -47.1620  160.8500 C.3   144  ARG144      0.2205
     94  NE       165.0310  -45.8060  161.0500 N.pl3 144  ARG144     -0.0865
     95  CZ       166.3280  -45.5040  161.1470 C.cat 144  ARG144      0.5346
     96  NH1      167.2520  -46.4520  161.0430 N.pl3 144  ARG144      0.1354
     97  NH2      166.7000  -44.2470  161.3490 N.pl3 144  ARG144      0.1354
     98  N        156.5170  -48.0990  156.2730 N.3   147  GLU147     -0.1245
     99  CA       155.3580  -48.4730  157.1040 C.3   147  GLU147      0.1567
    100  C        154.0260  -47.9960  156.5240 C.2   147  GLU147      0.2260
    101  O        153.0310  -47.8940  157.2430 O.2   147  GLU147     -0.2867
    102  CB       155.4920  -48.0030  158.5610 C.3   147  GLU147      0.0388
    103  CG       156.9090  -48.0320  159.1350 C.3   147  GLU147      0.1160
    104  CD       157.4880  -49.4210  159.2920 C.2   147  GLU147      0.3649
    105  OE1      158.6300  -49.5060  159.8060 O.co2 147  GLU147     -0.2457
    106  OE2      156.8230  -50.4210  158.9120 O.co2 147  GLU147     -0.2457
    107  N        168.6220  -42.8170  164.7200 N.3   166  ALA166     -0.1245
    108  CA       167.3010  -42.2080  164.8510 C.3   166  ALA166      0.1562
    109  C        167.4270  -40.7600  165.3080 C.2   166  ALA166      0.2260
    110  O        166.4780  -39.9710  165.1990 O.2   166  ALA166     -0.2867
    111  CB       166.4830  -42.9860  165.8510 C.3   166  ALA166      0.0290
    112  N        162.3500  -40.6090  157.6600 N.3   196  GLU196     -0.1231
    113  CA       161.8240  -41.9000  158.0900 C.3   196  GLU196      0.1699
    114  C        160.3700  -42.0210  157.6690 C.2   196  GLU196      0.2592
    115  O        159.6710  -41.0130  157.5250 O.2   196  GLU196     -0.2718
    116  CB       161.9100  -42.0390  159.6140 C.3   196  GLU196      0.0402
    117  CG       163.3310  -42.0150  160.1760 C.3   196  GLU196      0.1161
    118  CD       163.3770  -42.3330  161.6570 C.2   196  GLU196      0.3649
    119  OE1      164.3410  -43.0050  162.0950 O.co2 196  GLU196     -0.2457
    120  OE2      162.4430  -41.9100  162.3740 O.co2 196  GLU196     -0.2457
    121  N        159.9240  -43.2590  157.4770 N.am  197  GLU197     -0.1979
    122  CA       158.4960  -43.5650  157.4160 C.3   197  GLU197      0.1602
    123  C        157.6950  -42.7080  156.4400 C.2   197  GLU197      0.2287
    124  O        156.6650  -42.1270  156.7980 O.2   197  GLU197     -0.2864
    125  CB       157.9110  -43.4850  158.8320 C.3   197  GLU197      0.0415
    126  CG       158.6050  -44.4590  159.7970 C.3   197  GLU197      0.1163
    127  CD       158.0680  -44.3960  161.2190 C.2   197  GLU197      0.3649
    128  OE1      157.5790  -43.3220  161.6220 O.co2 197  GLU197     -0.2457
    129  OE2      158.1460  -45.4250  161.9350 O.co2 197  GLU197     -0.2457
    130  N        158.9380  -38.3180  158.0960 N.3   212  ARG212     -0.1245
    131  CA       159.1980  -37.9850  159.4910 C.3   212  ARG212      0.1563
    132  C        160.6830  -37.6680  159.6730 C.2   212  ARG212      0.2260
    133  O        161.5440  -38.4910  159.3530 O.2   212  ARG212     -0.2867
    134  CB       158.7990  -39.1780  160.3740 C.3   212  ARG212      0.0307
    135  CG       159.3440  -39.1980  161.8000 C.3   212  ARG212      0.0489
    136  CD       159.0230  -40.5600  162.4380 C.3   212  ARG212      0.2205
    137  NE       159.5440  -40.7370  163.7950 N.pl3 212  ARG212     -0.0865
    138  CZ       159.1250  -41.6860  164.6330 C.cat 212  ARG212      0.5346
    139  NH1      158.1770  -42.5390  164.2610 N.pl3 212  ARG212      0.1354
    140  NH2      159.6420  -41.7740  165.8520 N.pl3 212  ARG212      0.1354
    141  N        163.1410  -37.3450  162.4610 N.3   214  ASN214     -0.1240
    142  CA       163.1870  -37.7530  163.8580 C.3   214  ASN214      0.1653
    143  C        164.3260  -37.0690  164.6010 C.2   214  ASN214      0.2266
    144  O        164.4700  -37.2180  165.8150 O.2   214  ASN214     -0.2867
    145  CB       163.3620  -39.2680  163.9630 C.3   214  ASN214      0.1155
    146  CG       162.8110  -39.8240  165.2600 C.2   214  ASN214      0.2627
    147  OD1      161.6090  -39.7370  165.5100 O.2   214  ASN214     -0.2716
    148  ND2      163.6760  -40.4140  166.0810 N.am  214  ASN214     -0.0877
    149  N        150.6230  -38.3730  171.0070 N.3   291  ARG291     -0.1245
    150  CA       149.8250  -38.9820  169.9500 C.3   291  ARG291      0.1563
    151  C        148.3630  -39.1020  170.3720 C.2   291  ARG291      0.2260
    152  O        147.8410  -40.2060  170.5790 O.2   291  ARG291     -0.2867
    153  CB       150.4220  -40.3420  169.5700 C.3   291  ARG291      0.0307
    154  CG       151.8640  -40.2220  169.0430 C.3   291  ARG291      0.0489
    155  CD       152.6010  -41.5560  168.9960 C.3   291  ARG291      0.2205
    156  NE       153.9420  -41.3860  168.4230 N.pl3 291  ARG291     -0.0865
    157  CZ       154.7480  -42.3790  168.0620 C.cat 291  ARG291      0.5346
    158  NH1      154.3690  -43.6430  168.2230 N.pl3 291  ARG291      0.1354
    159  NH2      155.9370  -42.1030  167.5400 N.pl3 291  ARG291      0.1354
    160  N        150.2540  -43.4490  164.3040 N.3   325  TYR325     -0.1241
    161  CA       150.7010  -43.2800  162.9220 C.3   325  TYR325      0.1605
    162  C        149.5390  -42.9250  161.9970 C.2   325  TYR325      0.2264
    163  O        148.3880  -43.2850  162.2540 O.2   325  TYR325     -0.2867
    164  CB       151.3770  -44.5570  162.4170 C.3   325  TYR325      0.0534
    165  CG       152.8220  -44.6900  162.8400 C.ar  325  TYR325     -0.0201
    166  CD1      153.3450  -43.8960  163.8510 C.ar  325  TYR325     -0.0009
    167  CD2      153.6700  -45.5880  162.2050 C.ar  325  TYR325     -0.0009
    168  CE1      154.6720  -44.0010  164.2280 C.ar  325  TYR325      0.0417
    169  CE2      154.9960  -45.6990  162.5700 C.ar  325  TYR325      0.0417
    170  CZ       155.4880  -44.9010  163.5800 C.ar  325  TYR325      0.1957
    171  OH       156.8140  -45.0000  163.9420 O.3   325  TYR325     -0.2866
@<TRIPOS>BOND
     1    90    89    2
     2    98    99    1
     3   123   124    2
     4   123   122    1
     5   100    99    1
     6   100   101    2
     7    89    88    1
     8    99   102    1
     9    76    75    2
    10   122   121    1
    11   122   125    1
    12   121   114   am
    13   115   114    2
    14    87    88    1
    15   112   113    1
    16   114   113    1
    17    75    74    1
    18    88    91    1
    19   113   116    1
    20   130   131    1
    21    78    77    1
    22   102   103    1
    23   125   126    1
    24   106   104   ar
    25    77    74    1
    26    74    73    1
    27   103   104    1
    28    91    92    1
    29   104   105   ar
    30   133   132    2
    31    92    93    1
    32   131   132    1
    33   131   134    1
    34   116   117    1
    35   126   127    1
    36    28    26    1
    37    73    61   am
    38    15    14    2
    39   117   118    1
    40    82    81    2
    41   134   135    1
    42    81    80    1
    43    26    27    1
    44    26    25    1
    45    59    60    1
    46    93    94    1
    47    14    13    1
    48    21    22    1
    49    96    95    1
    50    94    95    2
    51    71    72   ar
    52    71    69   ar
    53    95    97    1
    54    61    60    1
    55    61    62    2
    56   127   128   ar
    57   127   129   ar
    58    72    70   ar
    59    22    25    1
    60    22    23    1
    61    69    66   ar
    62   118   119   ar
    63   118   120   ar
    64    60    63    1
    65   135   136    1
    66    51    50    2
    67    80    79    1
    68    80    83    1
    69    70    68   ar
    70    16    13    1
    71    16    17    1
    72   162   163    2
    73   162   161    1
    74    13    12    1
    75   167   169   ar
    76   167   165   ar
    77    66    68   ar
    78    66    64   ar
    79    50    49    1
    80    68    67   ar
    81   164   165    1
    82   164   161    1
    83   136   137    1
    84   141   142    1
    85   169   170   ar
    86    23    24    2
    87   165   166   ar
    88    64    63    1
    89    64    65   ar
    90    17    18    1
    91     4     3    2
    92   161   160    1
    93    83    85    1
    94    83    84    1
    95    67    65   ar
    96    12     3   am
    97   170   171    1
    98   170   168   ar
    99     3     2    1
   100   137   138    2
   101    49    52    1
   102    49    48    1
   103   166   168   ar
   104   142   145    1
   105   142   143    1
   106   145   146    1
   107    52    53    1
   108    20    18   ar
   109    18    19   ar
   110   139   138    1
   111    84    86    1
   112   143   144    2
   113   138   140    1
   114   107   108    1
   115   108   109    1
   116   108   111    1
   117    43    42    1
   118    43    44    1
   119     2     1    1
   120     2     5    1
   121   110   109    2
   122    58    56    1
   123   146   147    2
   124   146   148   am
   125    55    56    2
   126    55    54    1
   127    53    54    1
   128    56    57    1
   129    42    41    1
   130    10     9    1
   131    44    45    2
   132     5     6    1
   133    41    38    1
   134    32    31    2
   135    38    39    1
   136    38    37    1
   137    46    45    1
   138     9     8    2
   139     9    11    1
   140     8     7    1
   141    45    47    1
   142    31    37   am
   143    31    30    1
   144     6     7    1
   145    39    40    2
   146   159   157    1
   147    35    34   ar
   148    33    34    1
   149    33    30    1
   150   157   158    1
   151   157   156    2
   152    34    36   ar
   153    30    29    1
   154   156   155    1
   155   155   154    1
   156   154   153    1
   157   153   150    1
   158   150   151    1
   159   150   149    1
   160   151   152    2
