@<TRIPOS>MOLECULE
tmp/4qn7B00.pdb
 163 153 0 0 0
SMALL
GASTEIGER

@<TRIPOS>ATOM
      1  N         37.6430  111.7630  157.1580 N.3    36  ARG36      -0.1231
      2  CA        36.2730  112.2750  157.2180 C.3    36  ARG36       0.1694
      3  C         35.7070  112.0750  158.6230 C.2    36  ARG36       0.2591
      4  O         36.3840  111.5330  159.5030 O.2    36  ARG36      -0.2718
      5  CB        35.3540  111.6430  156.1650 C.3    36  ARG36       0.0321
      6  CG        35.0040  112.5950  155.0010 C.3    36  ARG36       0.0489
      7  CD        33.5550  112.4140  154.5140 C.3    36  ARG36       0.2205
      8  NE        32.5810  112.8880  155.5000 N.pl3  36  ARG36      -0.0865
      9  CZ        31.2930  112.5490  155.5090 C.cat  36  ARG36       0.5346
     10  NH1       30.8050  111.7260  154.5880 N.pl3  36  ARG36       0.1354
     11  NH2       30.4860  113.0270  156.4480 N.pl3  36  ARG36       0.1354
     12  N         34.4610  112.4970  158.8190 N.am   37  GLU37      -0.1979
     13  CA        33.8220  112.5130  160.1380 C.3    37  GLU37       0.1602
     14  C         34.7620  112.8500  161.2990 C.2    37  GLU37       0.2287
     15  O         35.0370  112.0080  162.1530 O.2    37  GLU37      -0.2864
     16  CB        33.0100  111.2300  160.3980 C.3    37  GLU37       0.0415
     17  CG        33.6550  109.9130  159.9750 C.3    37  GLU37       0.1163
     18  CD        33.5940  109.6430  158.4730 C.2    37  GLU37       0.3649
     19  OE1       32.5730  109.9620  157.8240 O.co2  37  GLU37      -0.2457
     20  OE2       34.5860  109.1010  157.9410 O.co2  37  GLU37      -0.2457
     21  N         32.8170  104.4360  152.7000 N.3    69  ASP69      -0.1225
     22  CA        32.7620  104.7040  154.1320 C.3    69  ASP69       0.1805
     23  C         33.5930  103.7450  154.9670 C.2    69  ASP69       0.2597
     24  O         34.2550  104.1580  155.9220 O.2    69  ASP69      -0.2718
     25  CB        31.3150  104.6880  154.6230 C.3    69  ASP69       0.1424
     26  CG        30.5180  105.8580  154.1000 C.2    69  ASP69       0.3668
     27  OD1       30.7730  106.9930  154.5560 O.co2  69  ASP69      -0.2456
     28  OD2       29.6440  105.6460  153.2340 O.co2  69  ASP69      -0.2456
     29  N         33.5570  102.4650  154.6100 N.am   70  ARG70      -0.1979
     30  CA        34.1070  101.4290  155.4790 C.3    70  ARG70       0.1597
     31  C         35.1050  100.5180  154.7700 C.2    70  ARG70       0.2287
     32  O         34.7440   99.7670  153.8580 O.2    70  ARG70      -0.2864
     33  CB        32.9680  100.6100  156.0880 C.3    70  ARG70       0.0334
     34  CG        32.0030  101.4640  156.9110 C.3    70  ARG70       0.0492
     35  CD        30.7530  100.7010  157.3270 C.3    70  ARG70       0.2205
     36  NE        30.0470  100.1390  156.1800 N.pl3  70  ARG70      -0.0865
     37  CZ        29.2140  100.8260  155.4030 C.cat  70  ARG70       0.5346
     38  NH1       28.9720  102.1130  155.6370 N.pl3  70  ARG70       0.1354
     39  NH2       28.6200  100.2270  154.3800 N.pl3  70  ARG70       0.1354
     40  N         40.9040  101.9500  157.4080 N.3    74  ARG74      -0.1245
     41  CA        40.3800  103.0790  158.1600 C.3    74  ARG74       0.1563
     42  C         40.7710  102.9400  159.6260 C.2    74  ARG74       0.2260
     43  O         40.8940  101.8280  160.1440 O.2    74  ARG74      -0.2867
     44  CB        38.8560  103.1240  158.0410 C.3    74  ARG74       0.0307
     45  CG        38.3200  103.6090  156.6920 C.3    74  ARG74       0.0489
     46  CD        38.0790  105.1090  156.7200 C.3    74  ARG74       0.2205
     47  NE        36.7070  105.4510  156.3880 N.pl3  74  ARG74      -0.0865
     48  CZ        36.1850  106.6660  156.5280 C.cat  74  ARG74       0.5346
     49  NH1       36.9220  107.6720  156.9940 N.pl3  74  ARG74       0.1354
     50  NH2       34.9210  106.8790  156.1970 N.pl3  74  ARG74       0.1354
     51  N         35.9560  102.0980  161.4090 N.3    97  TRP97      -0.1227
     52  CA        35.3010  103.0340  160.5020 C.3    97  TRP97       0.1737
     53  C         34.1290  103.7780  161.1420 C.2    97  TRP97       0.2596
     54  O         33.2990  104.3630  160.4430 O.2    97  TRP97      -0.2718
     55  CB        34.8560  102.3200  159.2190 C.3    97  TRP97       0.0564
     56  CG        34.4130  100.9040  159.4210 C.ar   97  TRP97       0.0003
     57  CD1       35.0610   99.7770  159.0100 C.ar   97  TRP97       0.0946
     58  CD2       33.2200  100.4640  160.0780 C.ar   97  TRP97       0.0152
     59  NE1       34.3450   98.6600  159.3730 N.ar   97  TRP97      -0.2442
     60  CE2       33.2060   99.0580  160.0310 C.ar   97  TRP97       0.0810
     61  CE3       32.1570  101.1250  160.7000 C.ar   97  TRP97       0.0012
     62  CZ2       32.1780   98.3010  160.5850 C.ar   97  TRP97       0.0191
     63  CZ3       31.1370  100.3750  161.2470 C.ar   97  TRP97       0.0001
     64  CH2       31.1550   98.9800  161.1900 C.ar   97  TRP97       0.0015
     65  N         34.0750  103.7490  162.4720 N.am   98  SER98      -0.1952
     66  CA        33.1350  104.5570  163.2470 C.3    98  SER98       0.1924
     67  C         33.7180  104.7180  164.6450 C.2    98  SER98       0.2314
     68  O         34.2520  103.7610  165.2110 O.2    98  SER98      -0.2863
     69  CB        31.7570  103.8910  163.3160 C.3    98  SER98       0.2116
     70  OG        30.8110  104.7330  163.9610 O.3    98  SER98      -0.2180
     71  N         26.1760   96.9240  160.3750 N.3   141  ILE141     -0.1245
     72  CA        26.9790   98.1230  160.6160 C.3   141  ILE141      0.1561
     73  C         26.7700   98.7020  162.0100 C.2   141  ILE141      0.2260
     74  O         26.1510   99.7550  162.1650 O.2   141  ILE141     -0.2867
     75  CB        26.7240   99.2110  159.5360 C.3   141  ILE141      0.0252
     76  CG1       26.7020   98.5810  158.1390 C.3   141  ILE141      0.0019
     77  CG2       27.7820  100.3060  159.6110 C.3   141  ILE141      0.0019
     78  CD1       26.4680   99.5740  157.0030 C.3   141  ILE141      0.0001
     79  N         27.6340  100.8950  164.9080 N.3   143  ARG143     -0.1245
     80  CA        28.1950  102.2250  164.6700 C.3   143  ARG143      0.1563
     81  C         27.9120  103.2080  165.8100 C.2   143  ARG143      0.2260
     82  O         27.0170  102.9780  166.6230 O.2   143  ARG143     -0.2867
     83  CB        27.6570  102.7750  163.3450 C.3   143  ARG143      0.0307
     84  CG        26.1320  102.8470  163.2810 C.3   143  ARG143      0.0489
     85  CD        25.6360  103.1620  161.8640 C.3   143  ARG143      0.2205
     86  NE        24.1780  103.2360  161.7930 N.pl3 143  ARG143     -0.0865
     87  CZ        23.3950  102.2100  161.4700 C.cat 143  ARG143      0.5346
     88  NH1       23.9230  101.0250  161.1870 N.pl3 143  ARG143      0.1354
     89  NH2       22.0790  102.3630  161.4230 N.pl3 143  ARG143      0.1354
     90  N         30.5210  109.5070  166.1760 N.3   146  GLU146     -0.1245
     91  CA        31.4260  110.3310  165.3640 C.3   146  GLU146      0.1567
     92  C         31.6660  111.7260  165.9670 C.2   146  GLU146      0.2260
     93  O         31.9900  112.6830  165.2490 O.2   146  GLU146     -0.2867
     94  CB        30.9480  110.4400  163.9060 C.3   146  GLU146      0.0388
     95  CG        30.2210  109.2050  163.3540 C.3   146  GLU146      0.1160
     96  CD        31.1150  107.9980  163.1340 C.2   146  GLU146      0.3649
     97  OE1       32.2840  108.0140  163.5740 O.co2 146  GLU146     -0.2457
     98  OE2       30.6410  107.0240  162.5100 O.co2 146  GLU146     -0.2457
     99  N         19.6870  101.6760  158.2990 N.3   165  ALA165     -0.1245
    100  CA        19.8060  103.1270  158.3980 C.3   165  ALA165      0.1562
    101  C         18.6110  103.8440  157.7710 C.2   165  ALA165      0.2260
    102  O         18.4960  105.0690  157.8670 O.2   165  ALA165     -0.2867
    103  CB        21.1010  103.5940  157.7510 C.3   165  ALA165      0.0290
    104  N         20.9020  108.1790  164.9300 N.3   195  GLU195     -0.1231
    105  CA        22.2200  108.0720  164.3210 C.3   195  GLU195      0.1699
    106  C         23.1190  109.2080  164.8110 C.2   195  GLU195      0.2592
    107  O         22.6490  110.3200  165.0460 O.2   195  GLU195     -0.2718
    108  CB        22.1170  108.1320  162.7930 C.3   195  GLU195      0.0402
    109  CG        21.2290  107.0590  162.1550 C.3   195  GLU195      0.1161
    110  CD        21.8740  105.6820  162.1080 C.2   195  GLU195      0.3649
    111  OE1       23.0510  105.5470  162.5050 O.co2 195  GLU195     -0.2457
    112  OE2       21.1980  104.7310  161.6650 O.co2 195  GLU195     -0.2457
    113  N         24.4020  108.9060  164.9950 N.am  196  GLU196     -0.1979
    114  CA        25.4610  109.9190  165.1150 C.3   196  GLU196      0.1602
    115  C         25.1720  111.0670  166.0850 C.2   196  GLU196      0.2287
    116  O         25.1340  112.2360  165.6810 O.2   196  GLU196     -0.2864
    117  CB        25.7990  110.4720  163.7210 C.3   196  GLU196      0.0415
    118  CG        26.3040  109.4070  162.7280 C.3   196  GLU196      0.1163
    119  CD        26.4110  109.9260  161.2970 C.2   196  GLU196      0.3649
    120  OE1       25.7170  110.9120  160.9620 O.co2 196  GLU196     -0.2457
    121  OE2       27.1830  109.3410  160.5000 O.co2 196  GLU196     -0.2457
    122  N         20.5480  112.3250  164.8090 N.3   211  ARG211     -0.1245
    123  CA        20.1730  112.3070  163.4050 C.3   211  ARG211      0.1563
    124  C         19.1220  111.2450  163.1180 C.2   211  ARG211      0.2260
    125  O         19.3800  110.0520  163.2750 O.2   211  ARG211     -0.2867
    126  CB        21.4150  112.0460  162.5460 C.3   211  ARG211      0.0307
    127  CG        21.1220  111.6240  161.1060 C.3   211  ARG211      0.0489
    128  CD        22.4180  111.5090  160.3070 C.3   211  ARG211      0.2205
    129  NE        22.2140  110.9380  158.9780 N.pl3 211  ARG211     -0.0865
    130  CZ        23.1900  110.7650  158.0890 C.cat 211  ARG211      0.5346
    131  NH1       24.4350  111.1200  158.3860 N.pl3 211  ARG211      0.1354
    132  NH2       22.9280  110.2390  156.9020 N.pl3 211  ARG211      0.1354
    133  N         17.6680  109.2960  160.4360 N.3   213  ASN213     -0.1240
    134  CA        17.9860  108.9550  159.0530 C.3   213  ASN213      0.1653
    135  C         16.8510  108.2240  158.3440 C.2   213  ASN213      0.2266
    136  O         17.0130  107.7540  157.2180 O.2   213  ASN213     -0.2867
    137  CB        19.2480  108.0960  158.9910 C.3   213  ASN213      0.1155
    138  CG        20.0240  108.3120  157.7150 C.2   213  ASN213      0.2627
    139  OD1       20.3310  109.4460  157.3590 O.2   213  ASN213     -0.2716
    140  ND2       20.3280  107.2330  157.0090 N.am  213  ASN213     -0.0877
    141  N         24.7600  119.6100  151.3240 N.3   290  ARG290     -0.1245
    142  CA        25.6370  119.9530  152.4360 C.3   290  ARG290      0.1563
    143  C         26.5190  121.1490  152.0820 C.2   290  ARG290      0.2260
    144  O         27.7380  121.0220  151.9160 O.2   290  ARG290     -0.2867
    145  CB        26.4760  118.7380  152.8430 C.3   290  ARG290      0.0307
    146  CG        25.6420  117.6130  153.4400 C.3   290  ARG290      0.0489
    147  CD        26.4000  116.2940  153.5100 C.3   290  ARG290      0.2205
    148  NE        25.6160  115.2910  154.2200 N.pl3 290  ARG290     -0.0865
    149  CZ        26.0440  114.0660  154.5140 C.cat 290  ARG290      0.5346
    150  NH1       27.2640  113.6730  154.1560 N.pl3 290  ARG290      0.1354
    151  NH2       25.2520  113.2280  155.1740 N.pl3 290  ARG290      0.1354
    152  N         29.3100  117.4190  158.2290 N.3   324  TYR324     -0.1241
    153  CA        29.0550  117.1070  159.6320 C.3   324  TYR324      0.1605
    154  C         29.3260  118.2770  160.5630 C.2   324  TYR324      0.2264
    155  O         30.1800  119.1220  160.2930 O.2   324  TYR324     -0.2867
    156  CB        29.8920  115.9100  160.0770 C.3   324  TYR324      0.0534
    157  CG        29.2830  114.5790  159.7230 C.ar  324  TYR324     -0.0201
    158  CD1       28.3500  114.4740  158.7000 C.ar  324  TYR324     -0.0009
    159  CD2       29.6310  113.4330  160.4250 C.ar  324  TYR324     -0.0009
    160  CE1       27.7900  113.2740  158.3800 C.ar  324  TYR324      0.0417
    161  CE2       29.0740  112.2260  160.1200 C.ar  324  TYR324      0.0417
    162  CZ        28.1530  112.1560  159.0910 C.ar  324  TYR324      0.1957
    163  OH        27.5810  110.9570  158.7620 O.3   324  TYR324     -0.2866
@<TRIPOS>BOND
     1   141   142    1
     2   144   143    2
     3   143   142    1
     4   142   145    1
     5    21    22    1
     6   145   146    1
     7    28    26   ar
     8   146   147    1
     9   147   148    1
    10    32    31    2
    11    26    27   ar
    12    26    25    1
    13    22    25    1
    14    22    23    1
    15   150   149    1
    16   148   149    2
    17    39    37    1
    18   149   151    1
    19     7     6    1
    20     7     8    1
    21    10     9    1
    22    29    23   am
    23    29    30    1
    24    31    30    1
    25    23    24    2
    26     6     5    1
    27    37    38    1
    28    37    36    2
    29    30    33    1
    30     8     9    2
    31     9    11    1
    32    33    34    1
    33     5     2    1
    34    36    35    1
    35    50    48    1
    36    47    48    2
    37    47    46    1
    38    48    49    1
    39    45    46    1
    40    45    44    1
    41   132   130    1
    42    34    35    1
    43    78    76    1
    44   140   138   am
    45     1     2    1
    46     2     3    1
    47   136   135    2
    48   139   138    2
    49    40    41    1
    50   138   137    1
    51   103   100    1
    52   101   102    2
    53   101   100    1
    54    19    18   ar
    55    20    18   ar
    56    44    41    1
    57   130   131    1
    58   130   129    2
    59    76    75    1
    60    41    42    1
    61   152   153    1
    62    99   100    1
    63   135   134    1
    64   160   158   ar
    65   160   162   ar
    66    18    17    1
    67     3    12   am
    68     3     4    2
    69   158   157   ar
    70   163   162    1
    71    12    13    1
    72   129   128    1
    73   137   134    1
    74    57    59   ar
    75    57    56   ar
    76   134   133    1
    77   162   161   ar
    78    55    56    1
    79    55    52    1
    80    59    60   ar
    81    56    58   ar
    82    75    77    1
    83    75    72    1
    84    42    43    2
    85   153   156    1
    86   153   154    1
    87   157   156    1
    88   157   159   ar
    89    17    16    1
    90    60    58   ar
    91    60    62   ar
    92    58    61   ar
    93   161   159   ar
    94    13    16    1
    95    13    14    1
    96   155   154    2
    97   128   127    1
    98    71    72    1
    99    54    53    2
   100   121   119   ar
   101    52    53    1
   102    52    51    1
   103    62    64   ar
   104    72    73    1
   105    61    63   ar
   106   120   119   ar
   107   127   126    1
   108    53    65   am
   109    88    87    1
   110    64    63   ar
   111   119   118    1
   112    14    15    2
   113    89    87    1
   114    87    86    2
   115   112   110   ar
   116    86    85    1
   117    85    84    1
   118    73    74    2
   119   110   109    1
   120   110   111   ar
   121   109   108    1
   122    65    66    1
   123    98    96   ar
   124   126   123    1
   125   118   117    1
   126   108   105    1
   127   124   125    2
   128   124   123    1
   129    96    95    1
   130    96    97   ar
   131    66    69    1
   132    66    67    1
   133    84    83    1
   134    69    70    1
   135    83    80    1
   136    95    94    1
   137   123   122    1
   138   117   114    1
   139    94    91    1
   140   105   106    1
   141   105   104    1
   142    67    68    2
   143    80    79    1
   144    80    81    1
   145   106   113   am
   146   106   107    2
   147   113   114    1
   148   114   115    1
   149    93    92    2
   150    91    92    1
   151    91    90    1
   152   116   115    2
   153    81    82    2
