@<TRIPOS>MOLECULE
tmp/4qn9B03.pdb
 201 200 0 0 0
SMALL
GASTEIGER

@<TRIPOS>ATOM
      1  N         -2.5570   22.0150  180.2260 N.3    87  ALA87      -0.1231
      2  CA        -3.2570   20.7880  179.8420 C.3    87  ALA87       0.1694
      3  C         -2.2210   19.6680  179.5610 C.2    87  ALA87       0.2593
      4  O         -1.8400   19.4200  178.4190 O.2    87  ALA87      -0.2718
      5  CB        -4.1140   21.0350  178.6110 C.3    87  ALA87       0.0304
      6  N         -1.8310   18.9530  180.6030 N.am   88  SER88      -0.1939
      7  CA        -0.7090   18.0530  180.4970 C.3    88  SER88       0.2040
      8  C         -0.6310   17.1230  181.6950 C.2    88  SER88       0.2485
      9  O         -1.0070   17.4850  182.8260 O.2    88  SER88      -0.2729
     10  CB         0.5450   18.9010  180.4680 C.3    88  SER88       0.2129
     11  OG         1.6980   18.1460  180.4560 O.3    88  SER88      -0.2179
     12  N         -0.1060   15.9150  181.4760 N.am   89  PRO89      -0.2715
     13  CA         0.1740   15.0750  182.6080 C.3    89  PRO89       0.1536
     14  C          1.4150   15.5630  183.3590 C.2    89  PRO89       0.2599
     15  O          1.6780   15.1060  184.4710 O.2    89  PRO89      -0.2715
     16  CB         0.4020   13.7250  181.9580 C.3    89  PRO89       0.0310
     17  CG         1.0140   14.0440  180.6640 C.3    89  PRO89       0.0237
     18  CD         0.3050   15.2810  180.2190 C.3    89  PRO89       0.0939
     19  N          2.1580   16.5010  182.7850 N.am   90  SER90      -0.1950
     20  CA         3.3530   17.0200  183.4470 C.3    90  SER90       0.1924
     21  C          3.2400   18.4830  183.8500 C.2    90  SER90       0.2314
     22  O          2.4970   19.2320  183.2580 O.2    90  SER90      -0.2863
     23  CB         4.5310   16.8810  182.4990 C.3    90  SER90       0.2116
     24  OG         5.7560   17.3660  183.0520 O.3    90  SER90      -0.2180
     25  N          6.0990   20.4140  180.9670 N.3    93  MET93      -0.1230
     26  CA         5.9800   20.5280  179.5520 C.3    93  MET93       0.1702
     27  C          4.5480   20.1700  179.1740 C.2    93  MET93       0.2593
     28  O          3.8660   19.4180  179.8870 O.2    93  MET93      -0.2718
     29  CB         6.9980   19.5870  178.9070 C.3    93  MET93       0.0401
     30  CG         6.5550   18.1250  178.8950 C.3    93  MET93       0.0596
     31  SD         7.8380   16.8480  178.7830 S.3    93  MET93      -0.1393
     32  CE         9.1730   17.8900  178.4380 C.3    93  MET93       0.0692
     33  N          4.1000   20.7170  178.0600 N.am   94  GLY94      -0.1943
     34  CA         2.6820   20.5950  177.6490 C.3    94  GLY94       0.1998
     35  C          2.0270   21.9640  177.5770 C.2    94  GLY94       0.2480
     36  O          2.5250   22.9110  178.1220 O.2    94  GLY94      -0.2729
     37  N          0.8960   22.0700  176.9080 N.am   95  PRO95      -0.2726
     38  CA         0.3990   23.3970  176.5840 C.3    95  PRO95       0.1402
     39  C         -0.1520   24.1810  177.7860 C.2    95  PRO95       0.2269
     40  O         -1.0670   23.7320  178.4700 O.2    95  PRO95      -0.2865
     41  CB        -0.7100   23.1190  175.5770 C.3    95  PRO95       0.0296
     42  CG        -1.0880   21.7120  175.7770 C.3    95  PRO95       0.0237
     43  CD         0.0940   20.9990  176.3050 C.3    95  PRO95       0.0939
     44  N         -8.3280   13.3600  177.4320 N.3   120  HIS120     -0.1226
     45  CA        -7.5610   14.3580  176.5830 C.3   120  HIS120      0.1752
     46  C         -7.4330   15.5490  177.4510 C.2   120  HIS120      0.2596
     47  O         -8.4380   16.0860  177.9210 O.2   120  HIS120     -0.2718
     48  CB        -8.1680   14.8480  175.2620 C.3   120  HIS120      0.0759
     49  CG        -7.7130   14.1070  174.0190 C.ar  120  HIS120      0.0818
     50  ND1       -8.1360   14.4480  172.7500 N.ar  120  HIS120     -0.2268
     51  CD2       -6.9070   13.0400  173.8500 C.ar  120  HIS120      0.1154
     52  CE1       -7.5880   13.6640  171.8580 C.ar  120  HIS120      0.1986
     53  NE2       -6.8370   12.7950  172.4990 N.ar  120  HIS120     -0.2212
     54  N         -6.1820   15.9490  177.6450 N.am  121  TYR121     -0.1962
     55  CA        -5.8290   16.7200  178.7820 C.3   121  TYR121      0.1771
     56  C         -6.4980   18.0820  178.7800 C.2   121  TYR121      0.2619
     57  O         -6.7280   18.6270  179.8370 O.2   121  TYR121     -0.2715
     58  CB        -4.3270   16.8260  178.9080 C.3   121  TYR121      0.0574
     59  CG        -3.7650   15.5090  179.3710 C.ar  121  TYR121     -0.0198
     60  CD1       -3.3430   14.5490  178.4510 C.ar  121  TYR121     -0.0009
     61  CD2       -3.6230   15.2220  180.7390 C.ar  121  TYR121     -0.0009
     62  CE1       -2.8240   13.3320  178.8820 C.ar  121  TYR121      0.0417
     63  CE2       -3.1200   14.0100  181.1620 C.ar  121  TYR121      0.0417
     64  CZ        -2.7210   13.0610  180.2250 C.ar  121  TYR121      0.1957
     65  OH        -2.2060   11.8690  180.6620 O.3   121  TYR121     -0.2866
     66  N         -6.8960   18.5710  177.6110 N.am  122  ASP122     -0.1971
     67  CA        -7.4640   19.9150  177.5350 C.3   122  ASP122      0.1709
     68  C         -8.9650   19.9320  177.7990 C.2   122  ASP122      0.2293
     69  O         -9.5520   21.0060  177.8670 O.2   122  ASP122     -0.2864
     70  CB        -7.0500   20.6340  176.2260 C.3   122  ASP122      0.1436
     71  CG        -7.4770   19.9170  174.9500 C.2   122  ASP122      0.3671
     72  OD1       -8.0030   20.6070  174.0390 O.co2 122  ASP122     -0.2456
     73  OD2       -7.2770   18.7210  174.7940 O.co2 122  ASP122     -0.2456
     74  N        -13.7920   11.7860  166.6380 N.3   186  HIS186     -0.1226
     75  CA       -12.5720   12.1590  167.3690 C.3   186  HIS186      0.1752
     76  C        -11.8340   10.8890  167.8890 C.2   186  HIS186      0.2596
     77  O        -11.9870    9.8210  167.3420 O.2   186  HIS186     -0.2718
     78  CB       -12.9310   13.1570  168.4900 C.3   186  HIS186      0.0759
     79  CG       -11.7950   14.0280  168.9360 C.ar  186  HIS186      0.0818
     80  ND1      -11.1060   14.8560  168.0820 N.ar  186  HIS186     -0.2268
     81  CD2      -11.2590   14.2300  170.1680 C.ar  186  HIS186      0.1154
     82  CE1      -10.1920   15.5330  168.7670 C.ar  186  HIS186      0.1986
     83  NE2      -10.2670   15.1750  170.0390 N.ar  186  HIS186     -0.2212
     84  N        -11.0150   11.0260  168.9190 N.am  187  TRP187     -0.1976
     85  CA       -10.2510    9.9360  169.4580 C.3   187  TRP187      0.1640
     86  C         -9.9220   10.2390  170.9260 C.2   187  TRP187      0.2290
     87  O        -10.1730   11.3690  171.4150 O.2   187  TRP187     -0.2864
     88  CB        -8.9770    9.7850  168.6500 C.3   187  TRP187      0.0576
     89  CG        -8.1360   10.9610  168.6220 C.ar  187  TRP187      0.0006
     90  CD1       -8.4240   12.1550  168.0650 C.ar  187  TRP187      0.0946
     91  CD2       -6.8350   11.0900  169.2140 C.ar  187  TRP187      0.0152
     92  NE1       -7.3790   13.0480  168.2810 N.ar  187  TRP187     -0.2442
     93  CE2       -6.3870   12.4110  168.9650 C.ar  187  TRP187      0.0810
     94  CE3       -6.0150   10.2180  169.9320 C.ar  187  TRP187      0.0012
     95  CZ2       -5.1450   12.8780  169.3660 C.ar  187  TRP187      0.0191
     96  CZ3       -4.7860   10.6670  170.3440 C.ar  187  TRP187      0.0001
     97  CH2       -4.3540   12.0130  170.0670 C.ar  187  TRP187      0.0015
     98  N         -6.8770    9.3860  174.2090 N.3   189  LYS189     -0.1231
     99  CA        -5.5470    8.9320  174.6190 C.3   189  LYS189      0.1693
    100  C         -5.1160    9.7620  175.7940 C.2   189  LYS189      0.2592
    101  O         -5.1840   10.9700  175.7340 O.2   189  LYS189     -0.2718
    102  CB        -4.5350    9.1390  173.4940 C.3   189  LYS189      0.0285
    103  CG        -3.0780    8.8590  173.8670 C.3   189  LYS189      0.0035
    104  CD        -2.1770    8.8400  172.6230 C.3   189  LYS189      0.0206
    105  CE        -0.7970    8.2920  172.8830 C.3   189  LYS189      0.1093
    106  NZ        -0.7520    6.7890  173.0210 N.3   189  LYS189     -0.1314
    107  N         -4.6650    9.1240  176.8590 N.am  190  ARG190     -0.1966
    108  CA        -4.0050    9.8330  177.9580 C.3   190  ARG190      0.1729
    109  C         -2.5970    9.3390  178.2220 C.2   190  ARG190      0.2617
    110  O         -1.7950   10.0760  178.7720 O.2   190  ARG190     -0.2715
    111  CB        -4.8190    9.7310  179.2540 C.3   190  ARG190      0.0348
    112  CG        -5.9810   10.6860  179.3060 C.3   190  ARG190      0.0492
    113  CD        -6.6950   10.6910  180.6570 C.3   190  ARG190      0.2205
    114  NE        -6.0980   11.5760  181.6660 N.pl3 190  ARG190     -0.0865
    115  CZ        -6.2840   12.8890  181.7560 C.cat 190  ARG190      0.5346
    116  NH1       -7.0320   13.5550  180.8910 N.pl3 190  ARG190      0.1354
    117  NH2       -5.7140   13.5550  182.7280 N.pl3 190  ARG190      0.1354
    118  N         -2.2670    8.1060  177.8520 N.am  191  THR191     -0.1937
    119  CA        -0.9280    7.5790  178.1820 C.3   191  THR191      0.2028
    120  C         -0.3620    6.9050  176.9600 C.2   191  THR191      0.2642
    121  O         -0.6280    7.3360  175.8810 O.2   191  THR191     -0.2714
    122  CB        -1.0010    6.6070  179.3720 C.3   191  THR191      0.1808
    123  OG1       -2.0480    5.6590  179.1510 O.3   191  THR191     -0.2208
    124  CG2       -1.3130    7.3430  180.6280 C.3   191  THR191      0.0379
    125  N          0.3910    5.8320  177.1340 N.am  192  LEU192     -0.1977
    126  CA         0.9880    5.1120  176.0590 C.3   192  LEU192      0.1596
    127  C          0.1230    3.9090  175.7680 C.2   192  LEU192      0.2287
    128  O         -0.3600    3.2630  176.6710 O.2   192  LEU192     -0.2864
    129  CB         2.3720    4.6650  176.4880 C.3   192  LEU192      0.0297
    130  CG         3.3080    5.7140  177.1030 C.3   192  LEU192      0.0022
    131  CD1        4.5670    5.0730  177.7250 C.3   192  LEU192      0.0001
    132  CD2        3.6660    6.7370  176.0280 C.3   192  LEU192      0.0001
    133  N        -14.9000   17.7690  170.9090 N.3   217  ASP217     -0.1239
    134  CA       -13.9520   17.9230  169.8110 C.3   217  ASP217      0.1674
    135  C        -14.4610   16.9690  168.7390 C.2   217  ASP217      0.2266
    136  O        -14.9000   15.8800  169.0520 O.2   217  ASP217     -0.2867
    137  CB       -12.5430   17.4800  170.2280 C.3   217  ASP217      0.1410
    138  CG       -11.6700   18.6100  170.7300 C.2   217  ASP217      0.3668
    139  OD1      -11.9030   19.7690  170.3930 O.co2 217  ASP217     -0.2456
    140  OD2      -10.6850   18.3550  171.4230 O.co2 217  ASP217     -0.2456
    141  N         -8.1540   24.8890  166.4840 N.3   243  ALA243     -0.1245
    142  CA        -7.2920   23.7040  166.3860 C.3   243  ALA243      0.1562
    143  C         -7.4480   22.9310  165.0350 C.2   243  ALA243      0.2260
    144  O         -7.5750   21.7130  165.0290 O.2   243  ALA243     -0.2867
    145  CB        -7.5290   22.7850  167.5750 C.3   243  ALA243      0.0290
    146  N         -3.6890   17.2710  158.0510 N.3   249  PHE249     -0.1227
    147  CA        -3.5560   16.4000  159.2070 C.3   249  PHE249      0.1736
    148  C         -4.7670   16.4430  160.1510 C.2   249  PHE249      0.2595
    149  O         -5.2050   15.4200  160.6870 O.2   249  PHE249     -0.2718
    150  CB        -2.3070   16.8240  159.9660 C.3   249  PHE249      0.0547
    151  CG        -2.0100   15.9830  161.1610 C.ar  249  PHE249     -0.0202
    152  CD1       -1.7400   14.6310  161.0140 C.ar  249  PHE249     -0.0042
    153  CD2       -1.9710   16.5430  162.4220 C.ar  249  PHE249     -0.0042
    154  CE1       -1.4540   13.8390  162.1140 C.ar  249  PHE249     -0.0003
    155  CE2       -1.6790   15.7650  163.5290 C.ar  249  PHE249     -0.0003
    156  CZ        -1.4200   14.4060  163.3720 C.ar  249  PHE249     -0.0000
    157  N         -5.3070   17.6390  160.3600 N.am  250  MET250     -0.1979
    158  CA        -6.2620   17.8440  161.4350 C.3   250  MET250      0.1605
    159  C         -7.7150   17.5980  161.0470 C.2   250  MET250      0.2287
    160  O         -8.5690   17.4410  161.9110 O.2   250  MET250     -0.2864
    161  CB        -6.1270   19.2560  161.9680 C.3   250  MET250      0.0413
    162  CG        -4.8320   19.5310  162.6970 C.3   250  MET250      0.0598
    163  SD        -4.7110   18.6230  164.2610 S.3   250  MET250     -0.1393
    164  CE        -3.7730   19.8440  165.1770 C.3   250  MET250      0.0692
    165  N        -10.1040   15.0260  162.6470 N.3   253  GLN253     -0.1231
    166  CA       -10.3460   15.0980  164.1010 C.3   253  GLN253      0.1698
    167  C        -10.8340   16.4610  164.5980 C.2   253  GLN253      0.2592
    168  O        -11.3380   16.5600  165.6820 O.2   253  GLN253     -0.2718
    169  CB        -9.0970   14.6600  164.8700 C.3   253  GLN253      0.0381
    170  CG        -7.8850   15.5080  164.5530 C.3   253  GLN253      0.0905
    171  CD        -6.6700   15.1730  165.4000 C.2   253  GLN253      0.2608
    172  OE1       -6.5990   15.4740  166.6220 O.2   253  GLN253     -0.2717
    173  NE2       -5.6840   14.6000  164.7600 N.am  253  GLN253     -0.0878
    174  N        -10.7290   17.5010  163.7810 N.am  254  HIS254     -0.1976
    175  CA       -11.1140   18.8570  164.1650 C.3   254  HIS254      0.1656
    176  C        -11.7660   19.6060  163.0020 C.2   254  HIS254      0.2291
    177  O        -11.1470   19.8460  161.9590 O.2   254  HIS254     -0.2864
    178  CB        -9.8720   19.6320  164.5170 C.3   254  HIS254      0.0771
    179  CG        -9.3100   19.3200  165.8650 C.ar  254  HIS254      0.0820
    180  ND1      -10.0690   19.3610  167.0130 N.ar  254  HIS254     -0.2267
    181  CD2       -8.0370   19.0680  166.2610 C.ar  254  HIS254      0.1154
    182  CE1       -9.2960   19.0940  168.0480 C.ar  254  HIS254      0.1986
    183  NE2       -8.0620   18.9230  167.6160 N.ar  254  HIS254     -0.2212
    184  N        -13.6450   25.8190  172.0100 N.3   276  HIS276     -0.1241
    185  CA       -12.2570   25.5010  171.6490 C.3   276  HIS276      0.1621
    186  C        -11.7100   26.8600  171.2390 C.2   276  HIS276      0.2264
    187  O        -12.3170   27.8700  171.5720 O.2   276  HIS276     -0.2867
    188  CB       -12.2210   24.4790  170.5830 C.3   276  HIS276      0.0745
    189  CG       -11.3190   23.3240  170.8890 C.ar  276  HIS276      0.0817
    190  ND1      -10.2600   22.9790  170.0840 N.ar  276  HIS276     -0.2268
    191  CD2      -11.3130   22.4450  171.9160 C.ar  276  HIS276      0.1154
    192  CE1       -9.6270   21.9520  170.6180 C.ar  276  HIS276      0.1986
    193  NE2      -10.2360   21.6150  171.7360 N.ar  276  HIS276     -0.2212
    194  N         -2.9670   24.8310  170.3280 N.3   282  LEU282     -0.1245
    195  CA        -2.9970   23.4030  170.1130 C.3   282  LEU282      0.1561
    196  C         -2.7590   22.9820  168.6670 C.2   282  LEU282      0.2260
    197  O         -2.8400   21.7750  168.3670 O.2   282  LEU282     -0.2867
    198  CB        -4.3910   22.9520  170.4860 C.3   282  LEU282      0.0270
    199  CG        -4.5270   22.4430  171.8920 C.3   282  LEU282      0.0019
    200  CD1       -3.2860   22.4090  172.7990 C.3   282  LEU282      0.0001
    201  CD2       -5.9180   22.4270  172.5120 C.3   282  LEU282      0.0001
@<TRIPOS>BOND
     1   146   147    1
     2   147   150    1
     3   147   148    1
     4   150   151    1
     5   148   157   am
     6   148   149    2
     7   157   158    1
     8   152   151   ar
     9   152   154   ar
    10   159   158    1
    11   159   160    2
    12   151   153   ar
    13   158   161    1
    14   177   176    2
    15   161   162    1
    16   154   156   ar
    17   153   155   ar
    18   165   166    1
    19   162   163    1
    20   176   175    1
    21   156   155   ar
    22   174   175    1
    23   174   167   am
    24   166   167    1
    25   166   169    1
    26   175   178    1
    27   163   164    1
    28   178   179    1
    29   170   169    1
    30   170   171    1
    31   167   168    2
    32   173   171   am
    33   144   143    2
    34   143   142    1
    35   171   172    2
    36   179   181   ar
    37   179   180   ar
    38   181   183   ar
    39   142   141    1
    40   142   145    1
    41    74    75    1
    42   180   182   ar
    43    77    76    2
    44    75    76    1
    45    75    78    1
    46   183   182   ar
    47    76    84   am
    48    90    92   ar
    49    90    89   ar
    50    80    82   ar
    51    80    79   ar
    52    92    93   ar
    53   197   196    2
    54    78    79    1
    55    89    88    1
    56    89    91   ar
    57    88    85    1
    58   196   195    1
    59   135   136    2
    60   135   134    1
    61    82    83   ar
    62    84    85    1
    63    79    81   ar
    64    93    91   ar
    65    93    95   ar
    66    91    94   ar
    67    95    97   ar
    68    85    86    1
    69   134   137    1
    70   134   133    1
    71    94    96   ar
    72    83    81   ar
    73    97    96   ar
    74   190   192   ar
    75   190   189   ar
    76   195   194    1
    77   195   198    1
    78   137   138    1
    79   139   138   ar
    80   198   199    1
    81   188   189    1
    82   188   185    1
    83   192   193   ar
    84   138   140   ar
    85   189   191   ar
    86    86    87    2
    87   186   187    2
    88   186   185    1
    89   185   184    1
    90   193   191   ar
    91    52    53   ar
    92    52    50   ar
    93   199   201    1
    94   199   200    1
    95    53    51   ar
    96   104   105    1
    97   104   103    1
    98    50    49   ar
    99   105   106    1
   100   102   103    1
   101   102    99    1
   102    51    49   ar
   103    49    48    1
   104    72    71   ar
   105    98    99    1
   106    99   100    1
   107    73    71   ar
   108    71    70    1
   109    48    45    1
   110    41    42    1
   111    41    38    1
   112   101   100    2
   113   127   126    1
   114   127   128    2
   115    42    43    1
   116   100   107   am
   117   121   120    2
   118   132   130    1
   119   126   129    1
   120   126   125    1
   121    70    67    1
   122    43    37    1
   123   129   130    1
   124    45    44    1
   125    45    46    1
   126    38    37    1
   127    38    39    1
   128   107   108    1
   129    37    35   am
   130   120   125   am
   131   120   119    1
   132   130   131    1
   133    46    54   am
   134    46    47    2
   135    67    66    1
   136    67    68    1
   137    35    34    1
   138    35    36    2
   139    66    56   am
   140    54    55    1
   141    34    33    1
   142    39    40    2
   143    68    69    2
   144   118   119    1
   145   118   109   am
   146   108   109    1
   147   108   111    1
   148    33    27   am
   149   119   122    1
   150   109   110    2
   151     4     3    2
   152    32    31    1
   153    60    62   ar
   154    60    59   ar
   155     5     2    1
   156    56    55    1
   157    56    57    2
   158    55    58    1
   159    31    30    1
   160    62    64   ar
   161    30    29    1
   162    29    26    1
   163    58    59    1
   164   123   122    1
   165    27    26    1
   166    27    28    2
   167   111   112    1
   168   112   113    1
   169    59    61   ar
   170   122   124    1
   171    26    25    1
   172     3     2    1
   173     3     6   am
   174     2     1    1
   175    18    17    1
   176    18    12    1
   177    64    65    1
   178    64    63   ar
   179    11    10    1
   180    10     7    1
   181     7     6    1
   182     7     8    1
   183   113   114    1
   184    17    16    1
   185    61    63   ar
   186   116   115    1
   187    12     8   am
   188    12    13    1
   189   114   115    2
   190     8     9    2
   191   115   117    1
   192    16    13    1
   193    23    24    1
   194    23    20    1
   195    13    14    1
   196    19    14   am
   197    19    20    1
   198    22    21    2
   199    14    15    2
   200    20    21    1
