@<TRIPOS>MOLECULE
tmp/4qnaA00.pdb
 111 102 0 0 0
SMALL
GASTEIGER

@<TRIPOS>ATOM
      1  N         -8.3080   -1.4320   20.4610 N.3    16  ILE16      -0.1231
      2  CA        -7.9620   -1.7690   19.0790 C.3    16  ILE16       0.1692
      3  C         -6.5600   -2.3770   18.9420 C.2    16  ILE16       0.2592
      4  O         -6.2390   -3.0070   17.9330 O.2    16  ILE16      -0.2718
      5  CB        -8.0310   -0.5240   18.1580 C.3    16  ILE16       0.0266
      6  CG1       -7.0730    0.5610   18.6600 C.3    16  ILE16       0.0019
      7  CG2       -9.4550    0.0070   18.0560 C.3    16  ILE16       0.0020
      8  CD1       -7.0270    1.8030   17.8000 C.3    16  ILE16       0.0001
      9  N         -5.7170   -2.1790   19.9480 N.am   17  GLY17      -0.1957
     10  CA        -4.3240   -2.5760   19.8400 C.3    17  GLY17       0.1869
     11  C         -3.7760   -3.2500   21.0780 C.2    17  GLY17       0.2309
     12  O         -4.3720   -3.1870   22.1540 O.2    17  GLY17      -0.2863
     13  N         -3.8900   -0.3720   23.3980 N.3    24  VAL24      -0.1245
     14  CA        -4.2360    0.7340   22.5160 C.3    24  VAL24       0.1561
     15  C         -5.7580    0.8490   22.3750 C.2    24  VAL24       0.2260
     16  O         -6.4640   -0.1550   22.2390 O.2    24  VAL24      -0.2867
     17  CB        -3.5830    0.5710   21.1310 C.3    24  VAL24       0.0252
     18  CG1       -3.7440    1.8420   20.2990 C.3    24  VAL24       0.0019
     19  CG2       -2.1140    0.2100   21.2780 C.3    24  VAL24       0.0019
     20  N         -5.3870    7.2100   18.0630 N.3    37  ALA37      -0.1245
     21  CA        -5.0600    5.9920   18.7860 C.3    37  ALA37       0.1562
     22  C         -4.4520    6.3650   20.1340 C.2    37  ALA37       0.2260
     23  O         -3.4870    7.1350   20.1990 O.2    37  ALA37      -0.2867
     24  CB        -4.0980    5.1240   17.9860 C.3    37  ALA37       0.0290
     25  N         -2.6520    4.9380   23.3880 N.3    39  LYS39      -0.1245
     26  CA        -1.9640    3.8780   24.1000 C.3    39  LYS39       0.1561
     27  C         -1.9250    4.1870   25.5910 C.2    39  LYS39       0.2260
     28  O         -1.3640    5.2030   25.9990 O.2    39  LYS39      -0.2867
     29  CB        -0.5530    3.7220   23.5620 C.3    39  LYS39       0.0271
     30  CG         0.2410    2.6260   24.2190 C.3    39  LYS39       0.0035
     31  CD         1.6940    2.8570   23.9100 C.3    39  LYS39       0.0206
     32  CE         2.2750    1.6820   23.1730 C.3    39  LYS39       0.1093
     33  NZ         3.6470    1.9940   22.7020 N.3    39  LYS39      -0.1314
     34  N         10.2360    6.0410   23.9180 N.3    56  GLU56      -0.1245
     35  CA         9.2120    6.0570   22.8760 C.3    56  GLU56       0.1567
     36  C          8.5940    7.4460   22.7370 C.2    56  GLU56       0.2260
     37  O          8.4560    7.9640   21.6300 O.2    56  GLU56      -0.2867
     38  CB         8.1110    5.0310   23.1590 C.3    56  GLU56       0.0388
     39  CG         7.0050    5.0750   22.1130 C.3    56  GLU56       0.1160
     40  CD         5.9330    4.0230   22.3120 C.2    56  GLU56       0.3649
     41  OE1        4.8450    4.1910   21.7330 O.co2  56  GLU56      -0.2457
     42  OE2        6.1680    3.0440   23.0430 O.co2  56  GLU56      -0.2457
     43  N          3.9910    7.7370   12.3680 N.3    69  THR69      -0.1218
     44  CA         2.7480    8.0000   13.1070 C.3    69  THR69       0.1862
     45  C          2.8430    9.3160   13.8550 C.2    69  THR69       0.2287
     46  O          3.7420    9.5210   14.6840 O.2    69  THR69      -0.2866
     47  CB         2.4080    6.8760   14.1020 C.3    69  THR69       0.1770
     48  OG1        3.5100    6.6710   15.0050 O.3    69  THR69      -0.2211
     49  CG2        2.1110    5.5970   13.3550 C.3    69  THR69       0.0375
     50  N         -1.7410    9.2670   19.5690 N.3    85  MET85      -0.1230
     51  CA        -1.1010    9.2970   18.2730 C.3    85  MET85       0.1702
     52  C         -2.1100    9.1710   17.1450 C.2    85  MET85       0.2592
     53  O         -3.2990    9.0150   17.3640 O.2    85  MET85      -0.2718
     54  CB        -0.0800    8.1650   18.1460 C.3    85  MET85       0.0401
     55  CG         1.0510    8.1560   19.1690 C.3    85  MET85       0.0596
     56  SD         1.6970    6.4800   19.2920 S.3    85  MET85      -0.1393
     57  CE         0.2270    5.6190   19.8410 C.3    85  MET85       0.0692
     58  N         -1.5850    9.2540   15.9320 N.am   86  GLU86      -0.1966
     59  CA        -2.3330    9.0410   14.7140 C.3    86  GLU86       0.1733
     60  C         -3.0630    7.7000   14.7150 C.2    86  GLU86       0.2616
     61  O         -2.4710    6.6780   15.0370 O.2    86  GLU86      -0.2715
     62  CB        -1.3550    9.1140   13.5370 C.3    86  GLU86       0.0429
     63  CG        -1.9480    8.8960   12.1920 C.3    86  GLU86       0.1163
     64  CD        -1.0360    9.3940   11.1030 C.2    86  GLU86       0.3649
     65  OE1       -1.5300    9.6540    9.9960 O.co2  86  GLU86      -0.2457
     66  OE2        0.1760    9.5490   11.3620 O.co2  86  GLU86      -0.2457
     67  N         -4.3420    7.7130   14.3520 N.am   87  TYR87      -0.1960
     68  CA        -5.0800    6.4850   14.1040 C.3    87  TYR87       0.1771
     69  C         -4.9690    6.1050   12.6340 C.2    87  TYR87       0.2619
     70  O         -5.1780    6.9370   11.7550 O.2    87  TYR87      -0.2715
     71  CB        -6.5540    6.6340   14.4770 C.3    87  TYR87       0.0574
     72  CG        -7.3780    5.4300   14.0730 C.ar   87  TYR87      -0.0198
     73  CD1       -7.3810    4.2830   14.8560 C.ar   87  TYR87      -0.0009
     74  CD2       -8.1340    5.4320   12.9000 C.ar   87  TYR87      -0.0009
     75  CE1       -8.1180    3.1720   14.4930 C.ar   87  TYR87       0.0417
     76  CE2       -8.8830    4.3200   12.5290 C.ar   87  TYR87       0.0417
     77  CZ        -8.8700    3.1990   13.3320 C.ar   87  TYR87       0.1957
     78  OH        -9.5910    2.0840   12.9890 O.3    87  TYR87      -0.2866
     79  N         -4.6420    4.8490   12.3680 N.am   88  LEU88      -0.1977
     80  CA        -4.5560    4.3730   10.9910 C.3    88  LEU88       0.1596
     81  C         -5.4460    3.1490   10.8330 C.2    88  LEU88       0.2287
     82  O         -5.1980    2.1060   11.4400 O.2    88  LEU88      -0.2864
     83  CB        -3.1010    4.0630   10.6160 C.3    88  LEU88       0.0297
     84  CG        -2.2450    5.3410   10.4980 C.3    88  LEU88       0.0022
     85  CD1       -0.7710    5.0540   10.6690 C.3    88  LEU88       0.0001
     86  CD2       -2.4930    5.9960    9.1520 C.3    88  LEU88       0.0001
     87  N         -5.0900   -1.1510    8.7860 N.3    91  GLY91      -0.1225
     88  CA        -4.4410   -2.3420    9.3000 C.3    91  GLY91       0.1811
     89  C         -2.9350   -2.2120    9.1370 C.2    91  GLY91       0.2280
     90  O         -2.4520   -1.1450    8.7670 O.2    91  GLY91      -0.2866
     91  N          2.0910    0.5280    9.2850 N.3   137  LEU137     -0.1245
     92  CA         0.6450    0.7000    9.3610 C.3   137  LEU137      0.1561
     93  C          0.1010    1.5140    8.1930 C.2   137  LEU137      0.2260
     94  O          0.7690    2.4070    7.6830 O.2   137  LEU137     -0.2867
     95  CB         0.2480    1.3660   10.6820 C.3   137  LEU137      0.0270
     96  CG         0.7580    0.7030   11.9720 C.3   137  LEU137      0.0019
     97  CD1        0.1910    1.4210   13.1860 C.3   137  LEU137      0.0001
     98  CD2        0.4330   -0.8020   12.0220 C.3   137  LEU137      0.0001
     99  N          5.4410    2.6410   12.5830 N.3   147  ALA147     -0.1231
    100  CA         4.8960    2.7460   13.9270 C.3   147  ALA147      0.1694
    101  C          5.7720    2.0550   14.9530 C.2   147  ALA147      0.2592
    102  O          6.7230    1.3360   14.6100 O.2   147  ALA147     -0.2718
    103  CB         3.4800    2.1620   13.9770 C.3   147  ALA147      0.0304
    104  N          5.4400    2.3020   16.2130 N.am  148  ASP148     -0.1974
    105  CA         5.9820    1.5450   17.3390 C.3   148  ASP148      0.1709
    106  C          7.4750    1.8080   17.5360 C.2   148  ASP148      0.2293
    107  O          8.3370    1.0090   17.1540 O.2   148  ASP148     -0.2864
    108  CB         5.7120    0.0610   17.1460 C.3   148  ASP148      0.1436
    109  CG         5.5640   -0.6590   18.4480 C.2   148  ASP148      0.3671
    110  OD1        6.1680   -0.1920   19.4380 O.co2 148  ASP148     -0.2456
    111  OD2        4.8190   -1.6600   18.4840 O.co2 148  ASP148     -0.2456
@<TRIPOS>BOND
     1    94    93    2
     2    93    92    1
     3    90    89    2
     4    87    88    1
     5    89    88    1
     6    86    84    1
     7    91    92    1
     8    92    95    1
     9    65    64   ar
    10    84    83    1
    11    84    85    1
    12    83    80    1
    13    95    96    1
    14    81    80    1
    15    81    82    2
    16    80    79    1
    17    64    66   ar
    18    64    63    1
    19    70    69    2
    20    96    98    1
    21    96    97    1
    22    63    62    1
    23    79    69   am
    24    43    44    1
    25    76    74   ar
    26    76    77   ar
    27    99   100    1
    28    69    68    1
    29    74    72   ar
    30    78    77    1
    31    44    45    1
    32    44    47    1
    33    77    75   ar
    34    49    47    1
    35    62    59    1
    36    45    46    2
    37   100   103    1
    38   100   101    1
    39    72    71    1
    40    72    73   ar
    41    47    48    1
    42    68    67    1
    43    68    71    1
    44    67    60   am
    45    75    73   ar
    46   102   101    2
    47    59    60    1
    48    59    58    1
    49    60    61    2
    50   101   104   am
    51    58    52   am
    52   104   105    1
    53    52    53    2
    54    52    51    1
    55   108   105    1
    56   108   109    1
    57   107   106    2
    58   105   106    1
    59     8     6    1
    60     4     3    2
    61    24    21    1
    62     7     5    1
    63    20    21    1
    64    54    51    1
    65    54    55    1
    66     5     6    1
    67     5     2    1
    68    51    50    1
    69   109   111   ar
    70   109   110   ar
    71    21    22    1
    72     3     2    1
    73     3     9   am
    74     2     1    1
    75    55    56    1
    76    56    57    1
    77    10     9    1
    78    10    11    1
    79    22    23    2
    80    18    17    1
    81    11    12    2
    82    17    19    1
    83    17    14    1
    84    37    36    2
    85    41    40   ar
    86    39    40    1
    87    39    38    1
    88    16    15    2
    89    40    42   ar
    90    15    14    1
    91    14    13    1
    92    33    32    1
    93    36    35    1
    94    35    38    1
    95    35    34    1
    96    32    31    1
    97    25    26    1
    98    29    26    1
    99    29    30    1
   100    31    30    1
   101    26    27    1
   102    27    28    2
