@<TRIPOS>MOLECULE
tmp/4qndA03.pdb
 92 87 0 0 0
SMALL
GASTEIGER

@<TRIPOS>ATOM
      1  N         22.9170   36.9920   78.5140 N.3    15  MET15      -0.1245
      2  CA        23.6290   35.7990   78.0600 C.3    15  MET15       0.1570
      3  C         22.7480   34.7650   77.3540 C.2    15  MET15       0.2261
      4  O         23.2130   34.0770   76.4460 O.2    15  MET15      -0.2867
      5  CB        24.3540   35.1470   79.2370 C.3    15  MET15       0.0387
      6  CG        25.5890   35.9190   79.6690 C.3    15  MET15       0.0595
      7  SD        26.5490   35.0770   80.9340 S.3    15  MET15      -0.1393
      8  CE        25.3600   35.0280   82.2660 C.3    15  MET15       0.0692
      9  N         23.0100   33.6920   73.1690 N.3    19  GLY19      -0.1225
     10  CA        23.0330   32.3460   72.6260 C.3    19  GLY19       0.1811
     11  C         22.1060   32.1590   71.4400 C.2    19  GLY19       0.2280
     12  O         22.2560   31.2130   70.6730 O.2    19  GLY19      -0.2866
     13  N         23.6620   33.9020   67.0930 N.3    22  SER22      -0.1217
     14  CA        24.3240   33.1690   66.0130 C.3    22  SER22       0.1889
     15  C         23.3960   32.1660   65.3020 C.2    22  SER22       0.2288
     16  O         23.4360   32.0740   64.0750 O.2    22  SER22      -0.2866
     17  CB        25.5760   32.4580   66.5320 C.3    22  SER22       0.2089
     18  OG        26.5400   33.3970   66.9680 O.3    22  SER22      -0.2183
     19  N         29.7770   21.9360   63.6220 N.3    52  TYR52      -0.1241
     20  CA        28.9440   22.9190   64.3210 C.3    52  TYR52       0.1605
     21  C         27.7570   22.2160   64.9640 C.2    52  TYR52       0.2264
     22  O         27.4540   22.4340   66.1390 O.2    52  TYR52      -0.2867
     23  CB        28.4240   24.0050   63.3730 C.3    52  TYR52       0.0534
     24  CG        29.4230   25.0540   62.9280 C.ar   52  TYR52      -0.0201
     25  CD1       30.7640   24.9780   63.2770 C.ar   52  TYR52      -0.0009
     26  CD2       29.0140   26.1160   62.1330 C.ar   52  TYR52      -0.0009
     27  CE1       31.6720   25.9440   62.8490 C.ar   52  TYR52       0.0417
     28  CE2       29.9030   27.0770   61.7010 C.ar   52  TYR52       0.0417
     29  CZ        31.2280   26.9920   62.0600 C.ar   52  TYR52       0.1957
     30  OH        32.1030   27.9620   61.6160 O.3    52  TYR52      -0.2866
     31  N         28.8280   20.0410   68.0260 N.3    55  ILE55      -0.1231
     32  CA        29.1320   20.8070   69.2290 C.3    55  ILE55       0.1692
     33  C         27.8730   21.4390   69.8220 C.2    55  ILE55       0.2591
     34  O         27.7020   21.4620   71.0410 O.2    55  ILE55      -0.2718
     35  CB        30.1830   21.9000   68.9490 C.3    55  ILE55       0.0266
     36  CG1       31.4910   21.2600   68.4910 C.3    55  ILE55       0.0019
     37  CG2       30.4140   22.7540   70.1880 C.3    55  ILE55       0.0020
     38  CD1       31.9950   20.1680   69.4210 C.3    55  ILE55       0.0001
     39  N         26.9860   21.9330   68.9620 N.am   56  ALA56      -0.1980
     40  CA        25.7280   22.5070   69.4290 C.3    56  ALA56       0.1597
     41  C         24.9050   21.4540   70.1670 C.2    56  ALA56       0.2287
     42  O         24.3100   21.7370   71.2040 O.2    56  ALA56      -0.2864
     43  CB        24.9360   23.0890   68.2650 C.3    56  ALA56       0.0319
     44  N         26.4540   20.8480   73.6850 N.3    59  TRP59      -0.1241
     45  CA        26.1030   21.9230   74.6090 C.3    59  TRP59       0.1605
     46  C         24.6270   21.8660   74.9970 C.2    59  TRP59       0.2264
     47  O         24.2670   22.1900   76.1270 O.2    59  TRP59      -0.2867
     48  CB        26.4280   23.2930   74.0070 C.3    59  TRP59       0.0550
     49  CG        27.8620   23.7040   74.1560 C.ar   59  TRP59       0.0003
     50  CD1       28.7370   23.9990   73.1510 C.ar   59  TRP59       0.0946
     51  CD2       28.5880   23.8720   75.3810 C.ar   59  TRP59       0.0152
     52  NE1       29.9600   24.3400   73.6730 N.ar   59  TRP59      -0.2442
     53  CE2       29.8960   24.2690   75.0390 C.ar   59  TRP59       0.0810
     54  CE3       28.2600   23.7240   76.7320 C.ar   59  TRP59       0.0012
     55  CZ2       30.8760   24.5190   75.9990 C.ar   59  TRP59       0.0191
     56  CZ3       29.2340   23.9720   77.6850 C.ar   59  TRP59       0.0001
     57  CH2       30.5250   24.3650   77.3130 C.ar   59  TRP59       0.0015
     58  N         20.1770   29.1870   79.6290 N.3    70  THR70      -0.1203
     59  CA        21.1240   30.1200   79.0230 C.3    70  THR70       0.1994
     60  C         22.0290   29.3580   78.0590 C.2    70  THR70       0.2617
     61  O         22.4160   29.8680   77.0050 O.2    70  THR70      -0.2717
     62  CB        21.9630   30.8520   80.0910 C.3    70  THR70       0.1784
     63  OG1       21.1050   31.7000   80.8640 O.3    70  THR70      -0.2211
     64  CG2       23.0460   31.7010   79.4460 C.3    70  THR70       0.0376
     65  N         22.3300   28.1130   78.4100 N.am   71  ILE71      -0.1979
     66  CA        23.1370   27.2550   77.5540 C.3    71  ILE71       0.1595
     67  C         22.3180   26.5070   76.4990 C.2    71  ILE71       0.2287
     68  O         22.6040   26.6210   75.3090 O.2    71  ILE71      -0.2864
     69  CB        23.9300   26.2240   78.3840 C.3    71  ILE71       0.0276
     70  CG1       24.9580   26.9330   79.2680 C.3    71  ILE71       0.0022
     71  CG2       24.6220   25.2250   77.4710 C.3    71  ILE71       0.0022
     72  CD1       25.8230   25.9850   80.0850 C.3    71  ILE71       0.0001
     73  N         21.7150   26.8450   72.0120 N.3    75  ASN75      -0.1240
     74  CA        22.3930   25.7410   71.3480 C.3    75  ASN75       0.1653
     75  C         21.4340   24.7320   70.7230 C.2    75  ASN75       0.2266
     76  O         21.7980   24.0460   69.7680 O.2    75  ASN75      -0.2867
     77  CB        23.3350   25.0370   72.3240 C.3    75  ASN75       0.1155
     78  CG        24.6390   25.7820   72.4980 C.2    75  ASN75       0.2627
     79  OD1       25.5070   25.7450   71.6240 O.2    75  ASN75      -0.2716
     80  ND2       24.7850   26.4670   73.6260 N.am   75  ASN75      -0.0877
     81  N         22.1240   24.2910   62.1310 N.3    82  TYR82      -0.1241
     82  CA        23.3450   23.7510   61.5390 C.3    82  TYR82       0.1605
     83  C         23.0780   22.4020   60.8760 C.2    82  TYR82       0.2264
     84  O         23.7150   22.0610   59.8800 O.2    82  TYR82      -0.2867
     85  CB        24.4480   23.6430   62.5990 C.3    82  TYR82       0.0534
     86  CG        24.6430   24.9340   63.3670 C.ar   82  TYR82      -0.0201
     87  CD1       24.4600   26.1660   62.7470 C.ar   82  TYR82      -0.0009
     88  CD2       24.9820   24.9240   64.7140 C.ar   82  TYR82      -0.0009
     89  CE1       24.6170   27.3490   63.4430 C.ar   82  TYR82       0.0417
     90  CE2       25.1370   26.1050   65.4190 C.ar   82  TYR82       0.0417
     91  CZ        24.9570   27.3140   64.7770 C.ar   82  TYR82       0.1957
     92  OH        25.1100   28.4940   65.4710 O.3    82  TYR82      -0.2866
@<TRIPOS>BOND
     1    84    83    2
     2    83    82    1
     3    82    81    1
     4    82    85    1
     5    30    29    1
     6    28    29   ar
     7    28    26   ar
     8    29    27   ar
     9    26    24   ar
    10    85    86    1
    11    87    86   ar
    12    87    89   ar
    13    27    25   ar
    14    24    25   ar
    15    24    23    1
    16    86    88   ar
    17    23    20    1
    18    89    91   ar
    19    19    20    1
    20    16    15    2
    21    20    21    1
    22    88    90   ar
    23    91    90   ar
    24    91    92    1
    25    21    22    2
    26    15    14    1
    27    14    17    1
    28    14    13    1
    29    17    18    1
    30    31    32    1
    31    43    40    1
    32    36    35    1
    33    36    38    1
    34    35    32    1
    35    35    37    1
    36    39    40    1
    37    39    33   am
    38    32    33    1
    39    40    41    1
    40    76    75    2
    41    33    34    2
    42    41    42    2
    43    12    11    2
    44    75    74    1
    45    74    73    1
    46    74    77    1
    47    11    10    1
    48    79    78    2
    49    77    78    1
    50    78    80   am
    51    10     9    1
    52    50    52   ar
    53    50    49   ar
    54    52    53   ar
    55    44    45    1
    56    48    49    1
    57    48    45    1
    58    49    51   ar
    59    45    46    1
    60    46    47    2
    61    53    51   ar
    62    53    55   ar
    63    68    67    2
    64    51    54   ar
    65    55    57   ar
    66     4     3    2
    67    67    66    1
    68    54    56   ar
    69    61    60    2
    70    57    56   ar
    71     3     2    1
    72    71    69    1
    73    66    69    1
    74    66    65    1
    75    60    65   am
    76    60    59    1
    77     2     1    1
    78     2     5    1
    79    69    70    1
    80    59    58    1
    81    59    62    1
    82     5     6    1
    83    70    72    1
    84    64    62    1
    85     6     7    1
    86    62    63    1
    87     7     8    1
