@<TRIPOS>MOLECULE
tmp/4qndA02.pdb
 82 76 0 0 0
SMALL
GASTEIGER

@<TRIPOS>ATOM
      1  N         28.7900   20.1470   59.8710 N.3    50  LEU50      -0.1245
      2  CA        28.6370   18.9080   60.6310 C.3    50  LEU50       0.1561
      3  C         29.1920   19.0690   62.0400 C.2    50  LEU50       0.2260
      4  O         28.5640   18.6620   63.0150 O.2    50  LEU50      -0.2867
      5  CB        29.3390   17.7400   59.9350 C.3    50  LEU50       0.0270
      6  CG        28.5510   16.9490   58.8900 C.3    50  LEU50       0.0019
      7  CD1       29.4830   16.0200   58.1280 C.3    50  LEU50       0.0001
      8  CD2       27.4260   16.1600   59.5440 C.3    50  LEU50       0.0001
      9  N         27.0810   21.3840   64.1720 N.3    53  SER53      -0.1202
     10  CA        25.9180   20.6330   64.6380 C.3    53  SER53       0.2020
     11  C         26.2860   19.7690   65.8380 C.2    53  SER53       0.2618
     12  O         25.5730   19.7450   66.8380 O.2    53  SER53      -0.2717
     13  CB        25.3500   19.7530   63.5180 C.3    53  SER53       0.2103
     14  OG        25.0290   20.5060   62.3620 O.3    53  SER53      -0.2182
     15  N         27.4090   19.0680   65.7240 N.am   54  PHE54      -0.1975
     16  CA        27.8850   18.1760   66.7790 C.3    54  PHE54       0.1639
     17  C         28.1200   18.9180   68.0920 C.2    54  PHE54       0.2290
     18  O         27.6620   18.4830   69.1480 O.2    54  PHE54      -0.2864
     19  CB        29.1700   17.4700   66.3330 C.3    54  PHE54       0.0560
     20  CG        29.7420   16.5300   67.3630 C.ar   54  PHE54      -0.0200
     21  CD1       29.0180   15.4320   67.8020 C.ar   54  PHE54      -0.0042
     22  CD2       31.0100   16.7380   67.8800 C.ar   54  PHE54      -0.0042
     23  CE1       29.5460   14.5660   68.7430 C.ar   54  PHE54      -0.0003
     24  CE2       31.5440   15.8730   68.8230 C.ar   54  PHE54      -0.0003
     25  CZ        30.8080   14.7870   69.2530 C.ar   54  PHE54      -0.0000
     26  N         24.8830   20.2380   69.6280 N.3    57  LEU57      -0.1245
     27  CA        24.1700   19.1340   70.2600 C.3    57  LEU57       0.1561
     28  C         24.7380   18.8310   71.6460 C.2    57  LEU57       0.2260
     29  O         23.9900   18.6200   72.5990 O.2    57  LEU57      -0.2867
     30  CB        24.2320   17.8820   69.3840 C.3    57  LEU57       0.0270
     31  CG        23.5510   16.6310   69.9450 C.3    57  LEU57       0.0019
     32  CD1       22.0770   16.8950   70.2270 C.3    57  LEU57       0.0001
     33  CD2       23.7200   15.4500   69.0020 C.3    57  LEU57       0.0001
     34  N         21.6980   23.9470   66.9310 N.3    79  PHE79      -0.1241
     35  CA        21.7430   22.5760   66.4370 C.3    79  PHE79       0.1605
     36  C         20.8460   22.3750   65.2190 C.2    79  PHE79       0.2264
     37  O         21.2800   21.8380   64.2010 O.2    79  PHE79      -0.2867
     38  CB        21.3400   21.5960   67.5420 C.3    79  PHE79       0.0534
     39  CG        21.2360   20.1690   67.0770 C.ar   79  PHE79      -0.0203
     40  CD1       22.3610   19.4840   66.6460 C.ar   79  PHE79      -0.0042
     41  CD2       20.0170   19.5110   67.0810 C.ar   79  PHE79      -0.0042
     42  CE1       22.2710   18.1700   66.2170 C.ar   79  PHE79      -0.0003
     43  CE2       19.9190   18.1980   66.6560 C.ar   79  PHE79      -0.0003
     44  CZ        21.0470   17.5250   66.2240 C.ar   79  PHE79      -0.0000
     45  N         22.1260   21.6450   61.4170 N.3    83  VAL83      -0.1245
     46  CA        21.6830   20.4190   60.7620 C.3    83  VAL83       0.1561
     47  C         21.0090   20.7670   59.4330 C.2    83  VAL83       0.2260
     48  O         21.2200   20.0920   58.4250 O.2    83  VAL83      -0.2867
     49  CB        20.7160   19.6020   61.6530 C.3    83  VAL83       0.0252
     50  CG1       20.0120   18.5210   60.8430 C.3    83  VAL83       0.0019
     51  CG2       21.4680   18.9860   62.8330 C.3    83  VAL83       0.0019
     52  N         23.6850   21.2760   57.0040 N.3    86  VAL86      -0.1231
     53  CA        24.2190   19.9810   56.5850 C.3    86  VAL86       0.1692
     54  C         23.3420   19.3340   55.5170 C.2    86  VAL86       0.2591
     55  O         23.8310   18.9200   54.4650 O.2    86  VAL86      -0.2718
     56  CB        24.3510   19.0100   57.7780 C.3    86  VAL86       0.0266
     57  CG1       24.6390   17.5970   57.2880 C.3    86  VAL86       0.0020
     58  CG2       25.4350   19.4830   58.7350 C.3    86  VAL86       0.0020
     59  N         22.0450   19.2500   55.7970 N.am   87  VAL87      -0.1980
     60  CA        21.0920   18.6510   54.8690 C.3    87  VAL87       0.1595
     61  C         21.1070   19.3630   53.5180 C.2    87  VAL87       0.2287
     62  O         21.1270   18.7210   52.4670 O.2    87  VAL87      -0.2864
     63  CB        19.6560   18.6710   55.4440 C.3    87  VAL87       0.0276
     64  CG1       18.6490   18.2170   54.3950 C.3    87  VAL87       0.0022
     65  CG2       19.5670   17.7890   56.6820 C.3    87  VAL87       0.0022
     66  N         24.3320   18.7510   51.3950 N.3    90  ILE90      -0.1231
     67  CA        24.2430   17.4310   50.7850 C.3    90  ILE90       0.1692
     68  C         23.2450   17.4280   49.6270 C.2    90  ILE90       0.2591
     69  O         23.5160   16.8690   48.5640 O.2    90  ILE90      -0.2718
     70  CB        23.8360   16.3660   51.8180 C.3    90  ILE90       0.0266
     71  CG1       24.9280   16.2230   52.8810 C.3    90  ILE90       0.0019
     72  CG2       23.5730   15.0290   51.1400 C.3    90  ILE90       0.0020
     73  CD1       24.5830   15.2550   53.9990 C.3    90  ILE90       0.0001
     74  N         22.1000   18.0710   49.8340 N.am   91  ALA91      -0.1980
     75  CA        21.0390   18.1010   48.8300 C.3    91  ALA91       0.1597
     76  C         21.4730   18.7750   47.5320 C.2    91  ALA91       0.2287
     77  O         21.0760   18.3510   46.4460 O.2    91  ALA91      -0.2864
     78  CB        19.8090   18.7970   49.3920 C.3    91  ALA91       0.0319
     79  N         25.4380   16.7640   46.5170 N.3    94  GLY94      -0.1225
     80  CA        25.5280   15.3180   46.4260 C.3    94  GLY94       0.1811
     81  C         26.6120   14.7840   47.3410 C.2    94  GLY94       0.2280
     82  O         26.8940   13.5870   47.3610 O.2    94  GLY94      -0.2866
@<TRIPOS>BOND
     1    80    79    1
     2    80    81    1
     3    77    76    2
     4    81    82    2
     5    76    75    1
     6    69    68    2
     7    75    78    1
     8    75    74    1
     9    68    74   am
    10    68    67    1
    11    67    66    1
    12    67    70    1
    13    72    70    1
    14    70    71    1
    15    62    61    2
    16    71    73    1
    17    61    60    1
    18    64    63    1
    19    55    54    2
    20    60    63    1
    21    60    59    1
    22    63    65    1
    23    54    59   am
    24    54    53    1
    25    53    52    1
    26    53    56    1
    27    57    56    1
    28    56    58    1
    29     7     6    1
    30    48    47    2
    31     6     8    1
    32     6     5    1
    33    47    46    1
    34     1     2    1
    35     5     2    1
    36     2     3    1
    37    46    45    1
    38    46    49    1
    39    50    49    1
    40    49    51    1
    41     3     4    2
    42    14    13    1
    43    13    10    1
    44     9    10    1
    45    37    36    2
    46    10    11    1
    47    36    35    1
    48    15    11   am
    49    15    16    1
    50    11    12    2
    51    42    44   ar
    52    42    40   ar
    53    44    43   ar
    54    19    16    1
    55    19    20    1
    56    35    34    1
    57    35    38    1
    58    40    39   ar
    59    43    41   ar
    60    16    17    1
    61    39    41   ar
    62    39    38    1
    63    20    21   ar
    64    20    22   ar
    65    21    23   ar
    66    22    24   ar
    67    17    18    2
    68    23    25   ar
    69    24    25   ar
    70    33    31    1
    71    30    31    1
    72    30    27    1
    73    26    27    1
    74    31    32    1
    75    27    28    1
    76    28    29    2
