@<TRIPOS>MOLECULE
tmp/4qneA01.pdb
 180 167 0 0 0
SMALL
GASTEIGER

@<TRIPOS>ATOM
      1  N         91.5410    8.8850   10.0270 N.3    46  SER46      -0.1217
      2  CA        92.8000    8.4960    9.4440 C.3    46  SER46       0.1889
      3  C         92.5790    7.4150    8.4180 C.2    46  SER46       0.2288
      4  O         92.9930    6.2540    8.6030 O.2    46  SER46      -0.2866
      5  CB        93.7180    8.0390   10.5470 C.3    46  SER46       0.2089
      6  OG        93.0340    7.0060   11.2150 O.3    46  SER46      -0.2183
      7  N         98.0140    5.9310    7.6580 N.3    70  LYS70      -0.1245
      8  CA        99.2330    5.1250    7.6360 C.3    70  LYS70       0.1561
      9  C         99.4030    4.1700    6.4750 C.2    70  LYS70       0.2260
     10  O        100.3810    3.4380    6.4260 O.2    70  LYS70      -0.2867
     11  CB        99.3600    4.3520    8.9260 C.3    70  LYS70       0.0271
     12  CG        98.4310    3.1810    9.0460 C.3    70  LYS70       0.0035
     13  CD        98.2430    2.8850   10.5240 C.3    70  LYS70       0.0206
     14  CE        97.6690    1.5030   10.7770 C.3    70  LYS70       0.1093
     15  NZ        96.2120    1.4500   10.4750 N.3    70  LYS70      -0.1314
     16  N         99.8400    2.1580   13.5910 N.3    97  GLY97      -0.1210
     17  CA        99.3090    0.9030   14.1150 C.3    97  GLY97       0.1956
     18  C         99.7250    0.6290   15.5440 C.2    97  GLY97       0.2612
     19  O        100.7490    1.0920   16.0430 O.2    97  GLY97      -0.2717
     20  N         98.9240   -0.1800   16.1980 N.am   98  ALA98      -0.1965
     21  CA        99.1990   -0.6130   17.5360 C.3    98  ALA98       0.1728
     22  C         99.9260   -1.9310   17.4880 C.2    98  ALA98       0.2616
     23  O         99.7710   -2.7120   18.4060 O.2    98  ALA98      -0.2715
     24  CB        97.8800   -0.7680   18.2890 C.3    98  ALA98       0.0334
     25  N        100.6870   -2.1940   16.4210 N.am   99  ALA99      -0.1964
     26  CA       101.4230   -3.4590   16.2690 C.3    99  ALA99       0.1713
     27  C        102.9270   -3.2710   16.4730 C.2    99  ALA99       0.2458
     28  O        103.4740   -2.1990   16.1720 O.2    99  ALA99      -0.2730
     29  CB       101.1410   -4.0550   14.8950 C.3    99  ALA99       0.0333
     30  N        103.6220   -4.3070   16.9880 N.am  100  PRO100     -0.2727
     31  CA       105.0660   -4.1730   17.1560 C.3   100  PRO100      0.1402
     32  C        105.7450   -3.9290   15.8200 C.2   100  PRO100      0.2269
     33  O        105.2630   -4.3990   14.8250 O.2   100  PRO100     -0.2865
     34  CB       105.4830   -5.5310   17.7160 C.3   100  PRO100      0.0296
     35  CG       104.4250   -6.4750   17.2780 C.3   100  PRO100      0.0237
     36  CD       103.1590   -5.6660   17.3210 C.3   100  PRO100      0.0939
     37  N         95.8600    4.2170   16.4210 N.3   120  ASP120     -0.1225
     38  CA        94.4970    3.8290   16.1800 C.3   120  ASP120      0.1805
     39  C         94.4850    2.3350   16.0780 C.2   120  ASP120      0.2598
     40  O         95.3660    1.7340   15.5020 O.2   120  ASP120     -0.2718
     41  CB        93.7960    4.5940   15.0300 C.3   120  ASP120      0.1424
     42  CG        94.2030    4.1520   13.6360 C.2   120  ASP120      0.3668
     43  OD1       95.2980    3.5950   13.4470 O.co2 120  ASP120     -0.2456
     44  OD2       93.4030    4.3760   12.7040 O.co2 120  ASP120     -0.2456
     45  N         93.4840    1.7430   16.7150 N.am  121  SER121     -0.1938
     46  CA        93.3020    0.2980   16.7800 C.3   121  SER121      0.2055
     47  C         91.7740    0.1240   16.8030 C.2   121  SER121      0.2644
     48  O         91.0600    1.0750   17.1170 O.2   121  SER121     -0.2714
     49  CB        93.8530   -0.2120   18.0770 C.3   121  SER121      0.2130
     50  OG        93.4300   -1.5360   18.3200 O.3   121  SER121     -0.2179
     51  N         91.2890   -1.0500   16.4280 N.am  122  SER122     -0.1935
     52  CA        89.9180   -1.3890   16.6430 C.3   122  SER122      0.2055
     53  C         89.7050   -1.9170   18.0360 C.2   122  SER122      0.2643
     54  O         88.5550   -2.1110   18.4220 O.2   122  SER122     -0.2714
     55  CB        89.3890   -2.4300   15.6650 C.3   122  SER122      0.2130
     56  OG        90.0820   -3.6580   15.7240 O.3   122  SER122     -0.2179
     57  N         90.7580   -2.1770   18.8110 N.am  123  HIS123     -0.1973
     58  CA        90.4510   -2.5920   20.1930 C.3   123  HIS123      0.1656
     59  C         91.3910   -1.9510   21.1880 C.2   123  HIS123      0.2291
     60  O         92.3770   -2.5460   21.5880 O.2   123  HIS123     -0.2864
     61  CB        90.4350   -4.1080   20.2840 C.3   123  HIS123      0.0771
     62  CG        89.9520   -4.6390   21.5970 C.ar  123  HIS123      0.0820
     63  ND1       89.1100   -3.9300   22.4360 N.ar  123  HIS123     -0.2267
     64  CD2       90.1910   -5.8210   22.2120 C.ar  123  HIS123      0.1154
     65  CE1       88.8480   -4.6610   23.5050 C.ar  123  HIS123      0.1986
     66  NE2       89.4930   -5.8110   23.3940 N.ar  123  HIS123     -0.2212
     67  N         92.7670   -3.8960   24.1690 N.3   126  SER126     -0.1217
     68  CA        93.7500   -4.9820   24.0270 C.3   126  SER126      0.1889
     69  C         95.0820   -4.7010   24.7660 C.2   126  SER126      0.2288
     70  O         95.6100   -3.5750   24.7030 O.2   126  SER126     -0.2866
     71  CB        94.0870   -5.2010   22.5600 C.3   126  SER126      0.2089
     72  OG        94.4820   -6.5400   22.3680 O.3   126  SER126     -0.2183
     73  N         98.0550   -5.6380   24.3860 N.3   128  GLY128     -0.1210
     74  CA        98.9450   -5.2530   23.3180 C.3   128  GLY128      0.1956
     75  C         98.8790   -3.7890   23.0080 C.2   128  GLY128      0.2611
     76  O         99.9040   -3.1390   22.8790 O.2   128  GLY128     -0.2717
     77  N         97.6860   -3.2430   22.8570 N.am  129  VAL129     -0.1979
     78  CA        97.5580   -1.8510   22.5310 C.3   129  VAL129      0.1595
     79  C         97.9840   -0.9900   23.7100 C.2   129  VAL129      0.2287
     80  O         98.7110   -0.0020   23.5540 O.2   129  VAL129     -0.2864
     81  CB        96.1180   -1.5190   22.1230 C.3   129  VAL129      0.0276
     82  CG1       95.9180   -0.0080   21.9390 C.3   129  VAL129      0.0022
     83  CG2       95.7630   -2.2470   20.8390 C.3   129  VAL129      0.0022
     84  N         90.4720    2.4330   19.7700 N.3   149  ASN149     -0.1240
     85  CA        89.1740    2.9430   20.1750 C.3   149  ASN149      0.1653
     86  C         88.5920    2.0960   21.2840 C.2   149  ASN149      0.2266
     87  O         88.7730    0.8590   21.2860 O.2   149  ASN149     -0.2867
     88  CB        88.1810    2.9400   19.0140 C.3   149  ASN149      0.1155
     89  CG        88.3390    4.1340   18.0860 C.2   149  ASN149      0.2627
     90  OD1       89.4220    4.7320   17.9780 O.2   149  ASN149     -0.2716
     91  ND2       87.2400    4.4540   17.3450 N.am  149  ASN149     -0.0877
     92  N         89.7480    8.0060   22.3890 N.3   168  LYS168     -0.1245
     93  CA        88.8970    7.9450   21.2190 C.3   168  LYS168      0.1561
     94  C         87.8330    6.8330   21.3380 C.2   168  LYS168      0.2260
     95  O         88.1360    5.6570   21.6120 O.2   168  LYS168     -0.2867
     96  CB        89.7230    7.8310   19.9300 C.3   168  LYS168      0.0271
     97  CG        88.8660    8.1470   18.6890 C.3   168  LYS168      0.0035
     98  CD        89.6080    8.7660   17.5090 C.3   168  LYS168      0.0206
     99  CE        90.6940    7.8470   16.9320 C.3   168  LYS168      0.1093
    100  NZ        90.0830    6.5700   16.4720 N.3   168  LYS168     -0.1314
    101  N         84.3940    4.6450   19.9560 N.3   170  GLY170     -0.1210
    102  CA        83.6790    4.1100   18.8240 C.3   170  GLY170      0.1956
    103  C         84.0890    2.6990   18.4430 C.2   170  GLY170      0.2612
    104  O         85.1470    2.4890   17.8300 O.2   170  GLY170     -0.2717
    105  N         83.2340    1.7230   18.7260 N.am  171  ILE171     -0.1965
    106  CA        83.4340    0.4260   18.1500 C.3   171  ILE171      0.1727
    107  C         82.2390    0.0600   17.3220 C.2   171  ILE171      0.2617
    108  O         81.1840   -0.2300   17.8470 O.2   171  ILE171     -0.2715
    109  CB        83.5940   -0.6340   19.2020 C.3   171  ILE171      0.0290
    110  CG1       84.7190   -0.2440   20.1880 C.3   171  ILE171      0.0022
    111  CG2       83.7670   -2.0090   18.5380 C.3   171  ILE171      0.0023
    112  CD1       86.1070   -0.5110   19.6740 C.3   171  ILE171      0.0001
    113  N         82.4320    0.0440   16.0090 N.am  172  GLY172     -0.1941
    114  CA        81.4200   -0.4080   15.0990 C.3   172  GLY172      0.1998
    115  C         80.4380    0.6100   14.4890 C.2   172  GLY172      0.2480
    116  O         79.6840    0.2250   13.5990 O.2   172  GLY172     -0.2729
    117  N         80.4080    1.8850   14.9420 N.am  173  PRO173     -0.2726
    118  CA        79.3760    2.8170   14.4050 C.3   173  PRO173      0.1402
    119  C         79.6070    3.4330   13.0220 C.2   173  PRO173      0.2269
    120  O         78.7100    4.0880   12.4950 O.2   173  PRO173     -0.2865
    121  CB        79.4140    3.9410   15.3960 C.3   173  PRO173      0.0296
    122  CG        80.8510    4.0100   15.7450 C.3   173  PRO173      0.0237
    123  CD        81.2580    2.5800   15.9000 C.3   173  PRO173      0.0939
    124  N         81.6480    0.5750    8.5530 N.3   177  CYS177     -0.1235
    125  CA        82.1190   -0.4690    9.4500 C.3   177  CYS177      0.1677
    126  C         81.1390   -1.6260    9.4440 C.2   177  CYS177      0.2270
    127  O         79.9580   -1.4110    9.3490 O.2   177  CYS177     -0.2867
    128  CB        82.2140    0.1080   10.8580 C.3   177  CYS177      0.0956
    129  SG        82.8530   -0.9840   12.1630 S.3   177  CYS177     -0.0801
    130  N         81.9810   -4.3160   11.7860 N.3   179  THR179     -0.1218
    131  CA        82.4350   -4.9870   13.0480 C.3   179  THR179      0.1862
    132  C         81.3020   -5.4850   13.8520 C.2   179  THR179      0.2287
    133  O         81.3190   -6.6210   14.2650 O.2   179  THR179     -0.2866
    134  CB        83.1940   -4.0210   13.9670 C.3   179  THR179      0.1770
    135  OG1       84.3700   -3.6050   13.2920 O.3   179  THR179     -0.2211
    136  CG2       83.6290   -4.6800   15.3060 C.3   179  THR179      0.0375
    137  N         81.3360   -9.5270   14.0940 N.3   183  THR183     -0.1218
    138  CA        81.7090  -10.0330   15.4240 C.3   183  THR183      0.1862
    139  C         80.6170  -10.0710   16.4980 C.2   183  THR183      0.2287
    140  O         80.7550  -10.8280   17.4440 O.2   183  THR183     -0.2866
    141  CB        82.7690   -9.1290   16.0520 C.3   183  THR183      0.1770
    142  OG1       82.1230   -7.9380   16.5750 O.3   183  THR183     -0.2211
    143  CG2       83.8480   -8.7960   14.9710 C.3   183  THR183      0.0375
    144  N         84.3280    9.0870   17.6960 N.3   210  ASP210     -0.1239
    145  CA        84.7140    8.6550   16.3270 C.3   210  ASP210      0.1674
    146  C         83.7060    7.6930   15.7350 C.2   210  ASP210      0.2266
    147  O         83.6260    6.5730   16.1240 O.2   210  ASP210     -0.2867
    148  CB        86.0930    8.0360   16.4110 C.3   210  ASP210      0.1410
    149  CG        86.5550    7.3800   15.1510 C.2   210  ASP210      0.3668
    150  OD1       86.2280    7.8430   14.0400 O.co2 210  ASP210     -0.2456
    151  OD2       87.3120    6.3900   15.2820 O.co2 210  ASP210     -0.2456
    152  N         88.9720    1.0400    6.6720 N.3   260  MET260     -0.1230
    153  CA        90.3760    0.6960    6.7680 C.3   260  MET260      0.1702
    154  C         90.6210   -0.7860    7.0790 C.2   260  MET260      0.2592
    155  O         91.7140   -1.2800    6.8650 O.2   260  MET260     -0.2718
    156  CB        91.0990    1.6830    7.6980 C.3   260  MET260      0.0401
    157  CG        91.3930    3.0270    6.9900 C.3   260  MET260      0.0596
    158  SD        92.5140    3.1440    5.5190 S.3   260  MET260     -0.1393
    159  CE        94.0130    3.2300    6.4870 C.3   260  MET260      0.0692
    160  N         89.5830   -1.5250    7.4630 N.am  261  GLY261     -0.1957
    161  CA        89.6180   -3.0140    7.5320 C.3   261  GLY261      0.1869
    162  C         88.8690   -3.7090    6.3810 C.2   261  GLY261      0.2309
    163  O         88.4680   -4.8940    6.5020 O.2   261  GLY261     -0.2863
    164  N         93.2310   -3.3700    3.4020 N.3   266  MET266     -0.1245
    165  CA        94.1730   -4.3050    4.0600 C.3   266  MET266      0.1570
    166  C         95.2990   -4.7700    3.1000 C.2   266  MET266      0.2261
    167  O         96.4220   -4.9980    3.5510 O.2   266  MET266     -0.2867
    168  CB        93.4430   -5.5520    4.6110 C.3   266  MET266      0.0387
    169  CG        92.6650   -5.4290    5.9400 C.3   266  MET266      0.0595
    170  SD        91.2640   -6.6100    6.0350 S.3   266  MET266     -0.1393
    171  CE        91.8900   -7.9440    7.0590 C.3   266  MET266      0.0692
    172  N         86.3370   -6.1870    8.2790 N.3   271  GLU271     -0.1245
    173  CA        85.3410   -5.5590    9.1670 C.3   271  GLU271      0.1567
    174  C         84.9170   -4.2260    8.5880 C.2   271  GLU271      0.2260
    175  O         84.4200   -3.3500    9.3410 O.2   271  GLU271     -0.2867
    176  CB        85.8890   -5.4080   10.5910 C.3   271  GLU271      0.0388
    177  CG        85.9120   -6.7610   11.3240 C.3   271  GLU271      0.1160
    178  CD        86.7130   -6.7800   12.6450 C.2   271  GLU271      0.3649
    179  OE1       87.1250   -5.7090   13.1820 O.co2 271  GLU271     -0.2457
    180  OE2       86.9470   -7.9060   13.1450 O.co2 271  GLU271     -0.2457
@<TRIPOS>BOND
     1   166   167    2
     2   166   165    1
     3   164   165    1
     4   165   168    1
     5   168   169    1
     6   158   159    1
     7   158   157    1
     8   169   170    1
     9   170   171    1
    10   162   163    2
    11   162   161    1
    12    10     9    2
    13     9     8    1
    14   152   153    1
    15   153   154    1
    16   153   156    1
    17   155   154    2
    18   157   156    1
    19   154   160   am
    20   160   161    1
    21     8     7    1
    22     8    11    1
    23   172   173    1
    24     3     4    2
    25     3     2    1
    26   124   125    1
    27   174   173    1
    28   174   175    2
    29    11    12    1
    30    12    13    1
    31   173   176    1
    32   127   126    2
    33   126   125    1
    34     2     1    1
    35     2     5    1
    36   125   128    1
    37    15    14    1
    38    13    14    1
    39     5     6    1
    40   176   177    1
    41   128   129    1
    42   177   178    1
    43   130   131    1
    44   120   119    2
    45   178   180   ar
    46   178   179   ar
    47    44    42   ar
    48   119   118    1
    49   131   132    1
    50   131   134    1
    51   135   134    1
    52    43    42   ar
    53    16    17    1
    54   116   115    2
    55    42    41    1
    56   132   133    2
    57   134   136    1
    58   150   149   ar
    59   137   138    1
    60    17    18    1
    61   118   117    1
    62   118   121    1
    63   115   117   am
    64   115   114    1
    65    33    32    2
    66    29    26    1
    67   117   123    1
    68   143   141    1
    69    41    38    1
    70   114   113    1
    71   149   151   ar
    72   149   148    1
    73   121   122    1
    74   138   141    1
    75   138   139    1
    76    40    39    2
    77    18    19    2
    78    18    20   am
    79    55    56    1
    80    55    52    1
    81   146   147    2
    82   146   145    1
    83   122   123    1
    84    32    31    1
    85   113   107   am
    86   141   142    1
    87    39    38    1
    88    39    45   am
    89    28    27    2
    90    38    37    1
    91    20    21    1
    92    26    25    1
    93    26    27    1
    94   145   148    1
    95   145   144    1
    96    25    22   am
    97    51    52    1
    98    51    47   am
    99   100    99    1
   100    27    30   am
   101   139   140    2
   102    52    53    1
   103    45    46    1
   104    46    47    1
   105    46    49    1
   106    47    48    2
   107    99    98    1
   108    30    31    1
   109    30    36    1
   110    31    34    1
   111    35    36    1
   112    35    34    1
   113   107   108    2
   114   107   106    1
   115    91    89   am
   116    22    21    1
   117    22    23    2
   118    98    97    1
   119    21    24    1
   120   104   103    2
   121    90    89    2
   122    53    54    2
   123    53    57   am
   124    49    50    1
   125    89    88    1
   126   106   105    1
   127   106   109    1
   128   103   105   am
   129   103   102    1
   130   111   109    1
   131    97    96    1
   132    57    58    1
   133   102   101    1
   134    88    85    1
   135   109   110    1
   136   112   110    1
   137    84    85    1
   138    96    93    1
   139    85    86    1
   140    58    61    1
   141    58    59    1
   142    61    62    1
   143    83    81    1
   144    59    60    2
   145    93    94    1
   146    93    92    1
   147    86    87    2
   148    94    95    2
   149    62    64   ar
   150    62    63   ar
   151    82    81    1
   152    81    78    1
   153    64    66   ar
   154    72    71    1
   155    63    65   ar
   156    78    77    1
   157    78    79    1
   158    71    68    1
   159    77    75   am
   160    76    75    2
   161    75    74    1
   162    74    73    1
   163    66    65   ar
   164    80    79    2
   165    68    67    1
   166    68    69    1
   167    70    69    2
