@<TRIPOS>MOLECULE
tmp/4qneA00.pdb
 141 133 0 0 0
SMALL
GASTEIGER

@<TRIPOS>ATOM
      1  N         89.0800   11.5310    9.9330 N.3    45  ALA45      -0.1231
      2  CA        89.4680   10.1570   10.1280 C.3    45  ALA45       0.1694
      3  C         90.7970    9.8040    9.4280 C.2    45  ALA45       0.2593
      4  O         91.1350   10.3090    8.3610 O.2    45  ALA45      -0.2718
      5  CB        88.3880    9.2490    9.6380 C.3    45  ALA45       0.0304
      6  N         91.5410    8.8850   10.0270 N.am   46  SER46      -0.1938
      7  CA        92.8000    8.4960    9.4440 C.3    46  SER46       0.2055
      8  C         92.5790    7.4150    8.4180 C.2    46  SER46       0.2642
      9  O         92.9930    6.2540    8.6030 O.2    46  SER46      -0.2714
     10  CB        93.7180    8.0390   10.5470 C.3    46  SER46       0.2130
     11  OG        93.0340    7.0060   11.2150 O.3    46  SER46      -0.2179
     12  N         91.9210    7.7880    7.3260 N.am   47  MET47      -0.1976
     13  CA        91.5220    6.8430    6.3040 C.3    47  MET47       0.1605
     14  C         92.1500    7.2180    4.9710 C.2    47  MET47       0.2287
     15  O         92.2960    8.3990    4.6900 O.2    47  MET47      -0.2864
     16  CB        90.0280    6.8230    6.2430 C.3    47  MET47       0.0413
     17  CG        89.4190    6.3260    7.5530 C.3    47  MET47       0.0598
     18  SD        87.6360    6.4380    7.5370 S.3    47  MET47      -0.1393
     19  CE        87.2040    4.9970    6.6090 C.3    47  MET47       0.0692
     20  N         90.4720    2.4330   19.7700 N.3   149  ASN149     -0.1240
     21  CA        89.1740    2.9430   20.1750 C.3   149  ASN149      0.1653
     22  C         88.5920    2.0960   21.2840 C.2   149  ASN149      0.2266
     23  O         88.7730    0.8590   21.2860 O.2   149  ASN149     -0.2867
     24  CB        88.1810    2.9400   19.0140 C.3   149  ASN149      0.1155
     25  CG        88.3390    4.1340   18.0860 C.2   149  ASN149      0.2627
     26  OD1       89.4220    4.7320   17.9780 O.2   149  ASN149     -0.2716
     27  ND2       87.2400    4.4540   17.3450 N.am  149  ASN149     -0.0877
     28  N         89.7480    8.0060   22.3890 N.3   168  LYS168     -0.1245
     29  CA        88.8970    7.9450   21.2190 C.3   168  LYS168      0.1561
     30  C         87.8330    6.8330   21.3380 C.2   168  LYS168      0.2260
     31  O         88.1360    5.6570   21.6120 O.2   168  LYS168     -0.2867
     32  CB        89.7230    7.8310   19.9300 C.3   168  LYS168      0.0271
     33  CG        88.8660    8.1470   18.6890 C.3   168  LYS168      0.0035
     34  CD        89.6080    8.7660   17.5090 C.3   168  LYS168      0.0206
     35  CE        90.6940    7.8470   16.9320 C.3   168  LYS168      0.1093
     36  NZ        90.0830    6.5700   16.4720 N.3   168  LYS168     -0.1314
     37  N         84.3940    4.6450   19.9560 N.3   170  GLY170     -0.1225
     38  CA        83.6790    4.1100   18.8240 C.3   170  GLY170      0.1811
     39  C         84.0890    2.6990   18.4430 C.2   170  GLY170      0.2280
     40  O         85.1470    2.4890   17.8300 O.2   170  GLY170     -0.2866
     41  N         80.8120    3.3030   12.4850 N.3   174  GLY174     -0.1210
     42  CA        81.1710    3.9970   11.2610 C.3   174  GLY174      0.1956
     43  C         80.3020    3.6240   10.1020 C.2   174  GLY174      0.2613
     44  O         79.9010    2.4530    9.9280 O.2   174  GLY174     -0.2717
     45  N         80.0100    4.6040    9.2730 N.am  175  SER175     -0.1938
     46  CA        79.1790    4.3600    8.0860 C.3   175  SER175      0.2055
     47  C         79.5430    3.0900    7.3130 C.2   175  SER175      0.2643
     48  O         78.6620    2.3930    6.8080 O.2   175  SER175     -0.2714
     49  CB        79.2410    5.5270    7.1480 C.3   175  SER175      0.2130
     50  OG        80.5730    5.6680    6.7590 O.3   175  SER175     -0.2179
     51  N         80.8210    2.7910    7.2230 N.am  176  ILE176     -0.1963
     52  CA        81.3550    1.6920    6.4060 C.3   176  ILE176      0.1727
     53  C         81.8300    0.5120    7.2290 C.2   176  ILE176      0.2616
     54  O         82.5060   -0.3530    6.6760 O.2   176  ILE176     -0.2715
     55  CB        82.6570    2.1420    5.6410 C.3   176  ILE176      0.0290
     56  CG1       83.5780    3.0130    6.5210 C.3   176  ILE176      0.0022
     57  CG2       82.3210    2.9490    4.4230 C.3   176  ILE176      0.0023
     58  CD1       83.9380    2.4760    7.9220 C.3   176  ILE176      0.0001
     59  N         81.6480    0.5750    8.5530 N.am  177  CYS177     -0.1968
     60  CA        82.1190   -0.4690    9.4500 C.3   177  CYS177      0.1712
     61  C         81.1390   -1.6260    9.4440 C.2   177  CYS177      0.2296
     62  O         79.9580   -1.4110    9.3490 O.2   177  CYS177     -0.2864
     63  CB        82.2140    0.1080   10.8580 C.3   177  CYS177      0.0983
     64  SG        82.8530   -0.9840   12.1630 S.3   177  CYS177     -0.0798
     65  N         84.3280    9.0870   17.6960 N.3   210  ASP210     -0.1225
     66  CA        84.7140    8.6550   16.3270 C.3   210  ASP210      0.1805
     67  C         83.7060    7.6930   15.7350 C.2   210  ASP210      0.2598
     68  O         83.6260    6.5730   16.1240 O.2   210  ASP210     -0.2718
     69  CB        86.0930    8.0360   16.4110 C.3   210  ASP210      0.1424
     70  CG        86.5550    7.3800   15.1510 C.2   210  ASP210      0.3668
     71  OD1       86.2280    7.8430   14.0400 O.co2 210  ASP210     -0.2456
     72  OD2       87.3120    6.3900   15.2820 O.co2 210  ASP210     -0.2456
     73  N         82.9040    8.1500   14.7900 N.am  211  GLY211     -0.1942
     74  CA        82.1180    7.2490   13.9540 C.3   211  GLY211      0.2014
     75  C         80.6320    7.5070   14.0310 C.2   211  GLY211      0.2639
     76  O         80.1260    7.9250   15.0660 O.2   211  GLY211     -0.2714
     77  N         79.9280    7.2600   12.9190 N.am  212  GLY212     -0.1939
     78  CA        78.4640    7.3320   12.9370 C.3   212  GLY212      0.2014
     79  C         77.8260    8.7210   12.9070 C.2   212  GLY212      0.2638
     80  O         76.5760    8.8320   12.9310 O.2   212  GLY212     -0.2714
     81  N         78.6360    9.7600   12.7480 N.am  213  ILE213     -0.1977
     82  CA        78.1330   11.0930   12.5040 C.3   213  ILE213      0.1596
     83  C         77.6260   11.2540   11.0440 C.2   213  ILE213      0.2287
     84  O         78.3990   11.0810   10.1030 O.2   213  ILE213     -0.2864
     85  CB        79.2610   12.1000   12.7380 C.3   213  ILE213      0.0276
     86  CG1       79.8510   11.9810   14.1530 C.3   213  ILE213      0.0022
     87  CG2       78.7790   13.5080   12.4920 C.3   213  ILE213      0.0022
     88  CD1       78.8880   12.3770   15.2470 C.3   213  ILE213      0.0001
     89  N         85.2280   12.8060   15.4340 N.3   231  MET231     -0.1230
     90  CA        86.0730   12.4290   14.3310 C.3   231  MET231      0.1702
     91  C         85.0920   11.9340   13.3050 C.2   231  MET231      0.2592
     92  O         84.1570   11.1820   13.6590 O.2   231  MET231     -0.2718
     93  CB        87.0820   11.3310   14.7330 C.3   231  MET231      0.0401
     94  CG        87.8270   10.7200   13.5410 C.3   231  MET231      0.0596
     95  SD        89.2020    9.5870   13.9060 S.3   231  MET231     -0.1393
     96  CE        90.5110   10.7710   14.0400 C.3   231  MET231      0.0692
     97  N         85.2780   12.3490   12.0660 N.am  232  VAL232     -0.1966
     98  CA        84.3710   12.0190   11.0070 C.3   232  VAL232      0.1727
     99  C         85.0970   11.5580    9.7660 C.2   232  VAL232      0.2617
    100  O         86.1620   12.1060    9.3720 O.2   232  VAL232     -0.2715
    101  CB        83.4820   13.1860   10.5710 C.3   232  VAL232      0.0290
    102  CG1       82.6200   13.6240   11.7240 C.3   232  VAL232      0.0023
    103  CG2       84.2970   14.3040    9.9790 C.3   232  VAL232      0.0023
    104  N         84.4800   10.5520    9.1690 N.am  233  GLY233     -0.1940
    105  CA        84.9360    9.9130    7.9520 C.3   233  GLY233      0.2014
    106  C         84.0480   10.2300    6.7810 C.2   233  GLY233      0.2640
    107  O         84.4390   11.0480    5.9660 O.2   233  GLY233     -0.2714
    108  N         82.8730    9.5880    6.6630 N.am  234  SER234     -0.1935
    109  CA        82.0110    9.7960    5.5100 C.3   234  SER234      0.2055
    110  C         81.6330   11.2600    5.2790 C.2   234  SER234      0.2642
    111  O         81.5440   11.6740    4.1800 O.2   234  SER234     -0.2714
    112  CB        80.7230    8.9790    5.6000 C.3   234  SER234      0.2130
    113  OG        79.9550    9.4740    6.6540 O.3   234  SER234     -0.2179
    114  N         81.4310   12.0540    6.3010 N.am  235  MET235     -0.1976
    115  CA        81.0770   13.4620    6.1420 C.3   235  MET235      0.1605
    116  C         82.1520   14.2470    5.3400 C.2   235  MET235      0.2287
    117  O         81.8230   15.2260    4.6790 O.2   235  MET235     -0.2864
    118  CB        80.8740   14.0580    7.5230 C.3   235  MET235      0.0413
    119  CG        80.3490   15.4590    7.5720 C.3   235  MET235      0.0598
    120  SD        79.9210   16.0010    9.2730 S.3   235  MET235     -0.1393
    121  CE        78.2990   15.2000    9.3050 C.3   235  MET235      0.0692
    122  N         85.0230    5.6960   -1.0320 N.3   257  TYR257     -0.1241
    123  CA        85.1420    5.7260    0.3980 C.3   257  TYR257      0.1605
    124  C         85.1920    4.2520    0.8550 C.2   257  TYR257      0.2264
    125  O         84.3730    3.4360    0.4440 O.2   257  TYR257     -0.2867
    126  CB        84.0150    6.5580    1.0570 C.3   257  TYR257      0.0534
    127  CG        84.0910    6.6290    2.6010 C.ar  257  TYR257     -0.0201
    128  CD1       85.2130    7.0820    3.2340 C.ar  257  TYR257     -0.0009
    129  CD2       83.0180    6.2450    3.3990 C.ar  257  TYR257     -0.0009
    130  CE1       85.3070    7.1310    4.6440 C.ar  257  TYR257      0.0417
    131  CE2       83.0840    6.2930    4.8120 C.ar  257  TYR257      0.0417
    132  CZ        84.2540    6.7010    5.4280 C.ar  257  TYR257      0.1957
    133  OH        84.3600    6.7410    6.8020 O.3   257  TYR257     -0.2866
    134  N         88.9720    1.0400    6.6720 N.3   260  MET260     -0.1245
    135  CA        90.3760    0.6960    6.7680 C.3   260  MET260      0.1570
    136  C         90.6210   -0.7860    7.0790 C.2   260  MET260      0.2261
    137  O         91.7140   -1.2800    6.8650 O.2   260  MET260     -0.2867
    138  CB        91.0990    1.6830    7.6980 C.3   260  MET260      0.0387
    139  CG        91.3930    3.0270    6.9900 C.3   260  MET260      0.0595
    140  SD        92.5140    3.1440    5.5190 S.3   260  MET260     -0.1393
    141  CE        94.0130    3.2300    6.4870 C.3   260  MET260      0.0692
@<TRIPOS>BOND
     1   122   123    1
     2   123   124    1
     3   123   126    1
     4   125   124    2
     5   126   127    1
     6   127   128   ar
     7   127   129   ar
     8   128   130   ar
     9   129   131   ar
    10   111   110    2
    11    57    55    1
    12   130   132   ar
    13   117   116    2
    14    15    14    2
    15   131   132   ar
    16    14    13    1
    17   110   109    1
    18   110   114   am
    19   116   115    1
    20   132   133    1
    21   109   112    1
    22   109   108    1
    23   140   141    1
    24   140   139    1
    25   112   113    1
    26    55    52    1
    27    55    56    1
    28   107   106    2
    29   115   114    1
    30   115   118    1
    31    16    13    1
    32    16    17    1
    33    13    12    1
    34    52    51    1
    35    52    53    1
    36    56    58    1
    37    19    18    1
    38   108   106   am
    39   134   135    1
    40    54    53    2
    41    50    49    1
    42   135   136    1
    43   135   138    1
    44   106   105    1
    45    48    47    2
    46   137   136    2
    47   139   138    1
    48    49    46    1
    49    51    47   am
    50    53    59   am
    51    47    46    1
    52    12     8   am
    53   118   119    1
    54    18    17    1
    55   119   120    1
    56   105   104    1
    57    46    45    1
    58     4     3    2
    59     8     9    2
    60     8     7    1
    61    59    60    1
    62   104    99   am
    63    45    43   am
    64   120   121    1
    65    62    61    2
    66   100    99    2
    67     3     6   am
    68     3     2    1
    69    61    60    1
    70     7     6    1
    71     7    10    1
    72    60    63    1
    73     5     2    1
    74    99    98    1
    75    44    43    2
    76     1     2    1
    77   103   101    1
    78    43    42    1
    79    84    83    2
    80    10    11    1
    81   101    98    1
    82   101   102    1
    83    63    64    1
    84    98    97    1
    85    83    82    1
    86    42    41    1
    87    97    91   am
    88    87    85    1
    89    82    85    1
    90    82    81    1
    91    85    86    1
    92    81    79   am
    93    79    80    2
    94    79    78    1
    95    77    78    1
    96    77    75   am
    97    91    92    2
    98    91    90    1
    99    94    95    1
   100    94    93    1
   101    95    96    1
   102    74    75    1
   103    74    73    1
   104    75    76    2
   105    71    70   ar
   106    86    88    1
   107    90    93    1
   108    90    89    1
   109    73    67   am
   110    70    72   ar
   111    70    69    1
   112    67    68    2
   113    67    66    1
   114    66    69    1
   115    66    65    1
   116    36    35    1
   117    35    34    1
   118    27    25   am
   119    34    33    1
   120    40    39    2
   121    26    25    2
   122    25    24    1
   123    39    38    1
   124    33    32    1
   125    38    37    1
   126    24    21    1
   127    20    21    1
   128    32    29    1
   129    21    22    1
   130    29    30    1
   131    29    28    1
   132    22    23    2
   133    30    31    2
