@<TRIPOS>MOLECULE
tmp/4qnlA00.pdb
 84 82 0 0 0
SMALL
GASTEIGER

@<TRIPOS>ATOM
      1  N         -8.7570   19.3720   97.3370 N.3   659  PRO659     -0.2116
      2  CA        -8.1530   18.0890   97.7160 C.3   659  PRO659      0.1372
      3  C         -8.9680   16.9040   97.2100 C.2   659  PRO659      0.2244
      4  O        -10.1980   16.9590   97.2160 O.2   659  PRO659     -0.2868
      5  CB        -8.1550   18.1310   99.2510 C.3   659  PRO659      0.0268
      6  CG        -8.2260   19.5770   99.5990 C.3   659  PRO659      0.0207
      7  CD        -9.0370   20.2220   98.5080 C.3   659  PRO659      0.0892
      8  N        -10.8480   14.3950  101.4480 N.3   661  LYS661     -0.1231
      9  CA       -10.9390   15.2130  102.6530 C.3   661  LYS661      0.1693
     10  C        -11.3360   14.4000  103.8780 C.2   661  LYS661      0.2591
     11  O        -12.0070   13.3730  103.7720 O.2   661  LYS661     -0.2718
     12  CB       -11.9450   16.3500  102.4510 C.3   661  LYS661      0.0285
     13  CG       -11.4700   17.4670  101.5300 C.3   661  LYS661      0.0035
     14  CD       -10.8430   18.6060  102.3230 C.3   661  LYS661      0.0206
     15  CE       -11.8230   19.1630  103.3520 C.3   661  LYS661      0.1093
     16  NZ       -11.2430   20.2830  104.1490 N.3   661  LYS661     -0.1314
     17  N        -10.9040   14.8660  105.0420 N.am  662  GLN662     -0.1979
     18  CA       -11.4490   14.3940  106.3100 C.3   662  GLN662      0.1601
     19  C        -12.3030   15.5050  106.8960 C.2   662  GLN662      0.2287
     20  O        -12.4110   16.5830  106.3090 O.2   662  GLN662     -0.2864
     21  CB       -10.3400   14.0000  107.2890 C.3   662  GLN662      0.0394
     22  CG        -9.7710   12.6130  107.0750 C.3   662  GLN662      0.0908
     23  CD        -8.6930   12.2660  108.0850 C.2   662  GLN662      0.2608
     24  OE1       -8.8920   11.4150  108.9520 O.2   662  GLN662     -0.2717
     25  NE2       -7.5440   12.9280  107.9800 N.am  662  GLN662     -0.0878
     26  N        -12.9680   18.5900  109.4070 N.3   664  ASN664     -0.1240
     27  CA       -12.0710   19.6210  109.9130 C.3   664  ASN664      0.1653
     28  C        -11.6070   19.3350  111.3410 C.2   664  ASN664      0.2266
     29  O        -10.5330   19.7770  111.7520 O.2   664  ASN664     -0.2867
     30  CB       -12.7470   20.9910  109.8550 C.3   664  ASN664      0.1155
     31  CG       -12.9920   21.4550  108.4370 C.2   664  ASN664      0.2627
     32  OD1      -14.1170   21.7950  108.0680 O.2   664  ASN664     -0.2716
     33  ND2      -11.9380   21.4690  107.6290 N.am  664  ASN664     -0.0877
     34  N         -8.6220   16.9220  110.8180 N.3   667  ASP667     -0.1225
     35  CA        -7.4460   17.5860  110.2670 C.3   667  ASP667      0.1805
     36  C         -7.7790   18.9720  109.7560 C.2   667  ASP667      0.2598
     37  O         -8.5860   19.1220  108.8410 O.2   667  ASP667     -0.2718
     38  CB        -6.8370   16.7600  109.1340 C.3   667  ASP667      0.1424
     39  CG        -5.6570   17.4570  108.4770 C.2   667  ASP667      0.3668
     40  OD1       -4.8750   18.1040  109.2030 O.co2 667  ASP667     -0.2456
     41  OD2       -5.5150   17.3640  107.2360 O.co2 667  ASP667     -0.2456
     42  N         -7.1500   19.9870  110.3360 N.am  668  TYR668     -0.1962
     43  CA        -7.3580   21.3440  109.8560 C.3   668  TYR668      0.1771
     44  C         -6.1820   21.8180  109.0060 C.2   668  TYR668      0.2620
     45  O         -6.0040   23.0150  108.7900 O.2   668  TYR668     -0.2715
     46  CB        -7.6030   22.3070  111.0180 C.3   668  TYR668      0.0574
     47  CG        -8.6420   23.3520  110.6800 C.ar  668  TYR668     -0.0198
     48  CD1       -9.9870   23.1270  110.9380 C.ar  668  TYR668     -0.0009
     49  CD2       -8.2830   24.5500  110.0740 C.ar  668  TYR668     -0.0009
     50  CE1      -10.9430   24.0720  110.6190 C.ar  668  TYR668      0.0417
     51  CE2       -9.2310   25.5000  109.7490 C.ar  668  TYR668      0.0417
     52  CZ       -10.5600   25.2570  110.0260 C.ar  668  TYR668      0.1957
     53  OH       -11.5110   26.2000  109.7080 O.3   668  TYR668     -0.2866
     54  N         -5.3730   20.8720  108.5390 N.am  669  GLY669     -0.1954
     55  CA        -4.4490   21.1300  107.4490 C.3   669  GLY669      0.1869
     56  C         -3.0910   21.7550  107.7180 C.2   669  GLY669      0.2309
     57  O         -2.4390   22.2150  106.7850 O.2   669  GLY669     -0.2863
     58  N         -4.8130   24.1340  100.9960 N.3   715  PRO715     -0.2102
     59  CA        -6.1130   24.8140  100.9300 C.3   715  PRO715      0.1504
     60  C         -6.2100   26.0320  101.8480 C.2   715  PRO715      0.2575
     61  O         -7.0580   26.8940  101.6180 O.2   715  PRO715     -0.2718
     62  CB        -7.0970   23.7240  101.3700 C.3   715  PRO715      0.0282
     63  CG        -6.2830   22.8060  102.2140 C.3   715  PRO715      0.0208
     64  CD        -4.9320   22.7760  101.5500 C.3   715  PRO715      0.0893
     65  N         -5.3580   26.0990  102.8690 N.am  716  LEU716     -0.1980
     66  CA        -5.3620   27.2240  103.8010 C.3   716  LEU716      0.1596
     67  C         -4.7540   28.4770  103.1820 C.2   716  LEU716      0.2287
     68  O         -5.2470   29.5860  103.3940 O.2   716  LEU716     -0.2864
     69  CB        -4.6010   26.8700  105.0800 C.3   716  LEU716      0.0297
     70  CG        -5.2040   25.7920  105.9740 C.3   716  LEU716      0.0022
     71  CD1       -4.2480   25.4580  107.1050 C.3   716  LEU716      0.0001
     72  CD2       -6.5400   26.2500  106.5170 C.3   716  LEU716      0.0001
     73  N         -1.5760   18.8200   99.9640 N.3   794  TYR794     -0.1241
     74  CA        -2.3300   17.6170   99.6430 C.3   794  TYR794      0.1605
     75  C         -2.4940   17.4320   98.1330 C.2   794  TYR794      0.2264
     76  O         -2.2910   18.3690   97.3500 O.2   794  TYR794     -0.2867
     77  CB        -3.7080   17.6680  100.3080 C.3   794  TYR794      0.0534
     78  CG        -3.6760   17.8740  101.8140 C.ar  794  TYR794     -0.0201
     79  CD1       -3.5480   19.1460  102.3580 C.ar  794  TYR794     -0.0009
     80  CD2       -3.7920   16.7990  102.6860 C.ar  794  TYR794     -0.0009
     81  CE1       -3.5180   19.3440  103.7210 C.ar  794  TYR794      0.0417
     82  CE2       -3.7690   16.9850  104.0590 C.ar  794  TYR794      0.0417
     83  CZ        -3.6320   18.2620  104.5690 C.ar  794  TYR794      0.1957
     84  OH        -3.6120   18.4630  105.9260 O.3   794  TYR794     -0.2866
@<TRIPOS>BOND
     1     3     4    2
     2     3     2    1
     3     1     2    1
     4     1     7    1
     5    76    75    2
     6     2     5    1
     7    75    74    1
     8     7     6    1
     9     5     6    1
    10    74    73    1
    11    74    77    1
    12    77    78    1
    13    59    58    1
    14    59    62    1
    15    59    60    1
    16    58    64    1
    17    62    63    1
    18     8     9    1
    19    13    14    1
    20    13    12    1
    21    64    63    1
    22    61    60    2
    23    78    79   ar
    24    78    80   ar
    25    60    65   am
    26    14    15    1
    27    79    81   ar
    28    12     9    1
    29     9    10    1
    30    80    82   ar
    31    65    66    1
    32    67    68    2
    33    67    66    1
    34    15    16    1
    35    81    83   ar
    36    11    10    2
    37    66    69    1
    38    10    17   am
    39    82    83   ar
    40    83    84    1
    41    17    18    1
    42    69    70    1
    43    70    72    1
    44    70    71    1
    45    20    19    2
    46    18    19    1
    47    18    21    1
    48    57    56    2
    49    22    21    1
    50    22    23    1
    51    41    39   ar
    52    55    56    1
    53    55    54    1
    54    33    31   am
    55    25    23   am
    56    32    31    2
    57    23    24    2
    58    31    30    1
    59    39    38    1
    60    39    40   ar
    61    54    44   am
    62    45    44    2
    63    37    36    2
    64    44    43    1
    65    38    35    1
    66    26    27    1
    67    53    52    1
    68    51    52   ar
    69    51    49   ar
    70    36    35    1
    71    36    42   am
    72    30    27    1
    73    43    42    1
    74    43    46    1
    75    27    28    1
    76    52    50   ar
    77    49    47   ar
    78    35    34    1
    79    50    48   ar
    80    47    48   ar
    81    47    46    1
    82    28    29    2
