@<TRIPOS>MOLECULE
tmp/4qnqB00.pdb
 211 206 0 0 0
SMALL
GASTEIGER

@<TRIPOS>ATOM
      1  N         26.2390  -59.4350  -47.5070 N.3    39  GLU39      -0.1231
      2  CA        25.7920  -60.4590  -48.4330 C.3    39  GLU39       0.1699
      3  C         26.9240  -61.3380  -48.8500 C.2    39  GLU39       0.2592
      4  O         26.8110  -62.5690  -48.8480 O.2    39  GLU39      -0.2718
      5  CB        25.1390  -59.8270  -49.6410 C.3    39  GLU39       0.0402
      6  CG        23.7450  -59.3880  -49.3220 C.3    39  GLU39       0.1161
      7  CD        22.9840  -59.0280  -50.5540 C.2    39  GLU39       0.3649
      8  OE1       22.3870  -59.9650  -51.1570 O.co2  39  GLU39      -0.2457
      9  OE2       23.0000  -57.8220  -50.8940 O.co2  39  GLU39      -0.2457
     10  N         28.0350  -60.6860  -49.1610 N.am   40  ALA40      -0.1980
     11  CA        29.2070  -61.3750  -49.6350 C.3    40  ALA40       0.1597
     12  C         29.7080  -62.3530  -48.5730 C.2    40  ALA40       0.2287
     13  O         30.0860  -63.4840  -48.8860 O.2    40  ALA40      -0.2864
     14  CB        30.2950  -60.3740  -50.0550 C.3    40  ALA40       0.0319
     15  N         27.3050  -65.2910  -48.4960 N.3    43  GLU43      -0.1231
     16  CA        27.4980  -66.1380  -49.6640 C.3    43  GLU43       0.1699
     17  C         28.8030  -66.9600  -49.5580 C.2    43  GLU43       0.2592
     18  O         28.8020  -68.1820  -49.7910 O.2    43  GLU43      -0.2718
     19  CB        27.4640  -65.3030  -50.9280 C.3    43  GLU43       0.0402
     20  CG        27.1470  -66.1230  -52.1690 C.3    43  GLU43       0.1161
     21  CD        27.1250  -65.2850  -53.4380 C.2    43  GLU43       0.3649
     22  OE1       26.8900  -64.0500  -53.3760 O.co2  43  GLU43      -0.2457
     23  OE2       27.3070  -65.8850  -54.5130 O.co2  43  GLU43      -0.2457
     24  N         29.8840  -66.3010  -49.1360 N.am   44  PHE44      -0.1976
     25  CA        31.1320  -66.9920  -48.9130 C.3    44  PHE44       0.1639
     26  C         30.9960  -68.1370  -47.9310 C.2    44  PHE44       0.2290
     27  O         31.5520  -69.2160  -48.1400 O.2    44  PHE44      -0.2864
     28  CB        32.1620  -66.0240  -48.3730 C.3    44  PHE44       0.0560
     29  CG        33.4540  -66.6680  -47.9940 C.ar   44  PHE44      -0.0200
     30  CD1       34.3920  -66.9890  -48.9790 C.ar   44  PHE44      -0.0042
     31  CD2       33.7400  -66.9470  -46.6750 C.ar   44  PHE44      -0.0042
     32  CE1       35.6090  -67.6040  -48.6520 C.ar   44  PHE44      -0.0003
     33  CE2       34.9270  -67.5680  -46.3520 C.ar   44  PHE44      -0.0003
     34  CZ        35.8720  -67.8800  -47.3380 C.ar   44  PHE44      -0.0000
     35  N         29.2700  -70.9740  -49.7440 N.3    47  ARG47      -0.1231
     36  CA        30.0790  -71.7010  -50.7010 C.3    47  ARG47       0.1694
     37  C         31.2380  -72.4850  -50.1020 C.2    47  ARG47       0.2592
     38  O         31.6640  -73.4810  -50.6950 O.2    47  ARG47      -0.2718
     39  CB        30.6340  -70.7740  -51.7220 C.3    47  ARG47       0.0321
     40  CG        29.5740  -70.2250  -52.6210 C.3    47  ARG47       0.0489
     41  CD        30.1900  -69.2730  -53.6220 C.3    47  ARG47       0.2205
     42  NE        29.1090  -68.6110  -54.3360 N.pl3  47  ARG47      -0.0865
     43  CZ        28.4640  -69.1300  -55.3700 C.cat  47  ARG47       0.5346
     44  NH1       28.8400  -70.3010  -55.8720 N.pl3  47  ARG47       0.1354
     45  NH2       27.4540  -68.4520  -55.9210 N.pl3  47  ARG47       0.1354
     46  N         31.7420  -72.0590  -48.9440 N.am   48  TYR48      -0.1976
     47  CA        32.9180  -72.6760  -48.3790 C.3    48  TYR48       0.1639
     48  C         32.6350  -73.1290  -46.9520 C.2    48  TYR48       0.2290
     49  O         33.4790  -72.9620  -46.0550 O.2    48  TYR48      -0.2864
     50  CB        34.0930  -71.6980  -48.4530 C.3    48  TYR48       0.0560
     51  CG        34.5130  -71.4010  -49.8590 C.ar   48  TYR48      -0.0198
     52  CD1       35.3110  -72.2960  -50.5590 C.ar   48  TYR48      -0.0009
     53  CD2       34.1120  -70.2280  -50.5030 C.ar   48  TYR48      -0.0009
     54  CE1       35.7180  -72.0400  -51.8690 C.ar   48  TYR48       0.0417
     55  CE2       34.4750  -69.9760  -51.8180 C.ar   48  TYR48       0.0417
     56  CZ        35.2910  -70.8850  -52.4970 C.ar   48  TYR48       0.1957
     57  OH        35.6590  -70.5990  -53.7920 O.3    48  TYR48      -0.2866
     58  N         35.4610  -75.4950  -45.4870 N.3    51  ALA51      -0.1231
     59  CA        36.6360  -74.8260  -44.9320 C.3    51  ALA51       0.1694
     60  C         36.2460  -74.0090  -43.7080 C.2    51  ALA51       0.2592
     61  O         36.9910  -73.8850  -42.7540 O.2    51  ALA51      -0.2718
     62  CB        37.2790  -73.9270  -45.9800 C.3    51  ALA51       0.0304
     63  N         35.0550  -73.4400  -43.7490 N.am   52  PHE52      -0.1976
     64  CA        34.5860  -72.6260  -42.6500 C.3    52  PHE52       0.1639
     65  C         34.5260  -73.5200  -41.4150 C.2    52  PHE52       0.2290
     66  O         35.1960  -73.2710  -40.4160 O.2    52  PHE52      -0.2864
     67  CB        33.2230  -72.0150  -42.9930 C.3    52  PHE52       0.0560
     68  CG        32.7680  -70.9730  -42.0240 C.ar   52  PHE52      -0.0200
     69  CD1       33.2330  -69.6800  -42.1140 C.ar   52  PHE52      -0.0042
     70  CD2       31.8540  -71.2810  -41.0180 C.ar   52  PHE52      -0.0042
     71  CE1       32.8140  -68.7020  -41.2150 C.ar   52  PHE52      -0.0003
     72  CE2       31.4180  -70.3090  -40.1230 C.ar   52  PHE52      -0.0003
     73  CZ        31.9040  -69.0180  -40.2190 C.ar   52  PHE52      -0.0000
     74  N         37.8910  -74.9820  -39.9220 N.3    55  LEU55      -0.1245
     75  CA        38.6680  -74.0560  -39.1250 C.3    55  LEU55       0.1561
     76  C         38.0130  -73.7930  -37.7870 C.2    55  LEU55       0.2260
     77  O         38.7190  -73.6910  -36.7810 O.2    55  LEU55      -0.2867
     78  CB        38.8630  -72.7340  -39.8590 C.3    55  LEU55       0.0270
     79  CG        39.8820  -71.7940  -39.2060 C.3    55  LEU55       0.0019
     80  CD1       41.2980  -72.3100  -39.4190 C.3    55  LEU55       0.0001
     81  CD2       39.7300  -70.3830  -39.7520 C.3    55  LEU55       0.0001
     82  N         46.3610  -67.1860  -39.0910 N.3    73  VAL73      -0.1245
     83  CA        45.3600  -67.4060  -40.1260 C.3    73  VAL73       0.1561
     84  C         45.3500  -66.2690  -41.1470 C.2    73  VAL73       0.2260
     85  O         45.3640  -66.5210  -42.3340 O.2    73  VAL73      -0.2867
     86  CB        43.9930  -67.5800  -39.4920 C.3    73  VAL73       0.0252
     87  CG1       42.9270  -67.6750  -40.5690 C.3    73  VAL73       0.0019
     88  CG2       44.0010  -68.8320  -38.6570 C.3    73  VAL73       0.0019
     89  N         48.3700  -66.4780  -43.4280 N.3    76  GLU76      -0.1231
     90  CA        48.1450  -67.5490  -44.4010 C.3    76  GLU76       0.1699
     91  C         47.2050  -67.1040  -45.5170 C.2    76  GLU76       0.2592
     92  O         47.4930  -67.3360  -46.6950 O.2    76  GLU76      -0.2718
     93  CB        47.5310  -68.7770  -43.7330 C.3    76  GLU76       0.0402
     94  CG        48.5390  -69.7710  -43.2260 C.3    76  GLU76       0.1161
     95  CD        47.9320  -70.7690  -42.2520 C.2    76  GLU76       0.3649
     96  OE1       48.3800  -70.8260  -41.0850 O.co2  76  GLU76      -0.2457
     97  OE2       46.9980  -71.4980  -42.6440 O.co2  76  GLU76      -0.2457
     98  N         46.0850  -66.4870  -45.1360 N.am   77  LEU77      -0.1980
     99  CA        45.0830  -66.0270  -46.0880 C.3    77  LEU77       0.1596
    100  C         45.6180  -65.0850  -47.1400 C.2    77  LEU77       0.2287
    101  O         45.2120  -65.1490  -48.3360 O.2    77  LEU77      -0.2864
    102  CB        43.9840  -65.2930  -45.3280 C.3    77  LEU77       0.0297
    103  CG        42.8090  -64.7540  -46.0930 C.3    77  LEU77       0.0022
    104  CD1       42.1420  -65.8930  -46.8220 C.3    77  LEU77       0.0001
    105  CD2       41.8570  -64.0950  -45.1320 C.3    77  LEU77       0.0001
    106  N         43.1210  -59.9690  -52.7800 N.3    83  ASN83      -0.1225
    107  CA        42.0760  -59.7230  -53.7550 C.3    83  ASN83       0.1785
    108  C         40.7340  -59.5830  -53.0320 C.2    83  ASN83       0.2597
    109  O         40.6700  -59.7670  -51.8150 O.2    83  ASN83      -0.2718
    110  CB        42.0690  -60.8210  -54.8040 C.3    83  ASN83       0.1169
    111  CG        41.6530  -62.1450  -54.2440 C.2    83  ASN83       0.2627
    112  OD1       40.8160  -62.2080  -53.3620 O.2    83  ASN83      -0.2716
    113  ND2       42.2280  -63.2250  -54.7710 N.am   83  ASN83      -0.0877
    114  N         39.6610  -59.2940  -53.7570 N.am   84  TRP84      -0.1962
    115  CA        38.3900  -59.0230  -53.1100 C.3    84  TRP84       0.1771
    116  C         37.8710  -60.2130  -52.3410 C.2    84  TRP84       0.2620
    117  O         37.4180  -60.0540  -51.1910 O.2    84  TRP84      -0.2715
    118  CB        37.3790  -58.5440  -54.1060 C.3    84  TRP84       0.0590
    119  CG        37.6140  -57.1490  -54.6270 C.ar   84  TRP84       0.0006
    120  CD1       37.8630  -56.7740  -55.9430 C.ar   84  TRP84       0.0946
    121  CD2       37.6150  -55.8920  -53.8740 C.ar   84  TRP84       0.0152
    122  NE1       38.0210  -55.4120  -56.0320 N.ar   84  TRP84      -0.2442
    123  CE2       37.8990  -54.8330  -54.8480 C.ar   84  TRP84       0.0810
    124  CE3       37.4670  -55.5560  -52.5410 C.ar   84  TRP84       0.0012
    125  CZ2       37.9910  -53.5010  -54.4830 C.ar   84  TRP84       0.0191
    126  CZ3       37.5330  -54.2180  -52.1800 C.ar   84  TRP84       0.0001
    127  CH2       37.7850  -53.2050  -53.1230 C.ar   84  TRP84       0.0015
    128  N         38.0070  -61.4070  -52.9330 N.am   85  GLY85      -0.1940
    129  CA        37.5370  -62.6670  -52.3330 C.3    85  GLY85       0.2014
    130  C         38.1890  -62.9380  -50.9980 C.2    85  GLY85       0.2638
    131  O         37.5470  -63.3340  -50.0130 O.2    85  GLY85      -0.2714
    132  N         39.4870  -62.7190  -50.9720 N.am   86  ARG86      -0.1977
    133  CA        40.2420  -62.8680  -49.7280 C.3    86  ARG86       0.1597
    134  C         39.8420  -61.8320  -48.6500 C.2    86  ARG86       0.2287
    135  O         39.6740  -62.1820  -47.4690 O.2    86  ARG86      -0.2864
    136  CB        41.7440  -62.8610  -50.0110 C.3    86  ARG86       0.0334
    137  CG        42.2180  -64.1430  -50.6900 C.3    86  ARG86       0.0492
    138  CD        43.6500  -64.0060  -51.1720 C.3    86  ARG86       0.2205
    139  NE        43.9980  -64.9070  -52.2550 N.pl3  86  ARG86      -0.0865
    140  CZ        44.9060  -64.6440  -53.2000 C.cat  86  ARG86       0.5346
    141  NH1       45.5860  -63.5100  -53.1760 N.pl3  86  ARG86       0.1354
    142  NH2       45.1480  -65.5100  -54.1790 N.pl3  86  ARG86       0.1354
    143  N         36.8680  -60.5580  -48.3320 N.3    88  VAL88      -0.1231
    144  CA        35.6310  -61.0800  -47.7770 C.3    88  VAL88       0.1692
    145  C         35.8720  -62.1950  -46.7570 C.2    88  VAL88       0.2591
    146  O         35.2130  -62.2260  -45.7050 O.2    88  VAL88      -0.2718
    147  CB        34.6990  -61.5780  -48.8860 C.3    88  VAL88       0.0266
    148  CG1       33.5450  -62.3860  -48.3040 C.3    88  VAL88       0.0020
    149  CG2       34.1850  -60.3690  -49.6310 C.3    88  VAL88       0.0020
    150  N         36.8100  -63.0940  -47.0770 N.am   89  ALA89      -0.1980
    151  CA        37.0910  -64.2290  -46.2320 C.3    89  ALA89       0.1597
    152  C         37.6350  -63.7120  -44.9050 C.2    89  ALA89       0.2287
    153  O         37.3880  -64.2990  -43.8680 O.2    89  ALA89      -0.2864
    154  CB        38.0950  -65.1470  -46.8890 C.3    89  ALA89       0.0319
    155  N         34.7870  -62.6320  -42.8090 N.3    92  SER92      -0.1202
    156  CA        34.1180  -63.8440  -42.2950 C.3    92  SER92       0.2020
    157  C         34.8720  -64.5700  -41.1970 C.2    92  SER92       0.2618
    158  O         34.2620  -65.1340  -40.2850 O.2    92  SER92      -0.2717
    159  CB        33.8790  -64.8120  -43.4250 C.3    92  SER92       0.2103
    160  OG        33.0710  -64.1450  -44.3740 O.3    92  SER92      -0.2182
    161  N         36.1930  -64.5700  -41.3030 N.am   93  PHE93      -0.1975
    162  CA        37.0230  -65.1910  -40.3140 C.3    93  PHE93       0.1639
    163  C         36.8780  -64.4460  -39.0080 C.2    93  PHE93       0.2290
    164  O         36.6700  -65.0550  -37.9630 O.2    93  PHE93      -0.2864
    165  CB        38.4800  -65.2280  -40.7590 C.3    93  PHE93       0.0560
    166  CG        39.4180  -65.6060  -39.6540 C.ar   93  PHE93      -0.0200
    167  CD1       39.2800  -66.8530  -39.0160 C.ar   93  PHE93      -0.0042
    168  CD2       40.3890  -64.7220  -39.2020 C.ar   93  PHE93      -0.0042
    169  CE1       40.1170  -67.2320  -37.9910 C.ar   93  PHE93      -0.0003
    170  CE2       41.2470  -65.0910  -38.1530 C.ar   93  PHE93      -0.0003
    171  CZ        41.1180  -66.3470  -37.5640 C.ar   93  PHE93      -0.0000
    172  N         33.5730  -65.2250  -37.4030 N.3    96  ALA96      -0.1245
    173  CA        33.5610  -66.5570  -36.8100 C.3    96  ALA96       0.1562
    174  C         34.2960  -66.5500  -35.4890 C.2    96  ALA96       0.2260
    175  O         33.7840  -67.1030  -34.5260 O.2    96  ALA96      -0.2867
    176  CB        34.1220  -67.5900  -37.7580 C.3    96  ALA96       0.0290
    177  N         34.2250  -52.8320  -55.3030 N.3   138  PHE138     -0.1241
    178  CA        33.6980  -54.0200  -54.6840 C.3   138  PHE138      0.1605
    179  C         32.1600  -54.1080  -54.8540 C.2   138  PHE138      0.2264
    180  O         31.6380  -55.1800  -55.2280 O.2   138  PHE138     -0.2867
    181  CB        34.1160  -54.0480  -53.1950 C.3   138  PHE138      0.0534
    182  CG        33.5000  -55.1680  -52.4040 C.ar  138  PHE138     -0.0203
    183  CD1       33.9930  -56.4540  -52.5020 C.ar  138  PHE138     -0.0042
    184  CD2       32.4320  -54.9190  -51.5580 C.ar  138  PHE138     -0.0042
    185  CE1       33.4140  -57.4970  -51.7800 C.ar  138  PHE138     -0.0003
    186  CE2       31.8400  -55.9370  -50.8210 C.ar  138  PHE138     -0.0003
    187  CZ        32.3310  -57.2380  -50.9240 C.ar  138  PHE138     -0.0000
    188  N         31.3420  -54.8900  -58.5000 N.3   141  LEU141     -0.1231
    189  CA        31.5840  -56.2730  -58.8230 C.3   141  LEU141      0.1693
    190  C         30.5710  -57.1700  -58.1460 C.2   141  LEU141      0.2592
    191  O         30.1170  -58.1120  -58.7360 O.2   141  LEU141     -0.2718
    192  CB        32.9550  -56.7120  -58.3560 C.3   141  LEU141      0.0284
    193  CG        34.1680  -56.3750  -59.2070 C.3   141  LEU141      0.0019
    194  CD1       35.3910  -56.7830  -58.3920 C.3   141  LEU141      0.0001
    195  CD2       34.1710  -57.0610  -60.5860 C.3   141  LEU141      0.0001
    196  N         30.2290  -56.8980  -56.8960 N.am  142  TYR142     -0.1962
    197  CA        29.3460  -57.8190  -56.2040 C.3   142  TYR142      0.1771
    198  C         28.0000  -57.8270  -56.8500 C.2   142  TYR142      0.2620
    199  O         27.4370  -58.8920  -57.0600 O.2   142  TYR142     -0.2715
    200  CB        29.1850  -57.5300  -54.6900 C.3   142  TYR142      0.0574
    201  CG        28.4180  -58.6450  -53.9800 C.ar  142  TYR142     -0.0198
    202  CD1       28.9870  -59.9130  -53.8020 C.ar  142  TYR142     -0.0009
    203  CD2       27.1290  -58.4680  -53.5740 C.ar  142  TYR142     -0.0009
    204  CE1       28.2940  -60.9460  -53.2100 C.ar  142  TYR142      0.0417
    205  CE2       26.4060  -59.5020  -52.9720 C.ar  142  TYR142      0.0417
    206  CZ        26.9830  -60.7340  -52.8080 C.ar  142  TYR142      0.1957
    207  OH        26.3080  -61.7750  -52.2160 O.3   142  TYR142     -0.2866
    208  N         27.4900  -56.6400  -57.1640 N.am  143  GLY143     -0.1954
    209  CA        26.1600  -56.4870  -57.7350 C.3   143  GLY143      0.1869
    210  C         26.0270  -56.6510  -59.2460 C.2   143  GLY143      0.2309
    211  O         24.9160  -56.5760  -59.7460 O.2   143  GLY143     -0.2863
@<TRIPOS>BOND
     1   195   193    1
     2   211   210    2
     3   210   209    1
     4   193   194    1
     5   193   192    1
     6   189   188    1
     7   189   192    1
     8   189   190    1
     9   191   190    2
    10   190   196   am
    11   209   208    1
    12   208   198   am
    13   199   198    2
    14   196   197    1
    15   198   197    1
    16   197   200    1
    17   122   120   ar
    18   122   123   ar
    19   120   119   ar
    20    45    43    1
    21    44    43    1
    22    43    42    2
    23   177   178    1
    24   180   179    2
    25   179   178    1
    26   123   125   ar
    27   123   121   ar
    28   110   111    1
    29   110   107    1
    30   113   111   am
    31   200   201    1
    32   178   181    1
    33   119   118    1
    34   119   121   ar
    35    23    21   ar
    36   125   127   ar
    37    42    41    1
    38   111   112    2
    39   142   140    1
    40   118   115    1
    41   201   202   ar
    42   201   203   ar
    43   121   124   ar
    44   202   204   ar
    45    57    56    1
    46   114   115    1
    47   114   108   am
    48   107   108    1
    49   107   106    1
    50    41    40    1
    51   203   205   ar
    52    21    22   ar
    53    21    20    1
    54   204   206   ar
    55   140   141    1
    56   140   139    2
    57   181   182    1
    58   127   126   ar
    59   115   116    1
    60   108   109    2
    61   205   206   ar
    62   128   116   am
    63   128   129    1
    64   206   207    1
    65    40    39    1
    66   124   126   ar
    67   183   182   ar
    68   183   185   ar
    69    56    54   ar
    70    56    55   ar
    71   182   184   ar
    72   116   117    2
    73   129   130    1
    74   139   138    1
    75    20    19    1
    76    54    52   ar
    77    55    53   ar
    78   185   187   ar
    79    39    36    1
    80   184   186   ar
    81   138   137    1
    82     8     7   ar
    83   130   132   am
    84   130   131    2
    85   132   133    1
    86    19    16    1
    87   187   186   ar
    88     9     7   ar
    89    36    37    1
    90    36    35    1
    91    38    37    2
    92   137   136    1
    93    52    51   ar
    94     7     6    1
    95    53    51   ar
    96    37    46   am
    97    14    11    1
    98   136   133    1
    99    51    50    1
   100    18    17    2
   101   133   134    1
   102    16    17    1
   103    16    15    1
   104     5     6    1
   105     5     2    1
   106    11    10    1
   107    11    12    1
   108   149   147    1
   109    17    24   am
   110    10     3   am
   111    24    25    1
   112    30    32   ar
   113    30    29   ar
   114    46    47    1
   115    25    28    1
   116    25    26    1
   117   147   148    1
   118   147   144    1
   119    13    12    2
   120     3     4    2
   121     3     2    1
   122    32    34   ar
   123   134   135    2
   124    50    47    1
   125     2     1    1
   126    47    48    1
   127    28    29    1
   128   101   100    2
   129   143   144    1
   130    27    26    2
   131    29    31   ar
   132   144   145    1
   133    34    33   ar
   134   100    99    1
   135   150   145   am
   136   150   151    1
   137    48    49    2
   138   154   151    1
   139   104   103    1
   140   145   146    2
   141    92    91    2
   142    31    33   ar
   143   151   152    1
   144   103   102    1
   145   103   105    1
   146    99   102    1
   147    99    98    1
   148    62    59    1
   149    91    98   am
   150    91    90    1
   151    58    59    1
   152    59    60    1
   153   152   153    2
   154    90    93    1
   155    90    89    1
   156   160   159    1
   157    63    60   am
   158    63    64    1
   159    93    94    1
   160    60    61    2
   161   159   156    1
   162    94    95    1
   163    67    64    1
   164    67    68    1
   165   155   156    1
   166    64    65    1
   167    97    95   ar
   168    85    84    2
   169   156   157    1
   170    95    96   ar
   171    69    68   ar
   172    69    71   ar
   173    68    70   ar
   174    65    66    2
   175   161   157   am
   176   161   162    1
   177    71    73   ar
   178   157   158    2
   179    84    83    1
   180    70    72   ar
   181   165   162    1
   182   165   166    1
   183    87    86    1
   184   162   163    1
   185    73    72   ar
   186    83    86    1
   187    83    82    1
   188    74    75    1
   189    78    79    1
   190    78    75    1
   191    81    79    1
   192   166   168   ar
   193   166   167   ar
   194    86    88    1
   195    80    79    1
   196   168   170   ar
   197    75    76    1
   198   167   169   ar
   199   163   164    2
   200   170   171   ar
   201   169   171   ar
   202    76    77    2
   203   176   173    1
   204   172   173    1
   205   173   174    1
   206   174   175    2
