@<TRIPOS>MOLECULE
tmp/4qnuD00.pdb
 218 212 0 0 0
SMALL
GASTEIGER

@<TRIPOS>ATOM
      1  N         61.5260   29.7860    1.8550 N.3    91  LYS91      -0.1245
      2  CA        61.8990   29.8290    3.2640 C.3    91  LYS91       0.1561
      3  C         62.3200   28.4700    3.7680 C.2    91  LYS91       0.2260
      4  O         61.5950   27.5010    3.6170 O.2    91  LYS91      -0.2867
      5  CB        60.7310   30.3510    4.0890 C.3    91  LYS91       0.0271
      6  CG        60.1670   31.6610    3.5570 C.3    91  LYS91       0.0035
      7  CD        61.1070   32.8280    3.8570 C.3    91  LYS91       0.0206
      8  CE        60.8170   34.0180    2.9710 C.3    91  LYS91       0.1093
      9  NZ        61.3990   35.2660    3.5180 N.3    91  LYS91      -0.1314
     10  N         65.8890   32.1240    0.8220 N.3   105  TRP105     -0.1241
     11  CA        66.3020   32.7830    2.0380 C.3   105  TRP105      0.1605
     12  C         67.0360   31.8200    2.9540 C.2   105  TRP105      0.2264
     13  O         66.6870   30.6400    3.0520 O.2   105  TRP105     -0.2867
     14  CB        65.0870   33.3700    2.7950 C.3   105  TRP105      0.0550
     15  CG        64.4710   34.6060    2.1550 C.ar  105  TRP105      0.0003
     16  CD1       63.6300   34.6460    1.0680 C.ar  105  TRP105      0.0946
     17  CD2       64.6710   35.9660    2.5560 C.ar  105  TRP105      0.0152
     18  NE1       63.2820   35.9520    0.7810 N.ar  105  TRP105     -0.2442
     19  CE2       63.9150   36.7830    1.6670 C.ar  105  TRP105      0.0810
     20  CE3       65.4370   36.5720    3.5590 C.ar  105  TRP105      0.0012
     21  CZ2       63.9180   38.1540    1.7450 C.ar  105  TRP105      0.0191
     22  CZ3       65.4370   37.9310    3.6440 C.ar  105  TRP105      0.0001
     23  CH2       64.6650   38.7190    2.7540 C.ar  105  TRP105      0.0015
     24  N         66.5940   31.3770    6.1170 N.3   107  SER107     -0.1217
     25  CA        65.6910   31.6350    7.2190 C.3   107  SER107      0.1889
     26  C         66.2810   31.1980    8.5450 C.2   107  SER107      0.2288
     27  O         65.8280   31.6280    9.5920 O.2   107  SER107     -0.2866
     28  CB        64.3810   30.9480    6.9870 C.3   107  SER107      0.2089
     29  OG        63.8550   31.3430    5.7170 O.3   107  SER107     -0.2183
     30  N         67.9280   34.3260   10.2300 N.3   110  LYS110     -0.1245
     31  CA        66.9320   35.1300   10.9400 C.3   110  LYS110      0.1561
     32  C         66.6010   34.4750   12.2890 C.2   110  LYS110      0.2260
     33  O         66.5860   35.1220   13.3280 O.2   110  LYS110     -0.2867
     34  CB        65.6620   35.3400   10.0610 C.3   110  LYS110      0.0271
     35  CG        64.4990   36.0340   10.8040 C.3   110  LYS110      0.0035
     36  CD        63.5540   36.9010    9.9810 C.3   110  LYS110      0.0206
     37  CE        63.3620   36.4590    8.5470 C.3   110  LYS110      0.1093
     38  NZ        62.5230   37.4060    7.7600 N.3   110  LYS110     -0.1314
     39  N         52.3650   32.1990   14.3450 N.3   128  ASP128     -0.1225
     40  CA        53.3310   32.7470   13.4050 C.3   128  ASP128      0.1805
     41  C         52.6210   33.3480   12.2080 C.2   128  ASP128      0.2598
     42  O         52.1470   32.6420   11.3370 O.2   128  ASP128     -0.2718
     43  CB        54.3340   31.6790   12.9170 C.3   128  ASP128      0.1424
     44  CG        55.4790   32.2830   12.0930 C.2   128  ASP128      0.3668
     45  OD1       55.6470   33.5190   12.1130 O.co2 128  ASP128     -0.2456
     46  OD2       56.2470   31.5340   11.4730 O.co2 128  ASP128     -0.2456
     47  N         52.5930   34.6700   12.1510 N.am  129  VAL129     -0.1966
     48  CA        51.7860   35.3530   11.1700 C.3   129  VAL129      0.1727
     49  C         52.5850   35.5380    9.9120 C.2   129  VAL129      0.2617
     50  O         53.7050   36.0500    9.9360 O.2   129  VAL129     -0.2715
     51  CB        51.3130   36.7120   11.6860 C.3   129  VAL129      0.0290
     52  CG1       50.4630   37.4100   10.6350 C.3   129  VAL129      0.0023
     53  CG2       50.5470   36.5520   12.9880 C.3   129  VAL129      0.0023
     54  N         52.0160   35.0900    8.8030 N.am  130  GLY130     -0.1940
     55  CA        52.7370   35.0290    7.5420 C.3   130  GLY130      0.2014
     56  C         53.9560   34.1300    7.6520 C.2   130  GLY130      0.2639
     57  O         55.0630   34.5360    7.2860 O.2   130  GLY130     -0.2714
     58  N         53.7070   32.8680    7.9930 N.am  131  CYS131     -0.1953
     59  CA        54.7430   31.9240    8.3490 C.3   131  CYS131      0.1843
     60  C         55.4680   31.3170    7.1340 C.2   131  CYS131      0.2626
     61  O         56.4080   30.5360    7.3100 O.2   131  CYS131     -0.2714
     62  CB        54.1070   30.7820    9.1400 C.3   131  CYS131      0.0997
     63  SG        52.8730   29.8510    8.1880 S.3   131  CYS131     -0.0797
     64  N         55.0100   31.6140    5.9150 N.am  132  GLY132     -0.1954
     65  CA        55.6000   31.0400    4.6950 C.3   132  GLY132      0.1869
     66  C         55.5260   29.5150    4.6960 C.2   132  GLY132      0.2309
     67  O         54.4980   28.9320    5.0970 O.2   132  GLY132     -0.2863
     68  N         60.0770   28.3310   10.3390 N.3   136  HIS136     -0.1241
     69  CA        60.2880   28.8150   11.7070 C.3   136  HIS136      0.1621
     70  C         59.4420   28.1100   12.7440 C.2   136  HIS136      0.2264
     71  O         59.8120   28.0310   13.9140 O.2   136  HIS136     -0.2867
     72  CB        60.0530   30.3290   11.7880 C.3   136  HIS136      0.0745
     73  CG        61.0980   31.1160   11.0770 C.ar  136  HIS136      0.0817
     74  ND1       60.8520   31.7500    9.8820 N.ar  136  HIS136     -0.2268
     75  CD2       62.4270   31.2540   11.3100 C.ar  136  HIS136      0.1154
     76  CE1       61.9700   32.2880    9.4300 C.ar  136  HIS136      0.1986
     77  NE2       62.9460   31.9770   10.2640 N.ar  136  HIS136     -0.2212
     78  N         49.7100   31.0340   10.0300 N.3   151  ILE151     -0.1231
     79  CA        48.7110   31.4270    9.0580 C.3   151  ILE151      0.1692
     80  C         49.3890   32.0620    7.8540 C.2   151  ILE151      0.2592
     81  O         50.3260   32.8460    8.0000 O.2   151  ILE151     -0.2718
     82  CB        47.6680   32.3800    9.6750 C.3   151  ILE151      0.0266
     83  CG1       48.3200   33.6510   10.1980 C.3   151  ILE151      0.0019
     84  CG2       46.9470   31.7100   10.8280 C.3   151  ILE151      0.0020
     85  CD1       47.3200   34.6710   10.7100 C.3   151  ILE151      0.0001
     86  N         48.9560   31.6660    6.6620 N.am  152  ASP152     -0.1960
     87  CA        49.4500   32.2480    5.4290 C.3   152  ASP152      0.1825
     88  C         48.4630   31.8990    4.3410 C.2   152  ASP152      0.2464
     89  O         48.2770   30.7250    4.0020 O.2   152  ASP152     -0.2730
     90  CB        50.8450   31.7120    5.0980 C.3   152  ASP152      0.1450
     91  CG        51.6620   32.6520    4.2110 C.2   152  ASP152      0.3671
     92  OD1       51.2130   32.9930    3.0980 O.co2 152  ASP152     -0.2456
     93  OD2       52.7920   32.9920    4.6270 O.co2 152  ASP152     -0.2456
     94  N         47.8460   32.9190    3.7480 N.am  153  PRO153     -0.2715
     95  CA        46.8310   32.6650    2.7500 C.3   153  PRO153      0.1536
     96  C         47.3810   32.2330    1.3820 C.2   153  PRO153      0.2599
     97  O         46.6200   32.1340    0.4210 O.2   153  PRO153     -0.2715
     98  CB        46.1450   34.0160    2.6270 C.3   153  PRO153      0.0310
     99  CG        47.2610   34.9840    2.8180 C.3   153  PRO153      0.0237
    100  CD        48.1510   34.3560    3.8600 C.3   153  PRO153      0.0939
    101  N         48.6670   31.9410    1.2900 N.am  154  THR154     -0.1951
    102  CA        49.2180   31.4200    0.0430 C.3   154  THR154      0.1897
    103  C         49.0830   29.8980   -0.0340 C.2   154  THR154      0.2313
    104  O         49.3410   29.1840    0.9430 O.2   154  THR154     -0.2863
    105  CB        50.6760   31.8350   -0.1070 C.3   154  THR154      0.1794
    106  OG1       50.8100   33.1930    0.3400 O.3   154  THR154     -0.2208
    107  CG2       51.1110   31.7290   -1.5470 C.3   154  THR154      0.0378
    108  N         52.4030   27.6370   -0.1750 N.3   157  PHE157     -0.1241
    109  CA        53.0670   27.4640    1.1090 C.3   157  PHE157      0.1605
    110  C         52.3450   26.4680    1.9970 C.2   157  PHE157      0.2264
    111  O         52.9710   25.8080    2.8350 O.2   157  PHE157     -0.2867
    112  CB        53.2630   28.8050    1.8410 C.3   157  PHE157      0.0534
    113  CG        53.9880   29.8620    1.0330 C.ar  157  PHE157     -0.0203
    114  CD1       53.8500   31.2130    1.3470 C.ar  157  PHE157     -0.0042
    115  CD2       54.8010   29.5140   -0.0450 C.ar  157  PHE157     -0.0042
    116  CE1       54.4460   32.1930    0.5750 C.ar  157  PHE157     -0.0003
    117  CE2       55.4170   30.4970   -0.8160 C.ar  157  PHE157     -0.0003
    118  CZ        55.2340   31.8410   -0.5010 C.ar  157  PHE157     -0.0000
    119  N         44.7280   31.3490    6.3220 N.3   179  LEU179     -0.1231
    120  CA        44.0500   32.6040    6.6150 C.3   179  LEU179      0.1693
    121  C         44.9890   33.8010    6.5380 C.2   179  LEU179      0.2593
    122  O         46.2130   33.6740    6.6710 O.2   179  LEU179     -0.2718
    123  CB        43.5510   32.6000    8.0380 C.3   179  LEU179      0.0284
    124  CG        42.6200   31.4810    8.4370 C.3   179  LEU179      0.0019
    125  CD1       42.2430   31.6820    9.8910 C.3   179  LEU179      0.0001
    126  CD2       41.3960   31.4790    7.5430 C.3   179  LEU179      0.0001
    127  N         44.3910   34.9620    6.3070 N.am  180  GLY180     -0.1942
    128  CA        45.0720   36.2250    6.4600 C.3   180  GLY180      0.2014
    129  C         44.8560   36.7090    7.8670 C.2   180  GLY180      0.2639
    130  O         43.8470   36.3960    8.4930 O.2   180  GLY180     -0.2714
    131  N         45.8050   37.4900    8.3610 N.am  181  ILE181     -0.1963
    132  CA        45.7530   37.9760    9.7250 C.3   181  ILE181      0.1727
    133  C         44.4840   38.8040    9.9690 C.2   181  ILE181      0.2616
    134  O         43.9410   38.7910   11.0800 O.2   181  ILE181     -0.2715
    135  CB        47.0360   38.7920   10.0330 C.3   181  ILE181      0.0290
    136  CG1       46.9660   39.4490   11.3940 C.3   181  ILE181      0.0022
    137  CG2       47.2590   39.8630    8.9980 C.3   181  ILE181      0.0023
    138  CD1       46.8950   38.4670   12.5350 C.3   181  ILE181      0.0001
    139  N         44.0420   39.5510    8.9470 N.am  182  GLU182     -0.1977
    140  CA        42.7660   40.2980    9.0250 C.3   182  GLU182      0.1602
    141  C         41.6190   39.4480    9.4990 C.2   182  GLU182      0.2287
    142  O         40.6490   39.9910    9.9790 O.2   182  GLU182     -0.2864
    143  CB        42.2770   40.8520    7.6680 C.3   182  GLU182      0.0415
    144  CG        43.3600   41.1330    6.6710 C.3   182  GLU182      0.1163
    145  CD        43.8490   39.8990    6.0010 C.2   182  GLU182      0.3649
    146  OE1       43.0660   39.2890    5.2870 O.co2 182  GLU182     -0.2457
    147  OE2       45.0340   39.5700    6.2010 O.co2 182  GLU182     -0.2457
    148  N         56.7930   38.4570   11.0990 N.3   196  MET196     -0.1230
    149  CA        58.0870   38.6500   10.4840 C.3   196  MET196      0.1702
    150  C         57.9190   38.8090    8.9860 C.2   196  MET196      0.2593
    151  O         57.5440   37.8760    8.2870 O.2   196  MET196     -0.2718
    152  CB        58.9880   37.4500   10.7610 C.3   196  MET196      0.0401
    153  CG        59.2300   37.2050   12.2360 C.3   196  MET196      0.0596
    154  SD        60.4800   35.9490   12.5070 S.3   196  MET196     -0.1393
    155  CE        60.9460   36.4370   14.1290 C.3   196  MET196      0.0692
    156  N         58.2270   39.9960    8.4950 N.am  197  GLY197     -0.1942
    157  CA        58.1050   40.2840    7.0770 C.3   197  GLY197      0.2014
    158  C         56.6790   40.5050    6.6470 C.2   197  GLY197      0.2638
    159  O         56.3820   40.3630    5.4770 O.2   197  GLY197     -0.2714
    160  N         55.8210   40.9660    7.5620 N.am  198  VAL198     -0.1977
    161  CA        54.4150   41.2010    7.2370 C.3   198  VAL198      0.1596
    162  C         53.9780   42.6860    7.3260 C.2   198  VAL198      0.2287
    163  O         53.2170   43.1610    6.4720 O.2   198  VAL198     -0.2864
    164  CB        53.5200   40.3450    8.1320 C.3   198  VAL198      0.0276
    165  CG1       52.0490   40.5810    7.8380 C.3   198  VAL198      0.0022
    166  CG2       53.8450   38.8710    7.9200 C.3   198  VAL198      0.0022
    167  N         55.1900   45.6250    6.6260 N.3   200  TYR200     -0.1227
    168  CA        55.3320   46.4580    5.4590 C.3   200  TYR200      0.1736
    169  C         54.3120   46.2020    4.3410 C.2   200  TYR200      0.2595
    170  O         54.1630   47.0270    3.4280 O.2   200  TYR200     -0.2718
    171  CB        56.7810   46.4010    4.9410 C.3   200  TYR200      0.0548
    172  CG        57.2280   45.1190    4.2890 C.ar  200  TYR200     -0.0200
    173  CD1       57.9920   44.1890    4.9780 C.ar  200  TYR200     -0.0009
    174  CD2       57.0120   44.9030    2.9470 C.ar  200  TYR200     -0.0009
    175  CE1       58.4690   43.0350    4.3500 C.ar  200  TYR200      0.0417
    176  CE2       57.4550   43.7580    2.3210 C.ar  200  TYR200      0.0417
    177  CZ        58.1890   42.8280    3.0190 C.ar  200  TYR200      0.1957
    178  OH        58.6000   41.6820    2.3570 O.3   200  TYR200     -0.2866
    179  N         53.6570   45.0440    4.3760 N.am  201  HIS201     -0.1961
    180  CA        52.6470   44.7000    3.3690 C.3   201  HIS201      0.1787
    181  C         51.2640   45.1970    3.7780 C.2   201  HIS201      0.2620
    182  O         50.3180   45.0840    2.9950 O.2   201  HIS201     -0.2715
    183  CB        52.5970   43.1820    3.1330 C.3   201  HIS201      0.0785
    184  CG        53.6360   42.6810    2.1740 C.ar  201  HIS201      0.0821
    185  ND1       53.7030   43.0940    0.8620 N.ar  201  HIS201     -0.2267
    186  CD2       54.6070   41.7450    2.3190 C.ar  201  HIS201      0.1154
    187  CE1       54.6730   42.4500    0.2400 C.ar  201  HIS201      0.1986
    188  NE2       55.2480   41.6370    1.1060 N.ar  201  HIS201     -0.2212
    189  N         51.1360   45.6990    5.0060 N.am  202  ARG202     -0.1977
    190  CA        49.8360   46.1070    5.5290 C.3   202  ARG202      0.1597
    191  C         49.5560   47.6030    5.3100 C.2   202  ARG202      0.2287
    192  O         50.3830   48.4580    5.6300 O.2   202  ARG202     -0.2864
    193  CB        49.7640   45.8190    7.0110 C.3   202  ARG202      0.0334
    194  CG        50.1410   44.4020    7.4510 C.3   202  ARG202      0.0492
    195  CD        49.4040   43.2650    6.7600 C.3   202  ARG202      0.2205
    196  NE        47.9490   43.3070    6.7910 N.pl3 202  ARG202     -0.0865
    197  CZ        47.1910   42.8420    5.7950 C.cat 202  ARG202      0.5346
    198  NH1       47.7600   42.3500    4.6990 N.pl3 202  ARG202      0.1354
    199  NH2       45.8680   42.9130    5.8560 N.pl3 202  ARG202      0.1354
    200  N         59.1680   44.9240   -5.2190 N.3   246  MET246     -0.1245
    201  CA        57.9170   44.4940   -4.5990 C.3   246  MET246      0.1570
    202  C         56.8410   45.5790   -4.7660 C.2   246  MET246      0.2261
    203  O         57.1220   46.7690   -4.7080 O.2   246  MET246     -0.2867
    204  CB        58.1160   44.1570   -3.1160 C.3   246  MET246      0.0387
    205  CG        59.0900   43.0140   -2.8230 C.3   246  MET246      0.0595
    206  SD        59.0590   42.4990   -1.0710 S.3   246  MET246     -0.1393
    207  CE        60.4450   43.3970   -0.3830 C.3   246  MET246      0.0692
    208  N         66.6710   45.0940    7.9060 N.3   315  ARG315     -0.1245
    209  CA        65.6050   44.4130    8.6600 C.3   315  ARG315      0.1563
    210  C         65.8390   44.5340   10.1280 C.2   315  ARG315      0.2260
    211  O         66.9700   44.3660   10.5800 O.2   315  ARG315     -0.2867
    212  CB        65.5110   42.9120    8.3280 C.3   315  ARG315      0.0307
    213  CG        65.3600   42.5940    6.8540 C.3   315  ARG315      0.0489
    214  CD        65.0750   41.1100    6.6800 C.3   315  ARG315      0.2205
    215  NE        63.6810   40.7740    6.9630 N.pl3 315  ARG315     -0.0865
    216  CZ        62.6970   40.8300    6.0590 C.cat 315  ARG315      0.5346
    217  NH1       62.9490   41.1190    4.7750 N.pl3 315  ARG315      0.1354
    218  NH2       61.4480   40.5530    6.4350 N.pl3 315  ARG315      0.1354
@<TRIPOS>BOND
     1   200   201    1
     2   202   203    2
     3   202   201    1
     4   201   204    1
     5   204   205    1
     6   205   206    1
     7   107   105    1
     8   206   207    1
     9   117   118   ar
    10   117   115   ar
    11   118   116   ar
    12   108   109    1
    13   105   102    1
    14   105   106    1
    15   115   113   ar
    16   103   102    1
    17   103   104    2
    18   102   101    1
    19   187   185   ar
    20   187   188   ar
    21    97    96    2
    22   116   114   ar
    23    18    16   ar
    24    18    19   ar
    25    10    11    1
    26   185   184   ar
    27   113   114   ar
    28   113   112    1
    29    16    15   ar
    30   188   186   ar
    31   109   112    1
    32   109   110    1
    33   101    96   am
    34    96    95    1
    35    19    21   ar
    36    19    17   ar
    37    21    23   ar
    38     1     2    1
    39   110   111    2
    40    11    14    1
    41    11    12    1
    42    15    17   ar
    43    15    14    1
    44   184   186   ar
    45   184   183    1
    46   176   174   ar
    47   176   177   ar
    48   178   177    1
    49    17    20   ar
    50    98    95    1
    51    98    99    1
    52    95    94    1
    53    23    22   ar
    54    99   100    1
    55   174   172   ar
    56    12    13    2
    57     8     9    1
    58     8     7    1
    59   182   181    2
    60   177   175   ar
    61    92    91   ar
    62   183   180    1
    63     2     3    1
    64     2     5    1
    65   180   181    1
    66   180   179    1
    67   170   169    2
    68     6     7    1
    69     6     5    1
    70    20    22   ar
    71     4     3    2
    72    94   100    1
    73    94    88   am
    74   181   189   am
    75    89    88    2
    76    91    93   ar
    77    91    90    1
    78   172   171    1
    79   172   173   ar
    80    88    87    1
    81   169   179   am
    82   169   168    1
    83   175   173   ar
    84    65    66    1
    85    65    64    1
    86    66    67    2
    87   198   197    1
    88   217   216    1
    89   171   168    1
    90   189   190    1
    91    90    87    1
    92   146   145   ar
    93   191   190    1
    94   191   192    2
    95    87    86    1
    96   168   167    1
    97   159   158    2
    98   190   193    1
    99    29    28    1
   100   197   199    1
   101   197   196    2
   102    64    60   am
   103   145   147   ar
   104   145   144    1
   105   216   218    1
   106   216   215    2
   107    24    25    1
   108   127   128    1
   109   127   121   am
   110   119   120    1
   111   128   129    1
   112   163   162    2
   113   121   120    1
   114   121   122    2
   115   120   123    1
   116   158   157    1
   117   158   160   am
   118    86    80   am
   119   144   143    1
   120   214   213    1
   121   214   215    1
   122   195   196    1
   123   195   194    1
   124   213   212    1
   125    28    25    1
   126   193   194    1
   127   157   156    1
   128    60    61    2
   129    60    59    1
   130    25    26    1
   131   161   162    1
   132   161   160    1
   133   161   164    1
   134    57    56    2
   135    55    56    1
   136    55    54    1
   137   126   124    1
   138    56    58   am
   139   143   140    1
   140    38    37    1
   141   165   164    1
   142    80    81    2
   143    80    79    1
   144   129   131   am
   145   129   130    2
   146   208   209    1
   147   166   164    1
   148    58    59    1
   149   123   124    1
   150    63    62    1
   151   151   150    2
   152   212   209    1
   153    59    62    1
   154   131   132    1
   155   124   125    1
   156   156   150   am
   157    26    27    2
   158    37    36    1
   159   209   210    1
   160    54    49   am
   161   139   140    1
   162   139   133   am
   163   150   149    1
   164   137   135    1
   165   140   141    1
   166    79    82    1
   167    79    78    1
   168    76    74   ar
   169    76    77   ar
   170   141   142    2
   171    82    83    1
   172    82    84    1
   173   132   133    1
   174   132   135    1
   175    74    73   ar
   176    49    50    2
   177    49    48    1
   178   133   134    2
   179    36    35    1
   180   135   136    1
   181    34    35    1
   182    34    31    1
   183   210   211    2
   184    83    85    1
   185    30    31    1
   186    77    75   ar
   187    68    69    1
   188   149   152    1
   189   149   148    1
   190    52    51    1
   191   152   153    1
   192    31    32    1
   193    73    75   ar
   194    73    72    1
   195    48    51    1
   196    48    47    1
   197    42    41    2
   198   136   138    1
   199    46    44   ar
   200    51    53    1
   201    69    72    1
   202    69    70    1
   203    44    45   ar
   204    44    43    1
   205    47    41   am
   206    41    40    1
   207   153   154    1
   208    32    33    2
   209   154   155    1
   210    70    71    2
   211    43    40    1
   212    40    39    1
