@<TRIPOS>MOLECULE
tmp/4qnwA00.pdb
 232 229 0 0 0
SMALL
GASTEIGER

@<TRIPOS>ATOM
      1  N         11.0940   11.1370    8.6680 N.3    21  ALA21      -0.1231
      2  CA         9.9090   10.4800    9.2880 C.3    21  ALA21       0.1679
      3  C          9.1640    9.6400    8.2650 C.2    21  ALA21       0.2434
      4  O          9.2280    9.9610    7.0160 O.2    21  ALA21      -0.2733
      5  CB         8.9650   11.5970    9.9120 C.3    21  ALA21       0.0304
      6  N          8.4420    8.5940    8.7240 N.am   22  PRO22      -0.2718
      7  CA         7.6340    7.8100    7.7860 C.3    22  PRO22       0.1535
      8  C          6.5120    8.6470    7.1620 C.2    22  PRO22       0.2599
      9  O          5.7340    9.2820    7.8660 O.2    22  PRO22      -0.2715
     10  CB         6.9920    6.6880    8.6890 C.3    22  PRO22       0.0310
     11  CG         7.0100    7.3210   10.1250 C.3    22  PRO22       0.0237
     12  CD         8.3170    8.1340   10.1090 C.3    22  PRO22       0.0939
     13  N          6.4430    8.6810    5.8190 N.am   23  THR23      -0.1937
     14  CA         5.3810    9.4300    5.1940 C.3    23  THR23       0.2028
     15  C          4.8040    8.6960    4.0270 C.2    23  THR23       0.2643
     16  O          5.4880    8.4840    2.9970 O.2    23  THR23      -0.2714
     17  CB         5.8270   10.8590    4.6660 C.3    23  THR23       0.1808
     18  OG1        6.8840   10.7140    3.7030 O.3    23  THR23      -0.2208
     19  CG2        6.2350   11.7840    5.8190 C.3    23  THR23       0.0379
     20  N          3.5420    8.3360    4.1830 N.am   24  THR24      -0.1936
     21  CA         2.7220    7.8000    3.0960 C.3    24  THR24       0.2028
     22  C          2.6160    8.7770    1.9280 C.2    24  THR24       0.2642
     23  O          2.2570    9.9030    2.1510 O.2    24  THR24      -0.2714
     24  CB         1.2650    7.4660    3.6300 C.3    24  THR24       0.1808
     25  OG1        1.4230    6.3910    4.5500 O.3    24  THR24      -0.2208
     26  CG2        0.3010    6.9630    2.4880 C.3    24  THR24       0.0379
     27  N          2.9320    8.3170    0.7080 N.am   25  ARG25      -0.1977
     28  CA         2.7530    9.1940   -0.4260 C.3    25  ARG25       0.1597
     29  C          2.0190    8.5320   -1.5520 C.2    25  ARG25       0.2287
     30  O          1.8530    9.2210   -2.5900 O.2    25  ARG25      -0.2864
     31  CB         4.1070    9.6110   -1.0190 C.3    25  ARG25       0.0334
     32  CG         5.0970   10.2810   -0.0380 C.3    25  ARG25       0.0492
     33  CD         4.6590   11.5750    0.5690 C.3    25  ARG25       0.2205
     34  NE         4.1630   12.5750   -0.4220 N.pl3  25  ARG25      -0.0865
     35  CZ         4.9360   13.2860   -1.2680 C.cat  25  ARG25       0.5346
     36  NH1        6.2660   13.2090   -1.2160 N.pl3  25  ARG25       0.1354
     37  NH2        4.3830   14.1770   -2.0820 N.pl3  25  ARG25       0.1354
     38  N          4.4740    3.8710    5.7930 N.3    57  ALA57      -0.1245
     39  CA         3.8300    2.7150    6.3610 C.3    57  ALA57       0.1562
     40  C          3.6630    1.6020    5.2680 C.2    57  ALA57       0.2260
     41  O          3.2960    1.8780    4.1040 O.2    57  ALA57      -0.2867
     42  CB         2.4390    3.1470    6.9180 C.3    57  ALA57       0.0290
     43  N          8.8330    0.8690    8.0210 N.3    99  GLN99      -0.1245
     44  CA         7.7100    0.9450    8.9810 C.3    99  GLN99       0.1566
     45  C          6.5760   -0.0510    8.5930 C.2    99  GLN99       0.2260
     46  O          6.0110    0.0060    7.4920 O.2    99  GLN99      -0.2867
     47  CB         7.0840    2.3700    8.9760 C.3    99  GLN99       0.0367
     48  CG         6.0430    2.4480   10.1630 C.3    99  GLN99       0.0905
     49  CD         5.3180    3.7570   10.1080 C.2    99  GLN99       0.2608
     50  OE1        4.5260    3.9720    9.2050 O.2    99  GLN99      -0.2717
     51  NE2        5.4650    4.5590   11.1620 N.am   99  GLN99      -0.0878
     52  N          2.7470   -1.6980    9.4100 N.3   101  TRP101     -0.1298
     53  CA         1.4740   -1.3350   10.0280 C.3   101  TRP101      0.1291
     54  C          0.3400   -2.2420    9.5930 C.3   101  TRP101      0.2013
     55  O          0.4840   -3.0960    8.6250 O.3   101  TRP101     -0.2188
     56  CB         1.0850    0.1550    9.7700 C.3   101  TRP101      0.0497
     57  CG         0.5190    0.4410    8.3560 C.ar  101  TRP101     -0.0001
     58  CD1        0.7420   -0.2800    7.1880 C.ar  101  TRP101      0.0946
     59  CD2       -0.2660    1.5710    7.9890 C.ar  101  TRP101      0.0152
     60  NE1        0.0880    0.3400    6.1400 N.ar  101  TRP101     -0.2442
     61  CE2       -0.5000    1.4940    6.6080 C.ar  101  TRP101      0.0810
     62  CE3       -0.7870    2.6620    8.7110 C.ar  101  TRP101      0.0012
     63  CZ2       -1.2420    2.5070    5.8860 C.ar  101  TRP101      0.0191
     64  CZ3       -1.5430    3.6910    7.9790 C.ar  101  TRP101      0.0001
     65  CH2       -1.7580    3.5810    6.6080 C.ar  101  TRP101      0.0015
     66  N          4.4280    0.3400   13.7550 N.3   166  HIS166     -0.1241
     67  CA         3.6010    1.5350   13.7120 C.3   166  HIS166      0.1621
     68  C          2.5300    1.3760   14.8090 C.2   166  HIS166      0.2264
     69  O          1.4290    0.8420   14.5740 O.2   166  HIS166     -0.2867
     70  CB         2.9070    1.6710   12.3770 C.3   166  HIS166      0.0745
     71  CG         2.2660    3.0220   12.1900 C.ar  166  HIS166      0.0817
     72  ND1        1.8820    3.8300   13.2560 N.ar  166  HIS166     -0.2268
     73  CD2        1.8920    3.6760   11.0650 C.ar  166  HIS166      0.1154
     74  CE1        1.3270    4.9310   12.7940 C.ar  166  HIS166      0.1986
     75  NE2        1.3230    4.8680   11.4610 N.ar  166  HIS166     -0.2212
     76  N         -1.1100    6.9070   15.8050 N.3   169  ASN169     -0.1240
     77  CA        -2.0200    7.5780   14.9430 C.3   169  ASN169      0.1653
     78  C         -3.3370    6.8440   14.7570 C.2   169  ASN169      0.2266
     79  O         -4.0350    7.1240   13.7710 O.2   169  ASN169     -0.2867
     80  CB        -1.3130    7.8900   13.5950 C.3   169  ASN169      0.1155
     81  CG         0.0360    8.6730   13.8200 C.2   169  ASN169      0.2627
     82  OD1        0.1300    9.5640   14.6640 O.2   169  ASN169     -0.2716
     83  ND2        1.0590    8.3210   13.0640 N.am  169  ASN169     -0.0877
     84  N         -4.0630    3.8280   14.2570 N.3   171  TYR171     -0.1241
     85  CA        -4.0430    2.6070   13.4140 C.3   171  TYR171      0.1605
     86  C         -4.1380    1.3050   14.3090 C.2   171  TYR171      0.2264
     87  O         -4.4200    1.3900   15.5270 O.2   171  TYR171     -0.2867
     88  CB        -2.8380    2.6280   12.4050 C.3   171  TYR171      0.0534
     89  CG        -3.0850    3.8090   11.4330 C.ar  171  TYR171     -0.0201
     90  CD1       -4.2430    3.8410   10.6360 C.ar  171  TYR171     -0.0009
     91  CD2       -2.2260    4.9260   11.4020 C.ar  171  TYR171     -0.0009
     92  CE1       -4.5000    5.0030    9.7690 C.ar  171  TYR171      0.0417
     93  CE2       -2.4680    5.9920   10.5620 C.ar  171  TYR171      0.0417
     94  CZ        -3.6080    6.0080    9.7820 C.ar  171  TYR171      0.1957
     95  OH        -3.8400    7.1000    9.0020 O.3   171  TYR171     -0.2866
     96  N          6.9730    3.2030   17.1850 N.3   218  LYS218     -0.1245
     97  CA         6.3880    4.5950   17.1350 C.3   218  LYS218      0.1561
     98  C          5.0350    4.6300   17.8740 C.2   218  LYS218      0.2260
     99  O          4.1560    3.7780   17.6390 O.2   218  LYS218     -0.2867
    100  CB         6.1330    5.0040   15.6580 C.3   218  LYS218      0.0271
    101  CG         5.7390    6.5040   15.6160 C.3   218  LYS218      0.0035
    102  CD         5.2960    6.9340   14.1630 C.3   218  LYS218      0.0206
    103  CE         4.5800    8.3250   14.2480 C.3   218  LYS218      0.1093
    104  NZ         4.3280    8.8590   12.8330 N.3   218  LYS218     -0.1314
    105  N          9.8910    6.2830   19.2520 N.3   254  HIS254     -0.1241
    106  CA         9.6430    7.4320   18.3510 C.3   254  HIS254      0.1621
    107  C          8.2900    7.9450   18.7720 C.2   254  HIS254      0.2264
    108  O          7.2780    7.1980   18.6750 O.2   254  HIS254     -0.2867
    109  CB         9.5680    6.8550   16.9130 C.3   254  HIS254      0.0745
    110  CG         9.2120    7.8470   15.8160 C.ar  254  HIS254      0.0817
    111  ND1        9.1780    7.4550   14.4870 N.ar  254  HIS254     -0.2268
    112  CD2        8.8580    9.1550   15.8350 C.ar  254  HIS254      0.1154
    113  CE1        8.8100    8.4780   13.7290 C.ar  254  HIS254      0.1986
    114  NE2        8.5910    9.5260   14.5180 N.ar  254  HIS254     -0.2212
    115  N          5.3560   11.0340   18.3170 N.3   256  ALA256     -0.1231
    116  CA         5.0350   12.0980   17.3040 C.3   256  ALA256      0.1694
    117  C          3.7800   12.8200   17.6960 C.2   256  ALA256      0.2592
    118  O          2.8080   12.1770   18.1910 O.2   256  ALA256     -0.2718
    119  CB         4.8740   11.4900   15.9040 C.3   256  ALA256      0.0304
    120  N          3.8250   14.1370   17.4730 N.am  257  ASN257     -0.1960
    121  CA         2.5790   15.0000   17.5010 C.3   257  ASN257      0.1819
    122  C          1.8340   14.9230   16.2030 C.2   257  ASN257      0.2622
    123  O          2.4180   14.8780   15.1120 O.2   257  ASN257     -0.2715
    124  CB         2.9540   16.4560   17.7500 C.3   257  ASN257      0.1195
    125  CG         3.7060   16.6340   19.0020 C.2   257  ASN257      0.2630
    126  OD1        3.2310   16.1730   20.0570 O.2   257  ASN257     -0.2716
    127  ND2        4.9170   17.2880   18.9150 N.am  257  ASN257     -0.0877
    128  N          0.5060   14.9010   16.2990 N.am  258  SER258     -0.1950
    129  CA        -0.2660   14.8940   15.1060 C.3   258  SER258      0.1924
    130  C         -1.3230   16.0440   15.1930 C.2   258  SER258      0.2314
    131  O         -1.0680   17.1340   15.7620 O.2   258  SER258     -0.2863
    132  CB        -0.8610   13.4600   14.9830 C.3   258  SER258      0.2116
    133  OG        -1.5760   13.3210   13.7790 O.3   258  SER258     -0.2180
    134  N          8.9190   13.7840   16.8850 N.3   288  ALA288     -0.1231
    135  CA         8.5010   14.2970   15.5590 C.3   288  ALA288      0.1694
    136  C          7.2780   15.1120   15.7010 C.2   288  ALA288      0.2593
    137  O          6.5480   14.8840   16.7070 O.2   288  ALA288     -0.2718
    138  CB         8.1630   13.1080   14.6460 C.3   288  ALA288      0.0304
    139  N          7.0240   16.0440   14.7450 N.am  289  GLY289     -0.1942
    140  CA         5.7140   16.7400   14.7150 C.3   289  GLY289      0.2014
    141  C          5.9170   18.2000   15.0550 C.2   289  GLY289      0.2639
    142  O          5.9560   18.5880   16.2380 O.2   289  GLY289     -0.2714
    143  N          5.9630   19.0090   13.9980 N.am  290  GLY290     -0.1939
    144  CA         6.0110   20.4460   14.1450 C.3   290  GLY290      0.2014
    145  C          7.4330   20.9880   14.2930 C.2   290  GLY290      0.2638
    146  O          7.5860   22.2070   14.4610 O.2   290  GLY290     -0.2714
    147  N          8.4800   20.1420   14.1680 N.am  291  TYR291     -0.1973
    148  CA         9.8250   20.7540   14.3310 C.3   291  TYR291      0.1639
    149  C         10.3310   21.4330   13.0640 C.2   291  TYR291      0.2290
    150  O          9.9220   21.0600   11.9240 O.2   291  TYR291     -0.2864
    151  CB        10.8150   19.6660   14.7430 C.3   291  TYR291      0.0560
    152  CG        10.4310   19.1680   16.1010 C.ar  291  TYR291     -0.0198
    153  CD1       10.7400   19.9060   17.2590 C.ar  291  TYR291     -0.0009
    154  CD2        9.7930   17.9350   16.2390 C.ar  291  TYR291     -0.0009
    155  CE1       10.4560   19.3850   18.5540 C.ar  291  TYR291      0.0417
    156  CE2        9.4800   17.4510   17.5240 C.ar  291  TYR291      0.0417
    157  CZ         9.7900   18.2030   18.6570 C.ar  291  TYR291      0.1957
    158  OH         9.4370   17.7090   19.9210 O.3   291  TYR291     -0.2866
    159  N         12.7620   13.7000   13.8940 N.3   314  ALA314     -0.1231
    160  CA        12.3430   13.1900   12.6110 C.3   314  ALA314      0.1694
    161  C         11.4300   14.2830   11.9890 C.2   314  ALA314      0.2592
    162  O         10.6570   14.9350   12.7350 O.2   314  ALA314     -0.2718
    163  CB        11.5570   11.9270   12.8030 C.3   314  ALA314      0.0304
    164  N         11.5300   14.4480   10.6830 N.am  315  PHE315     -0.1962
    165  CA        10.7540   15.4350    9.9380 C.3   315  PHE315      0.1771
    166  C          9.9740   14.7130    8.8790 C.2   315  PHE315      0.2620
    167  O         10.5310   13.9340    8.0680 O.2   315  PHE315     -0.2715
    168  CB        11.6580   16.4560    9.2390 C.3   315  PHE315      0.0574
    169  CG        12.5890   17.1880   10.1530 C.ar  315  PHE315     -0.0200
    170  CD1       13.8180   16.5960   10.5320 C.ar  315  PHE315     -0.0042
    171  CD2       12.2440   18.4390   10.6540 C.ar  315  PHE315     -0.0042
    172  CE1       14.7220   17.2580   11.4460 C.ar  315  PHE315     -0.0003
    173  CE2       13.1200   19.0910   11.5010 C.ar  315  PHE315     -0.0003
    174  CZ        14.3930   18.4960   11.8830 C.ar  315  PHE315     -0.0000
    175  N          8.7050   15.0550    8.7980 N.am  316  GLY316     -0.1940
    176  CA         7.8670   14.5410    7.7350 C.3   316  GLY316      0.2014
    177  C          7.7880   15.5700    6.6370 C.2   316  GLY316      0.2639
    178  O          8.4500   15.4430    5.5820 O.2   316  GLY316     -0.2714
    179  N          7.0180   16.6050    6.8610 N.am  317  ARG317     -0.1963
    180  CA         6.7630   17.5560    5.7280 C.3   317  ARG317      0.1729
    181  C          8.0580   18.2120    5.1860 C.2   317  ARG317      0.2616
    182  O          8.1580   18.4080    3.9620 O.2   317  ARG317     -0.2715
    183  CB         5.8070   18.7190    6.1660 C.3   317  ARG317      0.0348
    184  CG         4.3500   18.0580    6.4520 C.3   317  ARG317      0.0492
    185  CD         3.4590   19.0090    7.1850 C.3   317  ARG317      0.2205
    186  NE         3.8680   19.1990    8.5720 N.pl3 317  ARG317     -0.0865
    187  CZ         3.4140   20.1180    9.4200 C.cat 317  ARG317      0.5346
    188  NH1        2.5790   21.1000    9.0250 N.pl3 317  ARG317      0.1354
    189  NH2        3.8250   20.0620   10.7050 N.pl3 317  ARG317      0.1354
    190  N          8.9850   18.5990    6.0690 N.am  318  TYR318     -0.1974
    191  CA        10.2030   19.2380    5.4930 C.3   318  TYR318      0.1639
    192  C         11.0940   18.2920    4.7330 C.2   318  TYR318      0.2290
    193  O         11.8880   18.7750    3.9090 O.2   318  TYR318     -0.2864
    194  CB        11.0570   19.9310    6.5580 C.3   318  TYR318      0.0560
    195  CG        10.5400   21.3230    6.9700 C.ar  318  TYR318     -0.0198
    196  CD1       10.3970   22.3380    6.0050 C.ar  318  TYR318     -0.0009
    197  CD2       10.2250   21.6170    8.2930 C.ar  318  TYR318     -0.0009
    198  CE1        9.9230   23.6090    6.3580 C.ar  318  TYR318      0.0417
    199  CE2        9.7680   22.8960    8.6860 C.ar  318  TYR318      0.0417
    200  CZ         9.6260   23.9040    7.7140 C.ar  318  TYR318      0.1957
    201  OH         9.1560   25.2180    8.0450 O.3   318  TYR318     -0.2866
    202  N          9.7970   15.9420    2.8720 N.3   320  ILE320     -0.1245
    203  CA         9.1210   15.9350    1.5690 C.3   320  ILE320      0.1561
    204  C          9.6440   17.0630    0.6660 C.2   320  ILE320      0.2260
    205  O          9.9920   16.7960   -0.5240 O.2   320  ILE320     -0.2867
    206  CB         7.5740   15.9950    1.7400 C.3   320  ILE320      0.0252
    207  CG1        7.0660   14.6770    2.3610 C.3   320  ILE320      0.0019
    208  CG2        6.8960   16.2580    0.3270 C.3   320  ILE320      0.0019
    209  CD1        5.5790   14.8080    2.8170 C.3   320  ILE320      0.0001
    210  N          1.4720   17.2860   -0.4740 N.3   343  PHE343     -0.1227
    211  CA         1.0880   16.2920    0.5790 C.3   343  PHE343      0.1736
    212  C         -0.0770   15.5160    0.0830 C.2   343  PHE343      0.2595
    213  O         -0.1650   14.3260    0.3690 O.2   343  PHE343     -0.2718
    214  CB         0.6780   16.8640    1.9650 C.3   343  PHE343      0.0547
    215  CG         1.6340   17.8240    2.5180 C.ar  343  PHE343     -0.0202
    216  CD1        2.9620   17.8260    2.1120 C.ar  343  PHE343     -0.0042
    217  CD2        1.1800   18.7910    3.4240 C.ar  343  PHE343     -0.0042
    218  CE1        3.8520   18.7580    2.6470 C.ar  343  PHE343     -0.0003
    219  CE2        2.0460   19.7490    3.9450 C.ar  343  PHE343     -0.0003
    220  CZ         3.3850   19.7310    3.5540 C.ar  343  PHE343     -0.0000
    221  N         -0.9700   16.2060   -0.6680 N.am  344  TYR344     -0.1976
    222  CA        -2.2150   15.5720   -1.0840 C.3   344  TYR344      0.1639
    223  C         -2.1020   15.0470   -2.4990 C.2   344  TYR344      0.2290
    224  O         -3.0800   14.6590   -3.0350 O.2   344  TYR344     -0.2864
    225  CB        -3.4420   16.4910   -0.8610 C.3   344  TYR344      0.0560
    226  CG        -3.5330   16.9640    0.5630 C.ar  344  TYR344     -0.0198
    227  CD1       -3.2870   16.0640    1.6070 C.ar  344  TYR344     -0.0009
    228  CD2       -3.8070   18.3040    0.8830 C.ar  344  TYR344     -0.0009
    229  CE1       -3.2650   16.4700    2.9340 C.ar  344  TYR344      0.0417
    230  CE2       -3.7790   18.7450    2.2270 C.ar  344  TYR344      0.0417
    231  CZ        -3.5230   17.7990    3.2400 C.ar  344  TYR344      0.1957
    232  OH        -3.5290   18.1300    4.5840 O.3   344  TYR344     -0.2866
@<TRIPOS>BOND
     1   224   223    2
     2    30    29    2
     3   223   222    1
     4    37    35    1
     5    29    28    1
     6    35    36    1
     7    35    34    2
     8   222   225    1
     9   222   221    1
    10    31    28    1
    11    31    32    1
    12   225   226    1
    13   221   212   am
    14   205   204    2
    15   210   211    1
    16    28    27    1
    17    34    33    1
    18    32    33    1
    19   212   213    2
    20   212   211    1
    21   208   206    1
    22   226   228   ar
    23   226   227   ar
    24   211   214    1
    25   204   203    1
    26    27    22   am
    27   228   230   ar
    28   203   206    1
    29   203   202    1
    30   227   229   ar
    31   206   207    1
    32    22    23    2
    33    22    21    1
    34   214   215    1
    35   216   215   ar
    36   216   218   ar
    37   230   231   ar
    38   207   209    1
    39    26    24    1
    40   215   217   ar
    41   218   220   ar
    42   229   231   ar
    43    16    15    2
    44    21    24    1
    45    21    20    1
    46   231   232    1
    47   217   219   ar
    48   220   219   ar
    49    24    25    1
    50    18    17    1
    51   193   192    2
    52   182   181    2
    53    15    20   am
    54    15    14    1
    55    41    40    2
    56    17    14    1
    57    17    19    1
    58   192   191    1
    59   181   180    1
    60   181   190   am
    61    14    13    1
    62    40    39    1
    63   191   190    1
    64   191   194    1
    65   178   177    2
    66   180   183    1
    67   180   179    1
    68    38    39    1
    69    13     8   am
    70    63    65   ar
    71    63    61   ar
    72   196   198   ar
    73   196   195   ar
    74    60    61   ar
    75    60    58   ar
    76   183   184    1
    77   198   200   ar
    78    39    42    1
    79   184   185    1
    80   194   195    1
    81    65    64   ar
    82    61    59   ar
    83   177   179   am
    84   177   176    1
    85   195   197   ar
    86     4     3    2
    87     8     7    1
    88     8     9    2
    89   185   186    1
    90    58    57   ar
    91    46    45    2
    92   200   201    1
    93   200   199   ar
    94   176   175    1
    95     7    10    1
    96     7     6    1
    97    64    62   ar
    98    59    57   ar
    99    59    62   ar
   100    43    44    1
   101   167   166    2
   102     3     6   am
   103     3     2    1
   104   197   199   ar
   105    57    56    1
   106   186   187    2
   107    45    44    1
   108    55    54    1
   109     1     2    1
   110    10    11    1
   111     6    12    1
   112   175   166   am
   113   166   165    1
   114    47    44    1
   115    47    48    1
   116    95    94    1
   117   188   187    1
   118    50    49    2
   119   168   165    1
   120   168   169    1
   121     2     5    1
   122    52    53    1
   123   187   189    1
   124    54    53    1
   125    92    94   ar
   126    92    90   ar
   127    56    53    1
   128    94    93   ar
   129   165   164    1
   130    49    48    1
   131    49    51   am
   132    12    11    1
   133   169   170   ar
   134   169   171   ar
   135   170   172   ar
   136    93    91   ar
   137    90    89   ar
   138   171   173   ar
   139   164   161   am
   140    73    75   ar
   141    73    71   ar
   142    91    89   ar
   143    89    88    1
   144   172   174   ar
   145    75    74   ar
   146   173   174   ar
   147   150   149    2
   148   161   160    1
   149   161   162    2
   150    71    70    1
   151    71    72   ar
   152    70    67    1
   153    88    85    1
   154   160   163    1
   155   160   159    1
   156    74    72   ar
   157   104   103    1
   158    83    81   am
   159   149   148    1
   160    85    84    1
   161    85    86    1
   162    80    81    1
   163    80    77    1
   164    67    66    1
   165    67    68    1
   166   113   111   ar
   167   113   114   ar
   168    79    78    2
   169   133   132    1
   170    81    82    2
   171   143   144    1
   172   143   141   am
   173   144   145    1
   174   102   103    1
   175   102   101    1
   176   147   145   am
   177   147   148    1
   178   145   146    2
   179    86    87    2
   180   148   151    1
   181   111   110   ar
   182   114   112   ar
   183    69    68    2
   184   138   135    1
   185   140   139    1
   186   140   141    1
   187   151   152    1
   188   139   136   am
   189    78    77    1
   190    77    76    1
   191   132   129    1
   192   141   142    2
   193   129   130    1
   194   129   128    1
   195   123   122    2
   196   130   131    2
   197   135   136    1
   198   135   134    1
   199   101   100    1
   200   100    97    1
   201   136   137    2
   202   110   112   ar
   203   110   109    1
   204   119   116    1
   205   152   154   ar
   206   152   153   ar
   207   122   128   am
   208   122   121    1
   209   154   156   ar
   210   109   106    1
   211    97    96    1
   212    97    98    1
   213   153   155   ar
   214   116   117    1
   215   116   115    1
   216   120   121    1
   217   120   117   am
   218   121   124    1
   219   156   157   ar
   220    99    98    2
   221   117   118    2
   222   124   125    1
   223   106   107    1
   224   106   105    1
   225   155   157   ar
   226   157   158    1
   227   108   107    2
   228   127   125   am
   229   125   126    2
