@<TRIPOS>MOLECULE
tmp/4qnyB00.pdb
 189 177 0 0 0
SMALL
GASTEIGER

@<TRIPOS>ATOM
      1  N         -8.0250    6.3480   12.2810 N.3    24  ILE24      -0.1231
      2  CA        -6.6280    6.5740   11.9230 C.3    24  ILE24       0.1692
      3  C         -5.7780    5.3120   12.0320 C.2    24  ILE24       0.2593
      4  O         -4.7560    5.1860   11.3590 O.2    24  ILE24      -0.2718
      5  CB        -6.0000    7.6680   12.8040 C.3    24  ILE24       0.0266
      6  CG1       -6.4620    7.5090   14.2540 C.3    24  ILE24       0.0019
      7  CG2       -6.3760    9.0450   12.2850 C.3    24  ILE24       0.0020
      8  CD1       -5.7410    8.4140   15.2310 C.3    24  ILE24       0.0001
      9  N         -6.2020    4.3830   12.8820 N.am   25  GLY25      -0.1942
     10  CA        -5.4670    3.1480   13.0820 C.3    25  GLY25       0.2014
     11  C         -6.3800    1.9470   13.2230 C.2    25  GLY25       0.2639
     12  O         -7.5060    2.0630   13.7070 O.2    25  GLY25      -0.2714
     13  N         -5.8920    0.7880   12.7940 N.am   26  ALA26      -0.1963
     14  CA        -6.6620   -0.4460   12.8800 C.3    26  ALA26       0.1728
     15  C         -5.8120   -1.5720   13.4560 C.2    26  ALA26       0.2617
     16  O         -5.1010   -2.2620   12.7260 O.2    26  ALA26      -0.2715
     17  CB        -7.2020   -0.8320   11.5130 C.3    26  ALA26       0.0334
     18  N         -5.8890   -1.7510   14.7710 N.am   27  GLY27      -0.1940
     19  CA        -5.1010   -2.7610   15.4500 C.3    27  GLY27       0.2014
     20  C         -5.6750   -4.1580   15.3240 C.2    27  GLY27       0.2640
     21  O         -6.6710   -4.3740   14.6320 O.2    27  GLY27      -0.2714
     22  N         -5.0400   -5.1100   15.9990 N.am   28  SER28      -0.1935
     23  CA        -5.4680   -6.5020   15.9570 C.3    28  SER28       0.2055
     24  C         -6.7260   -6.7200   16.7930 C.2    28  SER28       0.2643
     25  O         -7.5750   -7.5440   16.4510 O.2    28  SER28      -0.2714
     26  CB        -4.3460   -7.4180   16.4490 C.3    28  SER28       0.2130
     27  OG        -3.1210   -7.1150   15.8050 O.3    28  SER28      -0.2179
     28  N         -6.8390   -5.9750   17.8870 N.am   29  TYR29      -0.1973
     29  CA        -7.9640   -6.1220   18.8030 C.3    29  TYR29       0.1639
     30  C         -8.6750   -4.7960   19.0620 C.2    29  TYR29       0.2290
     31  O         -9.2120   -4.5760   20.1490 O.2    29  TYR29      -0.2864
     32  CB        -7.4940   -6.7210   20.1310 C.3    29  TYR29       0.0560
     33  CG        -7.0390   -8.1610   20.0430 C.ar   29  TYR29      -0.0198
     34  CD1       -7.9370   -9.2050   20.2270 C.ar   29  TYR29      -0.0009
     35  CD2       -5.7120   -8.4760   19.7840 C.ar   29  TYR29      -0.0009
     36  CE1       -7.5270  -10.5230   20.1510 C.ar   29  TYR29       0.0417
     37  CE2       -5.2920   -9.7920   19.7060 C.ar   29  TYR29       0.0417
     38  CZ        -6.2040  -10.8110   19.8900 C.ar   29  TYR29       0.1957
     39  OH        -5.7930  -12.1220   19.8140 O.3    29  TYR29      -0.2866
     40  N         -8.2850    2.4890   16.2190 N.3    32  VAL32      -0.1245
     41  CA        -7.8380    3.7800   16.7330 C.3    32  VAL32       0.1561
     42  C         -8.5410    4.9160   15.9910 C.2    32  VAL32       0.2260
     43  O         -8.5060    4.9820   14.7620 O.2    32  VAL32      -0.2867
     44  CB        -6.3130    3.9440   16.6040 C.3    32  VAL32       0.0252
     45  CG1       -5.8630    5.2430   17.2550 C.3    32  VAL32       0.0019
     46  CG2       -5.6000    2.7560   17.2330 C.3    32  VAL32       0.0019
     47  N         -6.6510   11.2110   20.4430 N.3    46  ALA46      -0.1245
     48  CA        -6.6920    9.8640   19.8790 C.3    46  ALA46       0.1562
     49  C         -7.4420    8.9030   20.7960 C.2    46  ALA46       0.2260
     50  O         -7.2260    8.8910   22.0070 O.2    46  ALA46      -0.2867
     51  CB        -5.2820    9.3540   19.6220 C.3    46  ALA46       0.0290
     52  N         -8.4580    4.8280   21.3810 N.3    48  LYS48      -0.1245
     53  CA        -8.1300    3.4500   21.0380 C.3    48  LYS48       0.1561
     54  C         -9.1590    2.4810   21.6130 C.2    48  LYS48       0.2260
     55  O         -9.1910    2.2420   22.8200 O.2    48  LYS48      -0.2867
     56  CB        -6.7290    3.1040   21.5480 C.3    48  LYS48       0.0271
     57  CG        -6.2410    1.7110   21.1930 C.3    48  LYS48       0.0035
     58  CD        -4.8260    1.5010   21.7080 C.3    48  LYS48       0.0206
     59  CE        -4.2850    0.1340   21.3350 C.3    48  LYS48       0.1093
     60  NZ        -2.8710   -0.0230   21.7730 N.3    48  LYS48      -0.1314
     61  N         -3.6570   -5.7500   28.3710 N.3    64  ILE64      -0.1245
     62  CA        -4.2350   -4.4320   28.1430 C.3    64  ILE64       0.1561
     63  C         -4.2810   -3.6400   29.4500 C.2    64  ILE64       0.2260
     64  O         -4.1490   -2.4190   29.4400 O.2    64  ILE64      -0.2867
     65  CB        -5.6520   -4.5220   27.5090 C.3    64  ILE64       0.0252
     66  CG1       -6.0220   -3.1990   26.8340 C.3    64  ILE64       0.0019
     67  CG2       -6.7080   -4.9350   28.5290 C.3    64  ILE64       0.0019
     68  CD1       -5.1940   -2.8890   25.6040 C.3    64  ILE64       0.0001
     69  N         -0.8530   -2.2750   29.9490 N.3    67  GLU67      -0.1245
     70  CA        -0.5940   -1.2150   28.9800 C.3    67  GLU67       0.1567
     71  C         -1.1350    0.1320   29.4550 C.2    67  GLU67       0.2260
     72  O         -0.4590    1.1540   29.3420 O.2    67  GLU67      -0.2867
     73  CB        -1.1980   -1.5750   27.6210 C.3    67  GLU67       0.0388
     74  CG        -0.9310   -0.5440   26.5380 C.3    67  GLU67       0.1160
     75  CD        -1.5410   -0.9250   25.2050 C.2    67  GLU67       0.3649
     76  OE1       -1.9220   -2.1030   25.0380 O.co2  67  GLU67      -0.2457
     77  OE2       -1.6400   -0.0470   24.3220 O.co2  67  GLU67      -0.2457
     78  N          3.9140    8.5150   24.4850 N.3    80  ILE80      -0.1245
     79  CA         2.5410    8.9450   24.2350 C.3    80  ILE80       0.1561
     80  C          1.7380    9.0030   25.5400 C.2    80  ILE80       0.2260
     81  O          1.7420    8.0660   26.3400 O.2    80  ILE80      -0.2867
     82  CB         1.8390    8.0270   23.1930 C.3    80  ILE80       0.0252
     83  CG1        0.5200    8.6490   22.7280 C.3    80  ILE80       0.0019
     84  CG2        1.6460    6.6090   23.7170 C.3    80  ILE80       0.0019
     85  CD1        0.7020    9.9060   21.9060 C.3    80  ILE80       0.0001
     86  N         -5.7970    8.9720   24.2500 N.3   101  MET101     -0.1230
     87  CA        -4.4180    9.4440   24.2810 C.3   101  MET101      0.1702
     88  C         -4.2560   10.7560   23.5220 C.2   101  MET101      0.2592
     89  O         -5.1570   11.1790   22.7970 O.2   101  MET101     -0.2718
     90  CB        -3.4830    8.3900   23.6860 C.3   101  MET101      0.0401
     91  CG        -3.6710    6.9930   24.2480 C.3   101  MET101      0.0596
     92  SD        -3.0400    5.7290   23.1300 S.3   101  MET101     -0.1393
     93  CE        -4.1420    5.9380   21.7340 C.3   101  MET101      0.0692
     94  N         -3.1030   11.3970   23.6930 N.am  102  ASP102     -0.1960
     95  CA        -2.7540   12.5640   22.8920 C.3   102  ASP102      0.1840
     96  C         -2.6210   12.1500   21.4320 C.2   102  ASP102      0.2622
     97  O         -2.2620   11.0120   21.1350 O.2   102  ASP102     -0.2715
     98  CB        -1.4540   13.2030   23.3880 C.3   102  ASP102      0.1450
     99  CG        -1.6020   13.8490   24.7530 C.2   102  ASP102      0.3671
    100  OD1       -2.5920   14.5810   24.9590 O.co2 102  ASP102     -0.2456
    101  OD2       -0.7290   13.6260   25.6180 O.co2 102  ASP102     -0.2456
    102  N         -2.9120   13.0710   20.5210 N.am  103  ILE103     -0.1963
    103  CA        -2.8820   12.7480   19.1010 C.3   103  ILE103      0.1727
    104  C         -1.4980   12.9950   18.4990 C.2   103  ILE103      0.2616
    105  O         -0.7710   13.8990   18.9160 O.2   103  ILE103     -0.2715
    106  CB        -3.9480   13.5580   18.3160 C.3   103  ILE103      0.0290
    107  CG1       -4.2210   12.9230   16.9480 C.3   103  ILE103      0.0022
    108  CG2       -3.5410   15.0200   18.1800 C.3   103  ILE103      0.0023
    109  CD1       -5.2580   11.8220   16.9780 C.3   103  ILE103      0.0001
    110  N         -1.1290   12.1540   17.5390 N.am  104  MET104     -0.1963
    111  CA         0.0690   12.3610   16.7360 C.3   104  MET104      0.1736
    112  C         -0.3260   12.2440   15.2690 C.2   104  MET104      0.2616
    113  O         -1.2850   11.5500   14.9350 O.2   104  MET104     -0.2715
    114  CB         1.1640   11.3550   17.0990 C.3   104  MET104      0.0427
    115  CG         1.7290   11.5270   18.5050 C.3   104  MET104      0.0599
    116  SD         2.6870   13.0440   18.7210 S.3   104  MET104     -0.1393
    117  CE         4.1550   12.6610   17.7680 C.3   104  MET104      0.0692
    118  N          0.4050   12.9240   14.3950 N.am  105  GLU105     -0.1963
    119  CA        -0.0040   13.0360   12.9990 C.3   105  GLU105      0.1733
    120  C          0.1490   11.7290   12.2210 C.2   105  GLU105      0.2617
    121  O         -0.7020   11.3970   11.3940 O.2   105  GLU105     -0.2715
    122  CB         0.7780   14.1600   12.3180 C.3   105  GLU105      0.0429
    123  CG         0.1270   15.5260   12.4940 C.3   105  GLU105      0.1163
    124  CD         1.1260   16.6650   12.4990 C.2   105  GLU105      0.3649
    125  OE1        2.0370   16.6660   11.6450 O.co2 105  GLU105     -0.2457
    126  OE2        0.9960   17.5640   13.3580 O.co2 105  GLU105     -0.2457
    127  N          1.2180   10.9870   12.4890 N.am  106  THR106     -0.1937
    128  CA         1.4460    9.7120   11.8130 C.3   106  THR106      0.2028
    129  C          2.4870    8.8680   12.5410 C.2   106  THR106      0.2642
    130  O          2.9040    9.2020   13.6500 O.2   106  THR106     -0.2714
    131  CB         1.9010    9.9190   10.3510 C.3   106  THR106      0.1808
    132  OG1        2.0620    8.6460    9.7120 O.3   106  THR106     -0.2208
    133  CG2        3.2170   10.6820   10.3000 C.3   106  THR106      0.0379
    134  N          2.8960    7.7700   11.9140 N.am  107  ASP107     -0.1971
    135  CA         3.9380    6.9150   12.4720 C.3   107  ASP107      0.1709
    136  C          5.0500    6.6800   11.4530 C.2   107  ASP107      0.2293
    137  O          4.9020    7.0090   10.2770 O.2   107  ASP107     -0.2864
    138  CB         3.3530    5.5790   12.9420 C.3   107  ASP107      0.1436
    139  CG         2.6380    4.8280   11.8350 C.2   107  ASP107      0.3671
    140  OD1        3.3190    4.3020   10.9300 O.co2 107  ASP107     -0.2456
    141  OD2        1.3930    4.7540   11.8770 O.co2 107  ASP107     -0.2456
    142  N          4.4560    4.4950    8.1060 N.3   110  GLN110     -0.1245
    143  CA         3.8260    5.1850    6.9850 C.3   110  GLN110      0.1566
    144  C          4.7610    6.2310    6.3840 C.2   110  GLN110      0.2260
    145  O          4.7190    6.4950    5.1830 O.2   110  GLN110     -0.2867
    146  CB         2.5140    5.8330    7.4270 C.3   110  GLN110      0.0367
    147  CG         1.5700    4.8730    8.1330 C.3   110  GLN110      0.0905
    148  CD         0.1380    5.3660    8.1540 C.2   110  GLN110      0.2608
    149  OE1       -0.1430    6.5110    7.7980 O.2   110  GLN110     -0.2717
    150  NE2       -0.7780    4.5010    8.5720 N.am  110  GLN110     -0.0878
    151  N          5.8650    1.0680   13.3020 N.3   150  ALA150     -0.1231
    152  CA         4.4410    1.3130   13.5030 C.3   150  ALA150      0.1694
    153  C          4.1460    1.7690   14.9290 C.2   150  ALA150      0.2592
    154  O          3.1490    2.4460   15.1780 O.2   150  ALA150     -0.2718
    155  CB         3.6380    0.0630   13.1690 C.3   150  ALA150      0.0304
    156  N          5.0160    1.3980   15.8630 N.am  151  ASN151     -0.1974
    157  CA         4.8390    1.7750   17.2610 C.3   151  ASN151      0.1688
    158  C          5.6280    3.0300   17.6230 C.2   151  ASN151      0.2292
    159  O          5.8070    3.3480   18.7990 O.2   151  ASN151     -0.2864
    160  CB         5.2370    0.6180   18.1770 C.3   151  ASN151      0.1181
    161  CG         4.3270   -0.5830   18.0190 C.2   151  ASN151      0.2629
    162  OD1        3.1980   -0.4600   17.5430 O.2   151  ASN151     -0.2716
    163  ND2        4.8120   -1.7530   18.4180 N.am  151  ASN151     -0.0877
    164  N          5.4320    7.0190   16.9460 N.3   153  LEU153     -0.1245
    165  CA         4.5880    8.0990   16.4390 C.3   153  LEU153      0.1561
    166  C          5.3810    9.3850   16.2160 C.2   153  LEU153      0.2260
    167  O          6.2190    9.7540   17.0380 O.2   153  LEU153     -0.2867
    168  CB         3.4280    8.3560   17.4020 C.3   153  LEU153      0.0270
    169  CG         2.4930    7.1710   17.6550 C.3   153  LEU153      0.0019
    170  CD1        1.4890    7.5010   18.7470 C.3   153  LEU153      0.0001
    171  CD2        1.7810    6.7640   16.3730 C.3   153  LEU153      0.0001
    172  N          4.7190    4.4250   21.3900 N.3   163  CYS163     -0.1221
    173  CA         3.4080    3.9160   21.7830 C.3   163  CYS163      0.1808
    174  C          3.3710    2.3900   21.8430 C.2   163  CYS163      0.2601
    175  O          4.3920    1.7250   21.6550 O.2   163  CYS163     -0.2717
    176  CB         2.3310    4.4210   20.8200 C.3   163  CYS163      0.0970
    177  SG         2.3990    3.6900   19.1650 S.3   163  CYS163     -0.0800
    178  N          2.1820    1.8560   22.1170 N.am  164  ASP164     -0.1973
    179  CA         1.9250    0.4160   22.1460 C.3   164  ASP164      0.1709
    180  C          2.7550   -0.3170   23.2020 C.2   164  ASP164      0.2293
    181  O          3.7590   -0.9550   22.8850 O.2   164  ASP164     -0.2864
    182  CB         2.1790   -0.2010   20.7660 C.3   164  ASP164      0.1436
    183  CG         1.5390   -1.5700   20.6070 C.2   164  ASP164      0.3671
    184  OD1        1.1390   -2.1720   21.6260 O.co2 164  ASP164     -0.2456
    185  OD2        1.4380   -2.0490   19.4590 O.co2 164  ASP164     -0.2456
    186  N          1.6600   -2.8860   24.6860 N.3   166  GLY166     -0.1225
    187  CA         0.8350   -4.0770   24.7700 C.3   166  GLY166      0.1811
    188  C          1.6160   -5.3480   25.0400 C.2   166  GLY166      0.2280
    189  O          1.0610   -6.3360   25.5220 O.2   166  GLY166     -0.2866
@<TRIPOS>BOND
     1   145   144    2
     2   144   143    1
     3   143   146    1
     4   143   142    1
     5   146   147    1
     6   149   148    2
     7   147   148    1
     8   148   150   am
     9   132   131    1
    10   137   136    2
    11   133   131    1
    12   131   128    1
    13   140   139   ar
    14     4     3    2
    15   121   120    2
    16   136   135    1
    17    17    14    1
    18   125   124   ar
    19   128   127    1
    20   128   129    1
    21   139   141   ar
    22   139   138    1
    23   134   135    1
    24   134   129   am
    25     2     3    1
    26     2     1    1
    27     2     5    1
    28     3     9   am
    29   120   127   am
    30   120   119    1
    31     7     5    1
    32   122   123    1
    33   122   119    1
    34   135   138    1
    35   123   124    1
    36   124   126   ar
    37   129   130    2
    38    16    15    2
    39    13    14    1
    40    13    11   am
    41     5     6    1
    42    14    15    1
    43     9    10    1
    44   119   118    1
    45    10    11    1
    46   155   152    1
    47    11    12    2
    48   151   152    1
    49    15    18   am
    50   152   153    1
    51     6     8    1
    52   118   112   am
    53    21    20    2
    54    43    42    2
    55    18    19    1
    56   153   154    2
    57   153   156   am
    58   113   112    2
    59   112   111    1
    60    20    19    1
    61    20    22   am
    62    27    26    1
    63   156   157    1
    64    23    22    1
    65    23    26    1
    66    23    24    1
    67    42    41    1
    68   166   165    1
    69   166   167    2
    70    40    41    1
    71   171   169    1
    72   165   164    1
    73   165   168    1
    74    25    24    2
    75    44    41    1
    76    44    46    1
    77    44    45    1
    78   111   114    1
    79   111   110    1
    80    24    28   am
    81   107   109    1
    82   107   106    1
    83   114   115    1
    84   157   158    1
    85   157   160    1
    86   168   169    1
    87   110   104   am
    88   162   161    2
    89   158   159    2
    90   169   170    1
    91   117   116    1
    92    28    29    1
    93   161   160    1
    94   161   163   am
    95   108   106    1
    96   106   103    1
    97   104   105    2
    98   104   103    1
    99   115   116    1
   100    29    30    1
   101    29    32    1
   102    30    31    2
   103   103   102    1
   104   177   176    1
   105   185   183   ar
   106    51    48    1
   107    37    35   ar
   108    37    38   ar
   109    35    33   ar
   110    39    38    1
   111    48    47    1
   112    48    49    1
   113    38    36   ar
   114    33    32    1
   115    33    34   ar
   116    36    34   ar
   117   102    96   am
   118   183   182    1
   119   183   184   ar
   120   182   179    1
   121    49    50    2
   122   176   173    1
   123    53    52    1
   124    53    56    1
   125    53    54    1
   126    97    96    2
   127    57    56    1
   128    57    58    1
   129    59    58    1
   130    59    60    1
   131   172   173    1
   132    96    95    1
   133    54    55    2
   134   175   174    2
   135    93    92    1
   136   173   174    1
   137   174   178   am
   138    85    83    1
   139   178   179    1
   140   179   180    1
   141    83    82    1
   142    89    88    2
   143   181   180    2
   144    95    98    1
   145    95    94    1
   146    92    91    1
   147    82    84    1
   148    82    79    1
   149    98    99    1
   150    88    94   am
   151    88    87    1
   152    90    91    1
   153    90    87    1
   154    79    78    1
   155    79    80    1
   156    86    87    1
   157    77    75   ar
   158   186   187    1
   159    99   100   ar
   160    99   101   ar
   161   187   188    1
   162    76    75   ar
   163   188   189    2
   164    75    74    1
   165    80    81    2
   166    68    66    1
   167    74    73    1
   168    66    65    1
   169    65    62    1
   170    65    67    1
   171    73    70    1
   172    62    61    1
   173    62    63    1
   174    70    71    1
   175    70    69    1
   176    72    71    2
   177    64    63    2
