@<TRIPOS>MOLECULE
tmp/4qnzA01.pdb
 123 116 0 0 0
SMALL
GASTEIGER

@<TRIPOS>ATOM
      1  N          7.0590  -40.3320  -56.1540 N.3   116  TYR116     -0.1241
      2  CA         6.0920  -39.2560  -56.3130 C.3   116  TYR116      0.1605
      3  C          6.4930  -38.2670  -57.3960 C.2   116  TYR116      0.2264
      4  O          5.6530  -37.8640  -58.1790 O.2   116  TYR116     -0.2867
      5  CB         5.7960  -38.5870  -54.9960 C.3   116  TYR116      0.0534
      6  CG         4.9590  -39.4720  -54.1250 C.ar  116  TYR116     -0.0201
      7  CD1        3.7980  -40.0610  -54.6260 C.ar  116  TYR116     -0.0009
      8  CD2        5.3620  -39.8250  -52.8570 C.ar  116  TYR116     -0.0009
      9  CE1        3.0470  -40.9390  -53.8580 C.ar  116  TYR116      0.0417
     10  CE2        4.6110  -40.6980  -52.0760 C.ar  116  TYR116      0.0417
     11  CZ         3.4580  -41.2510  -52.5820 C.ar  116  TYR116      0.1957
     12  OH         2.6730  -42.0940  -51.8100 O.3   116  TYR116     -0.2866
     13  N          5.5200  -39.9820  -60.6200 N.3   119  MET119     -0.1230
     14  CA         4.0770  -39.8850  -60.7510 C.3   119  MET119      0.1702
     15  C          3.6360  -38.5230  -61.2580 C.2   119  MET119      0.2592
     16  O          2.8970  -38.4230  -62.2370 O.2   119  MET119     -0.2718
     17  CB         3.4300  -40.1470  -59.4240 C.3   119  MET119      0.0401
     18  CG         2.7140  -41.4610  -59.3730 C.3   119  MET119      0.0596
     19  SD         2.8010  -42.2000  -57.7580 S.3   119  MET119     -0.1393
     20  CE         2.6740  -43.9260  -58.2580 C.3   119  MET119      0.0692
     21  N          4.1150  -37.4810  -60.5970 N.am  120  GLY120     -0.1957
     22  CA         3.8220  -36.1140  -60.9940 C.3   120  GLY120      0.1869
     23  C          4.2270  -35.8350  -62.4290 C.2   120  GLY120      0.2309
     24  O          3.4740  -35.1820  -63.1700 O.2   120  GLY120     -0.2863
     25  N          2.3310  -38.0660  -65.1100 N.3   123  TRP123     -0.1241
     26  CA         0.9880  -37.5160  -65.2230 C.3   123  TRP123      0.1605
     27  C          0.9540  -36.2540  -66.0710 C.2   123  TRP123      0.2264
     28  O          0.2620  -36.2010  -67.0720 O.2   123  TRP123     -0.2867
     29  CB         0.3790  -37.2030  -63.8840 C.3   123  TRP123      0.0550
     30  CG        -0.9070  -36.6130  -64.0730 C.ar  123  TRP123      0.0003
     31  CD1       -1.9670  -37.2000  -64.6550 C.ar  123  TRP123      0.0946
     32  CD2       -1.2980  -35.2520  -63.7990 C.ar  123  TRP123      0.0152
     33  NE1       -3.0090  -36.3330  -64.7300 N.ar  123  TRP123     -0.2442
     34  CE2       -2.6360  -35.1230  -64.2180 C.ar  123  TRP123      0.0810
     35  CE3       -0.6580  -34.1460  -63.2270 C.ar  123  TRP123      0.0012
     36  CZ2       -3.3670  -33.9300  -64.0790 C.ar  123  TRP123      0.0191
     37  CZ3       -1.3900  -32.9530  -63.0800 C.ar  123  TRP123      0.0001
     38  CH2       -2.7340  -32.8640  -63.5100 C.ar  123  TRP123      0.0015
     39  N         -0.4940  -35.4200  -69.7000 N.3   127  GLU127     -0.1245
     40  CA        -1.6720  -34.6090  -69.8420 C.3   127  GLU127      0.1567
     41  C         -1.4800  -33.5280  -70.9050 C.2   127  GLU127      0.2260
     42  O         -2.3570  -33.3040  -71.7340 O.2   127  GLU127     -0.2867
     43  CB        -2.0220  -33.9500  -68.5190 C.3   127  GLU127      0.0388
     44  CG        -3.4340  -33.3460  -68.4810 C.3   127  GLU127      0.1160
     45  CD        -4.5190  -34.3530  -68.0840 C.2   127  GLU127      0.3649
     46  OE1       -4.2860  -35.5910  -68.1630 O.co2 127  GLU127     -0.2457
     47  OE2       -5.6040  -33.9000  -67.6940 O.co2 127  GLU127     -0.2457
     48  N          2.0750  -41.4590  -70.1730 N.3   135  TYR135     -0.1227
     49  CA         0.7350  -41.3030  -69.7590 C.3   135  TYR135      0.1736
     50  C          0.5980  -41.9820  -68.3870 C.2   135  TYR135      0.2595
     51  O          1.0170  -43.0730  -68.2200 O.2   135  TYR135     -0.2718
     52  CB        -0.1980  -41.9750  -70.8310 C.3   135  TYR135      0.0548
     53  CG        -1.6330  -42.0120  -70.4260 C.ar  135  TYR135     -0.0200
     54  CD1       -2.3820  -40.8300  -70.3400 C.ar  135  TYR135     -0.0009
     55  CD2       -2.2360  -43.2000  -70.0610 C.ar  135  TYR135     -0.0009
     56  CE1       -3.6970  -40.8410  -69.9250 C.ar  135  TYR135      0.0417
     57  CE2       -3.5610  -43.2310  -69.6820 C.ar  135  TYR135      0.0417
     58  CZ        -4.2840  -42.0380  -69.5910 C.ar  135  TYR135      0.1957
     59  OH        -5.5930  -42.0590  -69.1690 O.3   135  TYR135     -0.2866
     60  N         -0.0070  -41.3200  -67.4290 N.am  136  LEU136     -0.1980
     61  CA        -0.3440  -41.9530  -66.1780 C.3   136  LEU136      0.1596
     62  C         -1.8160  -42.4790  -66.1890 C.2   136  LEU136      0.2287
     63  O         -2.7330  -41.7210  -66.2240 O.2   136  LEU136     -0.2864
     64  CB        -0.1080  -40.9990  -64.9910 C.3   136  LEU136      0.0297
     65  CG        -0.1610  -41.7700  -63.6340 C.3   136  LEU136      0.0022
     66  CD1        0.8810  -42.8800  -63.5480 C.3   136  LEU136      0.0001
     67  CD2       -0.0420  -40.8460  -62.4610 C.3   136  LEU136      0.0001
     68  N         -5.3880  -43.8820  -65.1390 N.3   138  ARG138     -0.1245
     69  CA        -6.3340  -43.6060  -64.0350 C.3   138  ARG138      0.1563
     70  C         -6.2280  -44.5450  -62.8040 C.2   138  ARG138      0.2260
     71  O         -6.3280  -44.1030  -61.6750 O.2   138  ARG138     -0.2867
     72  CB        -7.7520  -43.6360  -64.5610 C.3   138  ARG138      0.0307
     73  CG        -8.0910  -42.4150  -65.3770 C.3   138  ARG138      0.0489
     74  CD        -9.3820  -42.6110  -66.1230 C.3   138  ARG138      0.2205
     75  NE        -9.8910  -41.3700  -66.6890 N.pl3 138  ARG138     -0.0865
     76  CZ       -10.9950  -41.2870  -67.4200 C.cat 138  ARG138      0.5346
     77  NH1      -11.6960  -42.3690  -67.6990 N.pl3 138  ARG138      0.1354
     78  NH2      -11.3770  -40.1420  -67.8790 N.pl3 138  ARG138      0.1354
     79  N         -3.3930  -43.3930  -60.7400 N.3   141  ILE141     -0.1245
     80  CA        -3.7320  -42.1510  -60.0110 C.3   141  ILE141      0.1561
     81  C         -4.4970  -42.5070  -58.7420 C.2   141  ILE141      0.2260
     82  O         -4.2050  -42.0160  -57.7020 O.2   141  ILE141     -0.2867
     83  CB        -4.5600  -41.2000  -60.8820 C.3   141  ILE141      0.0252
     84  CG1       -3.7480  -40.7900  -62.1100 C.3   141  ILE141      0.0019
     85  CG2       -4.9620  -39.9780  -60.0910 C.3   141  ILE141      0.0019
     86  CD1       -4.4290  -39.7870  -62.9960 C.3   141  ILE141      0.0001
     87  N         -2.1120  -44.2880  -56.1760 N.3   144  ALA144     -0.1231
     88  CA        -1.2330  -43.3140  -55.5780 C.3   144  ALA144      0.1694
     89  C         -1.9080  -42.3410  -54.6380 C.2   144  ALA144      0.2591
     90  O         -1.3050  -41.9160  -53.6950 O.2   144  ALA144     -0.2718
     91  CB        -0.5090  -42.5590  -56.6500 C.3   144  ALA144      0.0304
     92  N         -3.1470  -41.9630  -54.8880 N.am  145  LEU145     -0.1980
     93  CA        -3.8450  -41.1050  -53.9130 C.3   145  LEU145      0.1596
     94  C         -4.1250  -41.8320  -52.5950 C.2   145  LEU145      0.2287
     95  O         -3.9380  -41.2780  -51.5350 O.2   145  LEU145     -0.2864
     96  CB        -5.1380  -40.5490  -54.4750 C.3   145  LEU145      0.0297
     97  CG        -4.9850  -39.5780  -55.6500 C.3   145  LEU145      0.0022
     98  CD1       -6.3170  -39.4140  -56.3060 C.3   145  LEU145      0.0001
     99  CD2       -4.4290  -38.2280  -55.2310 C.3   145  LEU145      0.0001
    100  N         -0.7280  -42.0920  -50.6620 N.3   148  ILE148     -0.1245
    101  CA        -0.4330  -40.8050  -50.1110 C.3   148  ILE148      0.1561
    102  C         -1.2970  -40.5280  -48.8880 C.2   148  ILE148      0.2260
    103  O         -0.8010  -40.1540  -47.8260 O.2   148  ILE148     -0.2867
    104  CB        -0.6510  -39.7020  -51.1680 C.3   148  ILE148      0.0252
    105  CG1        0.4470  -39.7700  -52.2190 C.3   148  ILE148      0.0019
    106  CG2       -0.6280  -38.3220  -50.5390 C.3   148  ILE148      0.0019
    107  CD1        0.1710  -38.9310  -53.4580 C.3   148  ILE148      0.0001
    108  N          6.7190  -34.8700  -55.3420 N.3   169  LEU169     -0.1245
    109  CA         5.6230  -34.6530  -56.2820 C.3   169  LEU169      0.1561
    110  C          5.7570  -33.2670  -57.0090 C.2   169  LEU169      0.2260
    111  O          5.6760  -33.1830  -58.2480 O.2   169  LEU169     -0.2867
    112  CB         4.2780  -34.7350  -55.5090 C.3   169  LEU169      0.0270
    113  CG         3.0030  -34.5110  -56.3120 C.3   169  LEU169      0.0019
    114  CD1        2.9720  -35.4280  -57.5500 C.3   169  LEU169      0.0001
    115  CD2        1.7730  -34.7240  -55.4460 C.3   169  LEU169      0.0001
    116  N          6.1140  -32.5350  -61.0500 N.3   173  LEU173     -0.1245
    117  CA         5.2050  -31.5750  -61.7670 C.3   173  LEU173      0.1561
    118  C          5.9760  -30.4050  -62.4700 C.2   173  LEU173      0.2260
    119  O          5.6970  -30.0840  -63.6380 O.2   173  LEU173     -0.2867
    120  CB         4.1660  -30.9830  -60.8060 C.3   173  LEU173      0.0270
    121  CG         3.2080  -32.0110  -60.1510 C.3   173  LEU173      0.0019
    122  CD1        2.3550  -31.3730  -59.0440 C.3   173  LEU173      0.0001
    123  CD2        2.3360  -32.7170  -61.1920 C.3   173  LEU173      0.0001
@<TRIPOS>BOND
     1    42    41    2
     2    41    40    1
     3    52    53    1
     4    52    49    1
     5    53    54   ar
     6    53    55   ar
     7    54    56   ar
     8    48    49    1
     9    55    57   ar
    10    56    58   ar
    11    40    39    1
    12    40    43    1
    13    49    50    1
    14    57    58   ar
    15    58    59    1
    16    43    44    1
    17    44    45    1
    18    50    51    2
    19    50    60   am
    20    46    45   ar
    21    45    47   ar
    22    78    76    1
    23    77    76    1
    24    60    61    1
    25    76    75    2
    26    28    27    2
    27    75    74    1
    28    63    62    2
    29    62    61    1
    30    61    64    1
    31    74    73    1
    32    27    26    1
    33    73    72    1
    34    26    25    1
    35    26    29    1
    36    68    69    1
    37    64    65    1
    38    33    31   ar
    39    33    34   ar
    40    31    30   ar
    41    72    69    1
    42    34    36   ar
    43    34    32   ar
    44    36    38   ar
    45    30    29    1
    46    30    32   ar
    47    69    70    1
    48    32    35   ar
    49   119   118    2
    50    65    66    1
    51    65    67    1
    52    38    37   ar
    53    35    37   ar
    54    24    23    2
    55    86    84    1
    56    70    71    2
    57   118   117    1
    58    23    22    1
    59    16    15    2
    60    84    83    1
    61   117   116    1
    62   117   120    1
    63    15    14    1
    64    15    21   am
    65   123   121    1
    66    22    21    1
    67    83    85    1
    68    83    80    1
    69   120   121    1
    70    14    13    1
    71    14    17    1
    72    79    80    1
    73   121   122    1
    74    80    81    1
    75    17    18    1
    76    18    19    1
    77    81    82    2
    78    20    19    1
    79   111   110    2
    80     4     3    2
    81   114   113    1
    82     3     2    1
    83   110   109    1
    84    91    88    1
    85     2     1    1
    86     2     5    1
    87   113   112    1
    88   113   115    1
    89    98    97    1
    90   109   112    1
    91   109   108    1
    92    87    88    1
    93    97    99    1
    94    97    96    1
    95    88    89    1
    96     5     6    1
    97    92    89   am
    98    92    93    1
    99    89    90    2
   100     7     6   ar
   101     7     9   ar
   102    96    93    1
   103     6     8   ar
   104    93    94    1
   105     9    11   ar
   106   107   105    1
   107     8    10   ar
   108    94    95    2
   109    11    10   ar
   110    11    12    1
   111   105   104    1
   112   104   106    1
   113   104   101    1
   114   100   101    1
   115   101   102    1
   116   102   103    2
