@<TRIPOS>MOLECULE
tmp/4qnzA00.pdb
 201 196 0 0 0
SMALL
GASTEIGER

@<TRIPOS>ATOM
      1  N         21.4030  -53.4530  -44.3000 N.3    22  MET22      -0.1245
      2  CA        20.6870  -53.0110  -43.0940 C.3    22  MET22       0.1570
      3  C         20.2290  -54.1780  -42.2230 C.2    22  MET22       0.2261
      4  O         20.0390  -54.0150  -41.0290 O.2    22  MET22      -0.2867
      5  CB        19.4770  -52.1600  -43.4660 C.3    22  MET22       0.0387
      6  CG        19.8370  -50.8190  -44.0810 C.3    22  MET22       0.0595
      7  SD        18.4380  -49.8050  -44.6800 S.3    22  MET22      -0.1393
      8  CE        17.8730  -49.0720  -43.1770 C.3    22  MET22       0.0692
      9  N         20.9250  -48.4790  -38.0810 N.3    28  GLN28      -0.1245
     10  CA        21.6990  -47.3060  -37.6950 C.3    28  GLN28       0.1566
     11  C         23.1120  -47.2210  -38.3390 C.2    28  GLN28       0.2260
     12  O         23.4950  -46.1640  -38.8320 O.2    28  GLN28      -0.2867
     13  CB        21.7710  -47.2080  -36.1740 C.3    28  GLN28       0.0367
     14  CG        20.6040  -46.4010  -35.6040 C.3    28  GLN28       0.0905
     15  CD        20.0910  -46.8990  -34.2780 C.2    28  GLN28       0.2608
     16  OE1       20.5370  -47.9240  -33.7500 O.2    28  GLN28      -0.2717
     17  NE2       19.1380  -46.1790  -33.7320 N.am   28  GLN28      -0.0878
     18  N         22.4910  -45.9770  -41.7490 N.3    31  MET31      -0.1245
     19  CA        22.0340  -44.5950  -41.7340 C.3    31  MET31       0.1570
     20  C         23.1680  -43.6120  -41.5360 C.2    31  MET31       0.2261
     21  O         23.1850  -42.5710  -42.1400 O.2    31  MET31      -0.2867
     22  CB        21.0190  -44.3720  -40.6290 C.3    31  MET31       0.0387
     23  CG        19.6180  -44.8090  -40.9360 C.3    31  MET31       0.0595
     24  SD        18.4780  -44.6100  -39.5650 S.3    31  MET31      -0.1393
     25  CE        18.3790  -46.2840  -39.0520 C.3    31  MET31       0.0692
     26  N         17.4990  -46.2180  -48.7620 N.3    55  MET55      -0.1182
     27  CA        17.3130  -46.8830  -47.4690 C.3    55  MET55       0.1917
     28  C         15.8520  -47.1960  -47.1800 C.2    55  MET55       0.2635
     29  O         15.0220  -46.3340  -47.3130 O.2    55  MET55      -0.2714
     30  CB        17.8400  -45.9970  -46.3240 C.2    55  MET55       0.0083
     31  CG        19.3460  -45.9290  -46.1540 C.2    55  MET55       0.0282
     32  SD        19.9510  -44.9120  -44.8040 S.3    55  MET55      -0.1125
     33  CE        19.2740  -43.3010  -45.0930 C.3    55  MET55       0.0742
     34  N         15.5770  -48.4140  -46.7140 N.am   56  HIS56      -0.1959
     35  CA        14.2500  -48.8570  -46.2660 C.3    56  HIS56       0.1787
     36  C         14.3570  -49.7460  -45.0380 C.2    56  HIS56       0.2620
     37  O         15.2530  -50.5330  -44.9670 O.2    56  HIS56      -0.2715
     38  CB        13.5380  -49.6310  -47.3770 C.3    56  HIS56       0.0785
     39  CG        13.3060  -48.8380  -48.6130 C.ar   56  HIS56       0.0821
     40  ND1       14.2170  -48.7660  -49.6410 N.ar   56  HIS56      -0.2267
     41  CD2       12.2720  -48.0570  -48.9750 C.ar   56  HIS56       0.1154
     42  CE1       13.7470  -47.9820  -50.5830 C.ar   56  HIS56       0.1986
     43  NE2       12.5740  -47.5300  -50.1960 N.ar   56  HIS56      -0.2212
     44  N         13.4000  -49.6680  -44.1070 N.am   57  ILE57      -0.1963
     45  CA        13.3970  -50.5220  -42.8850 C.3    57  ILE57       0.1727
     46  C         12.2410  -51.5160  -42.7210 C.2    57  ILE57       0.2616
     47  O         12.2270  -52.3520  -41.8300 O.2    57  ILE57      -0.2715
     48  CB        13.4810  -49.6680  -41.6350 C.3    57  ILE57       0.0290
     49  CG1       12.4010  -48.6350  -41.6190 C.3    57  ILE57       0.0022
     50  CG2       14.7870  -48.9510  -41.6070 C.3    57  ILE57       0.0023
     51  CD1       12.1660  -48.0880  -40.2470 C.3    57  ILE57       0.0001
     52  N         11.4060  -51.4810  -43.7240 N.am   58  SER58      -0.1950
     53  CA        10.0190  -51.9030  -43.9530 C.3    58  SER58       0.1924
     54  C          9.9110  -52.5440  -45.3120 C.2    58  SER58       0.2314
     55  O         10.4190  -52.0320  -46.2870 O.2    58  SER58      -0.2863
     56  CB         9.1040  -50.7270  -43.8860 C.3    58  SER58       0.2116
     57  OG         7.8050  -51.0660  -44.2740 O.3    58  SER58      -0.2180
     58  N          7.2900  -50.9940  -47.7500 N.3    61  HIS61      -0.1241
     59  CA         7.5800  -49.7700  -48.4530 C.3    61  HIS61       0.1621
     60  C          8.5900  -49.9510  -49.5450 C.2    61  HIS61       0.2264
     61  O          8.4400  -49.3920  -50.6060 O.2    61  HIS61      -0.2867
     62  CB         7.9570  -48.6680  -47.5010 C.3    61  HIS61       0.0745
     63  CG         6.7780  -47.9810  -46.9160 C.ar   61  HIS61       0.0817
     64  ND1        6.3150  -48.2490  -45.6480 N.ar   61  HIS61      -0.2268
     65  CD2        5.9240  -47.0880  -47.4460 C.ar   61  HIS61       0.1154
     66  CE1        5.2380  -47.5310  -45.4170 C.ar   61  HIS61       0.1986
     67  NE2        4.9790  -46.8190  -46.4920 N.ar   61  HIS61      -0.2212
     68  N          7.6860  -49.0730  -53.3340 N.3    65  ASN65      -0.1240
     69  CA         8.4870  -48.0700  -53.9630 C.3    65  ASN65       0.1653
     70  C          9.1940  -48.6330  -55.1620 C.2    65  ASN65       0.2266
     71  O          9.2760  -47.9860  -56.1710 O.2    65  ASN65      -0.2867
     72  CB         9.4880  -47.4980  -52.9920 C.3    65  ASN65       0.1155
     73  CG         8.8520  -46.6570  -51.9300 C.2    65  ASN65       0.2627
     74  OD1        7.7370  -46.2820  -52.0280 O.2    65  ASN65      -0.2716
     75  ND2        9.5830  -46.3620  -50.9250 N.am   65  ASN65      -0.0877
     76  N         12.5250  -32.1860  -46.3760 N.3   100  GLN100     -0.1245
     77  CA        12.2550  -33.0690  -45.2700 C.3   100  GLN100      0.1566
     78  C         13.1350  -32.7520  -44.0760 C.2   100  GLN100      0.2260
     79  O         12.6630  -32.6670  -42.9850 O.2   100  GLN100     -0.2867
     80  CB        12.4550  -34.5080  -45.7090 C.3   100  GLN100      0.0367
     81  CG        12.2520  -35.5460  -44.6320 C.3   100  GLN100      0.0905
     82  CD        10.8530  -35.5870  -44.1260 C.2   100  GLN100      0.2608
     83  OE1        9.9580  -35.1250  -44.7610 O.2   100  GLN100     -0.2717
     84  NE2       10.6700  -36.1620  -42.9880 N.am  100  GLN100     -0.0878
     85  N         12.1170  -31.5530  -40.2660 N.3   104  SER104     -0.1217
     86  CA        12.0780  -32.7300  -39.3650 C.3   104  SER104      0.1889
     87  C         13.4230  -33.3730  -39.0860 C.2   104  SER104      0.2288
     88  O         13.4850  -34.3850  -38.4270 O.2   104  SER104     -0.2866
     89  CB        11.1420  -33.7860  -39.9310 C.3   104  SER104      0.2089
     90  OG         9.9740  -33.1790  -40.4660 O.3   104  SER104     -0.2183
     91  N         16.9650  -37.7350  -40.2210 N.3   107  TRP107     -0.1227
     92  CA        16.8200  -39.1600  -40.0900 C.3   107  TRP107      0.1737
     93  C         15.6400  -39.7040  -40.8730 C.2   107  TRP107      0.2595
     94  O         14.5730  -39.8570  -40.3610 O.2   107  TRP107     -0.2718
     95  CB        16.7880  -39.5490  -38.6270 C.3   107  TRP107      0.0564
     96  CG        18.0170  -39.0960  -37.9080 C.ar  107  TRP107      0.0003
     97  CD1       18.0760  -38.2130  -36.8820 C.ar  107  TRP107      0.0946
     98  CD2       19.3730  -39.4530  -38.2050 C.ar  107  TRP107      0.0152
     99  NE1       19.3630  -38.0070  -36.5150 N.ar  107  TRP107     -0.2442
    100  CE2       20.1850  -38.7580  -37.3070 C.ar  107  TRP107      0.0810
    101  CE3       19.9710  -40.2900  -39.1410 C.ar  107  TRP107      0.0012
    102  CZ2       21.5620  -38.8900  -37.2980 C.ar  107  TRP107      0.0191
    103  CZ3       21.3310  -40.4080  -39.1450 C.ar  107  TRP107      0.0001
    104  CH2       22.1150  -39.7250  -38.2270 C.ar  107  TRP107      0.0015
    105  N         15.8770  -39.9680  -42.1420 N.am  108  PHE108     -0.1962
    106  CA        14.8420  -40.3320  -43.0730 C.3   108  PHE108      0.1771
    107  C         15.4190  -41.0160  -44.2970 C.2   108  PHE108      0.2620
    108  O         16.6000  -41.0600  -44.4700 O.2   108  PHE108     -0.2715
    109  CB        14.0420  -39.1050  -43.4550 C.3   108  PHE108      0.0574
    110  CG        14.7680  -38.1630  -44.3380 C.ar  108  PHE108     -0.0200
    111  CD1       14.8080  -38.3780  -45.6830 C.ar  108  PHE108     -0.0042
    112  CD2       15.3980  -37.0350  -43.8190 C.ar  108  PHE108     -0.0042
    113  CE1       15.4770  -37.5110  -46.5040 C.ar  108  PHE108     -0.0003
    114  CE2       16.0620  -36.1660  -44.6280 C.ar  108  PHE108     -0.0003
    115  CZ        16.1040  -36.3970  -45.9760 C.ar  108  PHE108     -0.0000
    116  N         14.5710  -41.5900  -45.1200 N.am  109  GLY109     -0.1940
    117  CA        15.0250  -42.2420  -46.3190 C.3   109  GLY109      0.2014
    118  C         13.9090  -42.9530  -46.9970 C.2   109  GLY109      0.2639
    119  O         12.8430  -43.0100  -46.4750 O.2   109  GLY109     -0.2714
    120  N         14.1830  -43.5000  -48.1710 N.am  110  GLY110     -0.1954
    121  CA        13.1980  -44.1660  -48.9680 C.3   110  GLY110      0.1869
    122  C         13.1200  -43.6190  -50.3640 C.2   110  GLY110      0.2309
    123  O         13.2760  -42.4540  -50.5610 O.2   110  GLY110     -0.2863
    124  N         10.5840  -43.1790  -52.1070 N.3   112  SER112     -0.1202
    125  CA         9.2520  -42.6700  -52.3250 C.3   112  SER112      0.2020
    126  C          9.1440  -41.2290  -52.8170 C.2   112  SER112      0.2619
    127  O          8.1930  -40.8810  -53.4680 O.2   112  SER112     -0.2717
    128  CB         8.4200  -42.8600  -51.0770 C.3   112  SER112      0.2103
    129  OG         8.8870  -42.0310  -50.0670 O.3   112  SER112     -0.2182
    130  N         10.1060  -40.3940  -52.4960 N.am  113  GLY113     -0.1956
    131  CA        10.1020  -39.0250  -52.9860 C.3   113  GLY113      0.1869
    132  C         10.3510  -39.0150  -54.4730 C.2   113  GLY113      0.2309
    133  O          9.7570  -38.2620  -55.1990 O.2   113  GLY113     -0.2863
    134  N          7.0590  -40.3320  -56.1540 N.3   116  TYR116     -0.1241
    135  CA         6.0920  -39.2560  -56.3130 C.3   116  TYR116      0.1605
    136  C          6.4930  -38.2670  -57.3960 C.2   116  TYR116      0.2264
    137  O          5.6530  -37.8640  -58.1790 O.2   116  TYR116     -0.2867
    138  CB         5.7960  -38.5870  -54.9960 C.3   116  TYR116      0.0534
    139  CG         4.9590  -39.4720  -54.1250 C.ar  116  TYR116     -0.0201
    140  CD1        3.7980  -40.0610  -54.6260 C.ar  116  TYR116     -0.0009
    141  CD2        5.3620  -39.8250  -52.8570 C.ar  116  TYR116     -0.0009
    142  CE1        3.0470  -40.9390  -53.8580 C.ar  116  TYR116      0.0417
    143  CE2        4.6110  -40.6980  -52.0760 C.ar  116  TYR116      0.0417
    144  CZ         3.4580  -41.2510  -52.5820 C.ar  116  TYR116      0.1957
    145  OH         2.6730  -42.0940  -51.8100 O.3   116  TYR116     -0.2866
    146  N         -2.4800  -44.2650  -51.2930 N.3   147  TRP147     -0.1241
    147  CA        -1.1850  -44.4790  -50.6170 C.3   147  TRP147      0.1605
    148  C         -0.7250  -43.1830  -49.9300 C.2   147  TRP147      0.2264
    149  O         -0.4840  -43.1690  -48.7570 O.2   147  TRP147     -0.2867
    150  CB        -0.1550  -44.9710  -51.6060 C.3   147  TRP147      0.0550
    151  CG         0.9100  -45.8400  -51.0060 C.ar  147  TRP147      0.0003
    152  CD1        2.2260  -45.5480  -50.9110 C.ar  147  TRP147      0.0946
    153  CD2        0.7580  -47.1810  -50.5030 C.ar  147  TRP147      0.0152
    154  NE1        2.9000  -46.5910  -50.3270 N.ar  147  TRP147     -0.2442
    155  CE2        2.0350  -47.6060  -50.0720 C.ar  147  TRP147      0.0810
    156  CE3       -0.3300  -48.0520  -50.3640 C.ar  147  TRP147      0.0012
    157  CZ2        2.2710  -48.8790  -49.5240 C.ar  147  TRP147      0.0191
    158  CZ3       -0.1120  -49.3230  -49.7940 C.ar  147  TRP147      0.0001
    159  CH2        1.1890  -49.7270  -49.3970 C.ar  147  TRP147      0.0015
    160  N          3.8300  -46.5290  -39.2580 N.3   158  MET158     -0.1230
    161  CA         5.1660  -46.0410  -39.0610 C.3   158  MET158      0.1702
    162  C          5.3330  -44.5780  -39.3300 C.2   158  MET158      0.2593
    163  O          4.4560  -43.9300  -39.8060 O.2   158  MET158     -0.2718
    164  CB         6.0590  -46.7780  -40.0140 C.3   158  MET158      0.0401
    165  CG         5.5230  -46.7570  -41.4080 C.3   158  MET158      0.0596
    166  SD         5.8100  -48.3700  -42.0500 S.3   158  MET158     -0.1393
    167  CE         4.1710  -48.9140  -42.4280 C.3   158  MET158      0.0692
    168  N          6.5180  -44.0790  -39.0490 N.am  159  SER159     -0.1938
    169  CA         6.8450  -42.6870  -39.2540 C.3   159  SER159      0.2055
    170  C          7.0920  -42.3800  -40.7080 C.2   159  SER159      0.2643
    171  O          7.7910  -43.0780  -41.3910 O.2   159  SER159     -0.2714
    172  CB         8.0380  -42.3080  -38.4160 C.3   159  SER159      0.2130
    173  OG         8.0910  -40.9280  -38.2930 O.3   159  SER159     -0.2179
    174  N          6.4760  -41.3110  -41.1580 N.am  160  MET160     -0.1962
    175  CA         6.3360  -41.0290  -42.5500 C.3   160  MET160      0.1736
    176  C          6.9830  -39.7440  -42.8890 C.2   160  MET160      0.2616
    177  O          6.7840  -38.7870  -42.2300 O.2   160  MET160     -0.2715
    178  CB         4.8610  -40.9080  -42.9070 C.3   160  MET160      0.0427
    179  CG         4.0770  -42.1940  -42.8050 C.3   160  MET160      0.0599
    180  SD         4.5490  -43.3310  -44.0470 S.3   160  MET160     -0.1393
    181  CE         5.2780  -44.5500  -43.0590 C.3   160  MET160      0.0692
    182  N          7.7450  -39.7280  -43.9610 N.am  161  ALA161     -0.1977
    183  CA         8.4090  -38.5230  -44.3990 C.3   161  ALA161      0.1597
    184  C          7.5310  -37.7560  -45.3630 C.2   161  ALA161      0.2287
    185  O          7.7510  -37.7780  -46.5600 O.2   161  ALA161     -0.2864
    186  CB         9.7240  -38.8770  -45.0470 C.3   161  ALA161      0.0319
    187  N          9.1660  -35.0450  -47.7430 N.3   164  ALA164     -0.1231
    188  CA         9.8750  -35.5390  -48.8890 C.3   164  ALA164      0.1694
    189  C          8.9370  -35.9810  -50.0030 C.2   164  ALA164      0.2592
    190  O          9.2140  -35.7920  -51.1730 O.2   164  ALA164     -0.2718
    191  CB        10.7870  -36.6530  -48.4790 C.3   164  ALA164      0.0304
    192  N          7.8100  -36.5450  -49.6250 N.am  165  HIS165     -0.1976
    193  CA         6.8360  -37.0420  -50.5790 C.3   165  HIS165      0.1656
    194  C          6.1620  -35.9410  -51.3380 C.2   165  HIS165      0.2291
    195  O          6.0730  -35.9740  -52.5270 O.2   165  HIS165     -0.2864
    196  CB         5.7600  -37.7440  -49.8520 C.3   165  HIS165      0.0771
    197  CG         6.1350  -39.0750  -49.3110 C.ar  165  HIS165      0.0820
    198  ND1        5.4650  -39.6080  -48.2350 N.ar  165  HIS165     -0.2267
    199  CD2        7.0660  -39.9940  -49.6690 C.ar  165  HIS165      0.1154
    200  CE1        5.9580  -40.7840  -47.9460 C.ar  165  HIS165      0.1986
    201  NE2        6.9250  -41.0240  -48.7860 N.ar  165  HIS165     -0.2212
@<TRIPOS>BOND
     1   137   136    2
     2   136   135    1
     3   135   134    1
     4   135   138    1
     5    71    70    2
     6   133   132    2
     7    70    69    1
     8   138   139    1
     9   140   139   ar
    10   140   142   ar
    11   132   131    1
    12   139   141   ar
    13    69    68    1
    14    69    72    1
    15   142   144   ar
    16   127   126    2
    17    72    73    1
    18   131   130    1
    19   141   143   ar
    20   126   130   am
    21   126   125    1
    22   144   143   ar
    23   144   145    1
    24   195   194    2
    25   125   124    1
    26   125   128    1
    27    74    73    2
    28    73    75   am
    29   150   151    1
    30   150   147    1
    31   194   193    1
    32   146   147    1
    33   190   189    2
    34   128   129    1
    35   151   152   ar
    36   151   153   ar
    37   152   154   ar
    38   147   148    1
    39    61    60    2
    40    42    43   ar
    41    42    40   ar
    42   193   196    1
    43   193   192    1
    44   123   122    2
    45   153   156   ar
    46   153   155   ar
    47   156   158   ar
    48   122   121    1
    49   154   155   ar
    50    43    41   ar
    51   155   157   ar
    52   189   192   am
    53   189   188    1
    54   148   149    2
    55   196   197    1
    56   158   159   ar
    57   199   197   ar
    58   199   201   ar
    59    40    39   ar
    60    60    59    1
    61   157   159   ar
    62   197   198   ar
    63    41    39   ar
    64   121   120    1
    65   188   191    1
    66   188   187    1
    67   201   200   ar
    68    26    27    1
    69    39    38    1
    70    59    58    1
    71    59    62    1
    72   198   200   ar
    73   120   118   am
    74    62    63    1
    75    27    28    1
    76    27    30    1
    77    65    63   ar
    78    65    67   ar
    79    38    35    1
    80    29    28    2
    81    28    34   am
    82   118   119    2
    83   118   117    1
    84    63    64   ar
    85    34    35    1
    86   185   184    2
    87   113   115   ar
    88   113   111   ar
    89    67    66   ar
    90    76    77    1
    91    30    31    2
    92   117   116    1
    93    55    54    2
    94    35    36    1
    95    31    32    1
    96   115   114   ar
    97    80    77    1
    98    80    81    1
    99   111   110   ar
   100    64    66   ar
   101   184   183    1
   102    54    53    1
   103    77    78    1
   104   116   107   am
   105    33    32    1
   106   186   183    1
   107    36    37    2
   108    36    44   am
   109    83    82    2
   110     7     6    1
   111     7     8    1
   112    81    82    1
   113   114   112   ar
   114   108   107    2
   115   183   182    1
   116   110   112   ar
   117   110   109    1
   118     1     2    1
   119   107   106    1
   120    57    56    1
   121    82    84   am
   122    44    45    1
   123     6     5    1
   124    78    79    2
   125   180   181    1
   126   180   179    1
   127   182   176   am
   128    53    56    1
   129    53    52    1
   130    52    46   am
   131     5     2    1
   132   109   106    1
   133     2     3    1
   134   106   105    1
   135   178   179    1
   136   178   175    1
   137   176   175    1
   138   176   177    2
   139    45    46    1
   140    45    48    1
   141    46    47    2
   142   175   174    1
   143   167   166    1
   144     3     4    2
   145   105    93   am
   146    21    20    2
   147   166   165    1
   148    18    19    1
   149    19    20    1
   150    19    22    1
   151    48    49    1
   152    48    50    1
   153    49    51    1
   154   165   164    1
   155   171   170    2
   156   174   170   am
   157    23    22    1
   158    23    24    1
   159    93    94    2
   160    93    92    1
   161   170   169    1
   162    90    89    1
   163    85    86    1
   164    91    92    1
   165    92    95    1
   166   164   161    1
   167    89    86    1
   168   163   162    2
   169    24    25    1
   170    86    87    1
   171   162   161    1
   172   162   168   am
   173   160   161    1
   174   169   168    1
   175   169   172    1
   176   103   101   ar
   177   103   104   ar
   178   101    98   ar
   179    87    88    2
   180    12    11    2
   181    95    96    1
   182   172   173    1
   183    11    10    1
   184   104   102   ar
   185    98    96   ar
   186    98   100   ar
   187     9    10    1
   188    96    97   ar
   189    10    13    1
   190   100   102   ar
   191   100    99   ar
   192    97    99   ar
   193    13    14    1
   194    14    15    1
   195    15    16    2
   196    15    17   am
