@<TRIPOS>MOLECULE
tmp/4qo2A00.pdb
 190 187 0 0 0
SMALL
GASTEIGER

@<TRIPOS>ATOM
      1  N        -78.1230   51.1910   35.2560 N.3    27  ASP27      -0.1225
      2  CA       -78.5060   49.9760   35.9700 C.3    27  ASP27       0.1805
      3  C        -77.5520   48.8220   35.6130 C.2    27  ASP27       0.2597
      4  O        -77.2440   47.9820   36.4440 O.2    27  ASP27      -0.2718
      5  CB       -79.9380   49.5700   35.6060 C.3    27  ASP27       0.1424
      6  CG       -80.9790   50.4550   36.2400 C.2    27  ASP27       0.3668
      7  OD1      -80.6280   51.3570   37.0580 O.co2  27  ASP27      -0.2456
      8  OD2      -82.1690   50.2400   35.9400 O.co2  27  ASP27      -0.2456
      9  N        -77.1510   48.7680   34.3550 N.am   28  GLN28      -0.1979
     10  CA       -76.5180   47.5810   33.8040 C.3    28  GLN28       0.1601
     11  C        -75.0840   47.4520   34.3370 C.2    28  GLN28       0.2287
     12  O        -74.6150   46.3530   34.6300 O.2    28  GLN28      -0.2864
     13  CB       -76.5010   47.6560   32.2700 C.3    28  GLN28       0.0394
     14  CG       -77.8830   47.8110   31.6340 C.3    28  GLN28       0.0908
     15  CD       -78.5140   49.1940   31.8730 C.2    28  GLN28       0.2608
     16  OE1      -77.8340   50.2350   31.8220 O.2    28  GLN28      -0.2717
     17  NE2      -79.8140   49.2040   32.1450 N.am   28  GLN28      -0.0878
     18  N        -75.4660   46.1280   37.8890 N.3    31  MET31      -0.1245
     19  CA       -75.8550   44.7020   37.8210 C.3    31  MET31       0.1570
     20  C        -74.6510   43.7680   37.5380 C.2    31  MET31       0.2261
     21  O        -74.5520   42.6880   38.1060 O.2    31  MET31      -0.2867
     22  CB       -76.9300   44.4980   36.7350 C.3    31  MET31       0.0387
     23  CG       -78.3320   44.8940   37.1720 C.3    31  MET31       0.0595
     24  SD       -79.1370   43.6220   38.1890 S.3    31  MET31      -0.1393
     25  CE       -79.0140   42.2300   37.0960 C.3    31  MET31       0.0692
     26  N        -82.2900   48.4520   43.0280 N.3    56  HIS56      -0.1226
     27  CA       -83.6230   48.7440   42.6210 C.3    56  HIS56       0.1752
     28  C        -83.6470   49.5310   41.3290 C.2    56  HIS56       0.2596
     29  O        -82.7680   50.3810   41.0770 O.2    56  HIS56      -0.2718
     30  CB       -84.3630   49.5210   43.7290 C.3    56  HIS56       0.0759
     31  CG       -84.4490   48.7790   45.0180 C.ar   56  HIS56       0.0818
     32  ND1      -85.4870   47.9220   45.3170 N.ar   56  HIS56      -0.2268
     33  CD2      -83.5850   48.6950   46.0480 C.ar   56  HIS56       0.1154
     34  CE1      -85.2530   47.3450   46.4830 C.ar   56  HIS56       0.1986
     35  NE2      -84.0990   47.7890   46.9370 N.ar   56  HIS56      -0.2212
     36  N        -84.7060   49.3190   40.5600 N.am   57  PHE57      -0.1976
     37  CA       -84.7780   49.7800   39.1660 C.3    57  PHE57       0.1639
     38  C        -85.8070   50.8830   38.9940 C.2    57  PHE57       0.2290
     39  O        -85.9120   51.4840   37.9190 O.2    57  PHE57      -0.2864
     40  CB       -85.0880   48.5870   38.2430 C.3    57  PHE57       0.0560
     41  CG       -84.1720   47.4120   38.4760 C.ar   57  PHE57      -0.0200
     42  CD1      -82.8280   47.4770   38.0880 C.ar   57  PHE57      -0.0042
     43  CD2      -84.5840   46.3430   39.2380 C.ar   57  PHE57      -0.0042
     44  CE1      -81.9390   46.4580   38.4180 C.ar   57  PHE57      -0.0003
     45  CE2      -83.7080   45.3130   39.5470 C.ar   57  PHE57      -0.0003
     46  CZ       -82.3810   45.3750   39.1350 C.ar   57  PHE57      -0.0000
     47  N        -90.5170   51.0710   43.7590 N.3    61  HIS61      -0.1241
     48  CA       -90.2050   49.8400   44.4800 C.3    61  HIS61       0.1621
     49  C        -89.0670   49.9890   45.5180 C.2    61  HIS61       0.2264
     50  O        -89.1530   49.4010   46.5970 O.2    61  HIS61      -0.2867
     51  CB       -89.9410   48.6870   43.5190 C.3    61  HIS61       0.0745
     52  CG       -91.1730   48.2050   42.8230 C.ar   61  HIS61       0.0817
     53  ND1      -92.1440   47.4730   43.4610 N.ar   61  HIS61      -0.2268
     54  CD2      -91.6280   48.4180   41.5650 C.ar   61  HIS61       0.1154
     55  CE1      -93.1400   47.2420   42.6280 C.ar   61  HIS61       0.1986
     56  NE2      -92.8500   47.8040   41.4670 N.ar   61  HIS61      -0.2212
     57  N        -90.1860   49.0720   49.1760 N.3    65  ASN65      -0.1240
     58  CA       -89.3940   48.0290   49.8100 C.3    65  ASN65       0.1653
     59  C        -88.7390   48.5530   51.0800 C.2    65  ASN65       0.2266
     60  O        -88.7340   47.8810   52.1170 O.2    65  ASN65      -0.2867
     61  CB       -88.3250   47.4690   48.8530 C.3    65  ASN65       0.1155
     62  CG       -88.9130   46.5960   47.7700 C.2    65  ASN65       0.2627
     63  OD1      -90.0340   46.1650   47.8650 O.2    65  ASN65      -0.2716
     64  ND2      -88.1390   46.3110   46.7660 N.am   65  ASN65      -0.0877
     65  N        -85.4320   32.3410   42.3020 N.3   100  GLN100     -0.1245
     66  CA       -85.6350   33.2330   41.1720 C.3   100  GLN100      0.1566
     67  C        -84.7540   32.8630   39.9870 C.2   100  GLN100      0.2260
     68  O        -85.2590   32.7150   38.8690 O.2   100  GLN100     -0.2867
     69  CB       -85.3960   34.6870   41.5810 C.3   100  GLN100      0.0367
     70  CG       -85.6180   35.6810   40.4610 C.3   100  GLN100      0.0905
     71  CD       -87.0630   35.6970   39.9410 C.2   100  GLN100      0.2608
     72  OE1      -88.0190   35.4560   40.6940 O.2   100  GLN100     -0.2717
     73  NE2      -87.2250   36.0670   38.6740 N.am  100  GLN100     -0.0878
     74  N        -86.0370   31.7960   36.3780 N.3   104  SER104     -0.1217
     75  CA       -86.0300   32.9360   35.4610 C.3   104  SER104      0.1889
     76  C        -84.6200   33.4610   35.0980 C.2   104  SER104      0.2288
     77  O        -84.4940   34.4500   34.3630 O.2   104  SER104     -0.2866
     78  CB       -86.8700   34.0600   36.0400 C.3   104  SER104      0.2089
     79  OG       -88.1240   33.5650   36.4560 O.3   104  SER104     -0.2183
     80  N        -80.9510   37.7970   36.0140 N.3   107  TRP107     -0.1227
     81  CA       -81.1280   39.2540   35.8210 C.3   107  TRP107      0.1737
     82  C        -82.3080   39.7940   36.6250 C.2   107  TRP107      0.2595
     83  O        -83.3960   40.0350   36.0860 O.2   107  TRP107     -0.2718
     84  CB       -81.2530   39.5880   34.3510 C.3   107  TRP107      0.0564
     85  CG       -80.1220   39.0550   33.5570 C.ar  107  TRP107      0.0003
     86  CD1      -80.1910   38.1610   32.5250 C.ar  107  TRP107      0.0946
     87  CD2      -78.7290   39.3290   33.7550 C.ar  107  TRP107      0.0152
     88  NE1      -78.9330   37.8560   32.0830 N.ar  107  TRP107     -0.2442
     89  CE2      -78.0180   38.5720   32.8100 C.ar  107  TRP107      0.0810
     90  CE3      -78.0150   40.1470   34.6380 C.ar  107  TRP107      0.0012
     91  CZ2      -76.6390   38.6320   32.7020 C.ar  107  TRP107      0.0191
     92  CZ3      -76.6520   40.1740   34.5530 C.ar  107  TRP107      0.0001
     93  CH2      -75.9740   39.4220   33.6080 C.ar  107  TRP107      0.0015
     94  N        -82.0950   39.9320   37.9320 N.am  108  PHE108     -0.1962
     95  CA       -83.1250   40.4210   38.8340 C.3   108  PHE108      0.1771
     96  C        -82.4770   41.1730   39.9830 C.2   108  PHE108      0.2620
     97  O        -81.2650   41.0620   40.2110 O.2   108  PHE108     -0.2715
     98  CB       -83.9500   39.2580   39.3930 C.3   108  PHE108      0.0574
     99  CG       -83.1490   38.3030   40.2390 C.ar  108  PHE108     -0.0200
    100  CD1      -82.4620   37.2400   39.6510 C.ar  108  PHE108     -0.0042
    101  CD2      -83.0890   38.4570   41.6210 C.ar  108  PHE108     -0.0042
    102  CE1      -81.7250   36.3510   40.4330 C.ar  108  PHE108     -0.0003
    103  CE2      -82.3500   37.5810   42.4050 C.ar  108  PHE108     -0.0003
    104  CZ       -81.6710   36.5250   41.8100 C.ar  108  PHE108     -0.0000
    105  N        -83.2800   41.9180   40.7270 N.am  109  GLY109     -0.1940
    106  CA       -82.8130   42.5130   41.9670 C.3   109  GLY109      0.2014
    107  C        -83.9530   43.0210   42.8040 C.2   109  GLY109      0.2639
    108  O        -85.0890   43.1040   42.3340 O.2   109  GLY109     -0.2714
    109  N        -83.6310   43.4510   44.0140 N.am  110  GLY110     -0.1954
    110  CA       -84.5720   44.1770   44.8310 C.3   110  GLY110      0.1869
    111  C        -84.6830   43.5390   46.1710 C.2   110  GLY110      0.2309
    112  O        -84.4470   42.3520   46.3000 O.2   110  GLY110     -0.2863
    113  N        -87.3410   42.9680   47.9400 N.3   112  SER112     -0.1202
    114  CA       -88.7050   42.5310   48.2070 C.3   112  SER112      0.2020
    115  C        -88.7910   41.0580   48.6480 C.2   112  SER112      0.2619
    116  O        -89.7520   40.6610   49.2940 O.2   112  SER112     -0.2717
    117  CB       -89.5270   42.7200   46.9800 C.3   112  SER112      0.2103
    118  OG       -88.8810   42.0600   45.9500 O.3   112  SER112     -0.2182
    119  N        -87.8270   40.2440   48.2420 N.am  113  GLY113     -0.1956
    120  CA       -87.7390   38.8710   48.7510 C.3   113  GLY113      0.1869
    121  C        -87.5210   38.8720   50.2500 C.2   113  GLY113      0.2309
    122  O        -88.1730   38.1260   50.9900 O.2   113  GLY113     -0.2863
    123  N        -90.8010   40.1570   51.9820 N.3   116  TYR116     -0.1241
    124  CA       -91.7910   39.1020   52.0820 C.3   116  TYR116      0.1605
    125  C        -91.4540   38.0680   53.1550 C.2   116  TYR116      0.2264
    126  O        -92.3310   37.6390   53.8940 O.2   116  TYR116     -0.2867
    127  CB       -92.0270   38.4530   50.7240 C.3   116  TYR116      0.0534
    128  CG       -92.9630   39.2800   49.8800 C.ar  116  TYR116     -0.0201
    129  CD1      -94.2280   39.5990   50.3500 C.ar  116  TYR116     -0.0009
    130  CD2      -92.5480   39.8520   48.6930 C.ar  116  TYR116     -0.0009
    131  CE1      -95.0860   40.4050   49.6210 C.ar  116  TYR116      0.0417
    132  CE2      -93.4060   40.6570   47.9430 C.ar  116  TYR116      0.0417
    133  CZ       -94.6730   40.9370   48.4230 C.ar  116  TYR116      0.1957
    134  OH       -95.5460   41.7470   47.7160 O.3   116  TYR116     -0.2866
    135  N       -100.3230   43.6750   47.6690 N.3   147  TRP147     -0.1241
    136  CA       -99.0430   43.8990   47.0030 C.3   147  TRP147      0.1605
    137  C        -98.5600   42.6260   46.2910 C.2   147  TRP147      0.2264
    138  O        -98.1940   42.6700   45.1350 O.2   147  TRP147     -0.2867
    139  CB       -97.9980   44.3620   48.0090 C.3   147  TRP147      0.0550
    140  CG       -96.9370   45.2580   47.4190 C.ar  147  TRP147      0.0003
    141  CD1      -95.5840   44.9740   47.2970 C.ar  147  TRP147      0.0946
    142  CD2      -97.1170   46.5890   46.8840 C.ar  147  TRP147      0.0152
    143  NE1      -94.9360   46.0420   46.7320 N.ar  147  TRP147     -0.2442
    144  CE2      -95.8420   47.0470   46.4710 C.ar  147  TRP147      0.0810
    145  CE3      -98.2320   47.4440   46.7280 C.ar  147  TRP147      0.0012
    146  CZ2      -95.6430   48.3220   45.9040 C.ar  147  TRP147      0.0191
    147  CZ3      -98.0280   48.7300   46.1920 C.ar  147  TRP147      0.0001
    148  CH2      -96.7390   49.1500   45.7820 C.ar  147  TRP147      0.0015
    149  N        -93.9900   46.9020   35.6400 N.3   158  MET158     -0.1230
    150  CA       -92.6530   46.3240   35.4590 C.3   158  MET158      0.1702
    151  C        -92.6460   44.8250   35.6560 C.2   158  MET158      0.2593
    152  O        -93.5060   44.2560   36.3170 O.2   158  MET158     -0.2718
    153  CB       -91.6680   46.9470   36.4350 C.3   158  MET158      0.0401
    154  CG       -92.2080   47.0490   37.8590 C.3   158  MET158      0.0596
    155  SD       -92.2450   48.7570   38.4290 S.3   158  MET158     -0.1393
    156  CE       -93.9400   49.1960   38.1610 C.3   158  MET158      0.0692
    157  N        -91.6130   44.2030   35.1450 N.am  159  SER159     -0.1938
    158  CA       -91.4990   42.7730   35.1890 C.3   159  SER159      0.2055
    159  C        -91.0750   42.3370   36.6200 C.2   159  SER159      0.2643
    160  O        -90.2020   42.9540   37.2420 O.2   159  SER159     -0.2714
    161  CB       -90.5010   42.2990   34.1140 C.3   159  SER159      0.2130
    162  OG       -89.7460   41.2010   34.5560 O.3   159  SER159     -0.2179
    163  N        -91.7930   41.3590   37.1600 N.am  160  MET160     -0.1962
    164  CA       -91.7840   41.0810   38.6060 C.3   160  MET160      0.1736
    165  C        -91.0170   39.7700   38.8670 C.2   160  MET160      0.2616
    166  O        -91.1210   38.8170   38.1090 O.2   160  MET160     -0.2715
    167  CB       -93.2190   40.9510   39.1200 C.3   160  MET160      0.0427
    168  CG       -94.0600   42.2240   39.0130 C.3   160  MET160      0.0599
    169  SD       -93.1740   43.7000   39.5580 S.3   160  MET160     -0.1393
    170  CE       -93.0550   43.3650   41.3360 C.3   160  MET160      0.0692
    171  N        -90.1870   39.7600   39.8930 N.am  161  ALA161     -0.1977
    172  CA       -89.5240   38.5350   40.3160 C.3   161  ALA161      0.1597
    173  C        -90.4010   37.7500   41.3120 C.2   161  ALA161      0.2287
    174  O        -90.1210   37.7170   42.5400 O.2   161  ALA161     -0.2864
    175  CB       -88.1760   38.8740   40.9460 C.3   161  ALA161      0.0319
    176  N        -88.7500   35.1130   43.5790 N.3   164  ALA164     -0.1231
    177  CA       -88.0310   35.6330   44.7260 C.3   164  ALA164      0.1694
    178  C        -89.0190   35.9790   45.8500 C.2   164  ALA164      0.2592
    179  O        -88.7560   35.7220   47.0050 O.2   164  ALA164     -0.2718
    180  CB       -87.2220   36.8630   44.3280 C.3   164  ALA164      0.0304
    181  N        -90.1470   36.5840   45.4900 N.am  165  HIS165     -0.1976
    182  CA       -91.0730   37.0960   46.4730 C.3   165  HIS165      0.1656
    183  C        -91.7050   35.9460   47.2340 C.2   165  HIS165      0.2291
    184  O        -91.8110   35.9770   48.4580 O.2   165  HIS165     -0.2864
    185  CB       -92.2130   37.8390   45.7970 C.3   165  HIS165      0.0771
    186  CG       -91.8420   39.1560   45.2130 C.ar  165  HIS165      0.0820
    187  ND1      -92.5560   39.7020   44.1490 N.ar  165  HIS165     -0.2267
    188  CD2      -90.8900   40.0760   45.5430 C.ar  165  HIS165      0.1154
    189  CE1      -92.0570   40.8820   43.8460 C.ar  165  HIS165      0.1986
    190  NE2      -91.0490   41.0850   44.6490 N.ar  165  HIS165     -0.2212
@<TRIPOS>BOND
     1    14    15    1
     2    14    13    1
     3    16    15    2
     4    15    17   am
     5    88    86   ar
     6    88    89   ar
     7    13    10    1
     8    86    85   ar
     9    91    89   ar
    10    91    93   ar
    11    89    87   ar
    12    85    87   ar
    13    85    84    1
    14    93    92   ar
    15    87    90   ar
    16    10    11    1
    17    10     9    1
    18   161   162    1
    19   161   158    1
    20    11    12    2
    21    84    81    1
    22     9     3   am
    23    77    76    2
    24    92    90   ar
    25    76    75    1
    26   157   158    1
    27   157   151   am
    28   158   159    1
    29     1     2    1
    30   150   149    1
    31   150   151    1
    32   150   153    1
    33    75    78    1
    34    75    74    1
    35     5     2    1
    36     5     6    1
    37     3     2    1
    38     3     4    2
    39   151   152    2
    40    81    80    1
    41    81    82    1
    42     8     6   ar
    43    78    79    1
    44    83    82    2
    45     6     7   ar
    46   153   154    1
    47   159   163   am
    48   159   160    2
    49    82    94   am
    50    22    23    1
    51    22    19    1
    52    25    24    1
    53   163   164    1
    54    23    24    1
    55    20    19    1
    56    20    21    2
    57    19    18    1
    58   154   155    1
    59    39    38    2
    60    94    95    1
    61    42    44   ar
    62    42    41   ar
    63   166   165    2
    64   156   155    1
    65    40    41    1
    66    40    37    1
    67    44    46   ar
    68    41    43   ar
    69   164   165    1
    70   164   167    1
    71    73    71   am
    72    95    98    1
    73    95    96    1
    74   165   171   am
    75    68    67    2
    76    38    37    1
    77   168   167    1
    78   168   169    1
    79    46    45   ar
    80    37    36    1
    81    43    45   ar
    82    98    99    1
    83   169   170    1
    84   100    99   ar
    85   100   102   ar
    86   171   172    1
    87    71    70    1
    88    71    72    2
    89    96    97    2
    90    96   105   am
    91    67    66    1
    92    99   101   ar
    93   172   175    1
    94   172   173    1
    95   102   104   ar
    96    70    69    1
    97    36    28   am
    98   105   106    1
    99    29    28    2
   100    66    69    1
   101    66    65    1
   102   173   174    2
   103    28    27    1
   104    56    54   ar
   105    56    55   ar
   106    54    52   ar
   107   101   103   ar
   108   104   103   ar
   109   106   107    1
   110   108   107    2
   111    27    26    1
   112    27    30    1
   113    55    53   ar
   114   107   109   am
   115    52    53   ar
   116    52    51    1
   117    51    48    1
   118   176   177    1
   119    30    31    1
   120    47    48    1
   121   189   187   ar
   122   189   190   ar
   123   109   110    1
   124   187   186   ar
   125   180   177    1
   126    48    49    1
   127   190   188   ar
   128   177   178    1
   129   110   111    1
   130    31    32   ar
   131    31    33   ar
   132   138   137    2
   133   186   188   ar
   134   186   185    1
   135    32    34   ar
   136   181   178   am
   137   181   182    1
   138    49    50    2
   139   148   146   ar
   140   148   147   ar
   141   185   182    1
   142   178   179    2
   143   146   144   ar
   144   118   117    1
   145    33    35   ar
   146   111   112    2
   147   147   145   ar
   148   137   136    1
   149   144   143   ar
   150   144   142   ar
   151   182   183    1
   152    34    35   ar
   153   145   142   ar
   154   143   141   ar
   155    64    62   am
   156   142   140   ar
   157   117   114    1
   158   136   135    1
   159   136   139    1
   160   183   184    2
   161   141   140   ar
   162   140   139    1
   163   134   133    1
   164    62    63    2
   165    62    61    1
   166   113   114    1
   167   132   133   ar
   168   132   130   ar
   169   114   115    1
   170   119   115   am
   171   119   120    1
   172   133   131   ar
   173   115   116    2
   174   130   128   ar
   175   120   121    1
   176    61    58    1
   177    57    58    1
   178   131   129   ar
   179    58    59    1
   180   128   129   ar
   181   128   127    1
   182   121   122    2
   183   127   124    1
   184    59    60    2
   185   123   124    1
   186   124   125    1
   187   125   126    2
