@<TRIPOS>MOLECULE
tmp/4qo2A03.pdb
 71 70 0 0 0
SMALL
GASTEIGER

@<TRIPOS>ATOM
      1  N        -82.8690   50.3010   64.2720 N.3     5  GLY5       -0.1210
      2  CA       -81.5770   49.8990   64.8330 C.3     5  GLY5        0.1940
      3  C        -80.4720   49.8280   63.8000 C.2     5  GLY5        0.2453
      4  O        -80.6680   50.2040   62.6440 O.2     5  GLY5       -0.2732
      5  N        -79.2740   49.3260   64.2180 N.am    6  PRO6       -0.2728
      6  CA       -78.0980   49.4540   63.3630 C.3     6  PRO6        0.1401
      7  C        -78.2330   48.6690   62.0550 C.2     6  PRO6        0.2269
      8  O        -77.8400   49.1540   60.9830 O.2     6  PRO6       -0.2865
      9  CB       -76.9400   48.8920   64.2400 C.3     6  PRO6        0.0296
     10  CG       -77.6110   48.2010   65.4020 C.3     6  PRO6        0.0237
     11  CD       -78.9210   48.9220   65.5910 C.3     6  PRO6        0.0939
     12  N        -85.5530   43.8420   64.7770 N.3    77  GLU77      -0.1231
     13  CA       -84.3050   44.2180   65.4080 C.3    77  GLU77       0.1699
     14  C        -84.5740   44.6980   66.8340 C.2    77  GLU77       0.2592
     15  O        -83.8440   44.3430   67.7670 O.2    77  GLU77      -0.2718
     16  CB       -83.5800   45.3030   64.6010 C.3    77  GLU77       0.0402
     17  CG       -82.2510   45.7040   65.2130 C.3    77  GLU77       0.1161
     18  CD       -81.3330   46.3790   64.2270 C.2    77  GLU77       0.3649
     19  OE1      -81.8400   47.1110   63.3200 O.co2  77  GLU77      -0.2457
     20  OE2      -80.1150   46.1490   64.3330 O.co2  77  GLU77      -0.2457
     21  N        -85.6120   45.5120   67.0030 N.am   78  LYS78      -0.1966
     22  CA       -85.8930   46.0770   68.2920 C.3    78  LYS78       0.1728
     23  C        -86.2570   44.9950   69.2970 C.2    78  LYS78       0.2616
     24  O        -85.8350   45.0460   70.4460 O.2    78  LYS78      -0.2715
     25  CB       -87.0220   47.0980   68.2080 C.3    78  LYS78       0.0311
     26  CG       -87.4890   47.5950   69.5740 C.3    78  LYS78       0.0038
     27  CD       -88.8380   48.2860   69.4690 C.3    78  LYS78       0.0206
     28  CE       -89.1770   49.0590   70.7320 C.3    78  LYS78       0.1093
     29  NZ       -90.6380   49.0380   71.0140 N.3    78  LYS78      -0.1314
     30  N        -87.1260   44.0720   68.8950 N.am   79  ARG79      -0.1963
     31  CA       -87.7040   43.1240   69.8390 C.3    79  ARG79       0.1729
     32  C        -86.8770   41.8410   69.9620 C.2    79  ARG79       0.2616
     33  O        -86.9350   41.1960   70.9580 O.2    79  ARG79      -0.2715
     34  CB       -89.1240   42.7540   69.4300 C.3    79  ARG79       0.0348
     35  CG       -90.0620   43.9380   69.3200 C.3    79  ARG79       0.0492
     36  CD       -90.6970   44.2610   70.6420 C.3    79  ARG79       0.2205
     37  NE       -91.7170   45.2970   70.5100 N.pl3  79  ARG79      -0.0865
     38  CZ       -92.8780   45.2910   71.1540 C.cat  79  ARG79       0.5346
     39  NH1      -93.1790   44.2960   71.9790 N.pl3  79  ARG79       0.1354
     40  NH2      -93.7460   46.2750   70.9620 N.pl3  79  ARG79       0.1354
     41  N        -86.2510   41.4100   68.8760 N.am   80  LEU80      -0.1963
     42  CA       -85.5650   40.1070   68.8600 C.3    80  LEU80       0.1728
     43  C        -84.0530   40.2480   68.6820 C.2    80  LEU80       0.2617
     44  O        -83.3250   39.2560   68.7980 O.2    80  LEU80      -0.2715
     45  CB       -86.1180   39.2010   67.7510 C.3    80  LEU80       0.0311
     46  CG       -87.6190   38.9040   67.8350 C.3    80  LEU80       0.0022
     47  CD1      -88.0870   38.0950   66.6370 C.3    80  LEU80       0.0001
     48  CD2      -87.9490   38.1800   69.1340 C.3    80  LEU80       0.0001
     49  N        -83.5910   41.4610   68.3620 N.am   81  GLY81      -0.1940
     50  CA       -82.1580   41.7580   68.3080 C.3    81  GLY81       0.2014
     51  C        -81.5620   41.7790   66.8880 C.2    81  GLY81       0.2640
     52  O        -82.1300   41.2150   65.9330 O.2    81  GLY81      -0.2714
     53  N        -80.4130   42.4250   66.7560 N.am   82  SER82      -0.1935
     54  CA       -79.8020   42.6450   65.4510 C.3    82  SER82       0.2055
     55  C        -79.4780   41.3070   64.7650 C.2    82  SER82       0.2644
     56  O        -79.5770   41.1750   63.5390 O.2    82  SER82      -0.2714
     57  CB       -78.5310   43.4720   65.6110 C.3    82  SER82       0.2130
     58  OG       -78.8080   44.8210   66.0310 O.3    82  SER82      -0.2179
     59  N        -79.0450   40.3360   65.5570 N.am   83  GLY83      -0.1939
     60  CA       -78.6680   39.0070   65.0420 C.3    83  GLY83       0.2014
     61  C        -79.7890   38.3140   64.2920 C.2    83  GLY83       0.2638
     62  O        -79.5780   37.7400   63.2050 O.2    83  GLY83      -0.2714
     63  N        -80.9660   38.2920   64.8980 N.am   84  LYS84      -0.1977
     64  CA       -82.1170   37.6740   64.2760 C.3    84  LYS84       0.1596
     65  C        -82.4170   38.3290   62.9040 C.2    84  LYS84       0.2287
     66  O        -82.6620   37.6340   61.9120 O.2    84  LYS84      -0.2864
     67  CB       -83.3310   37.7790   65.2010 C.3    84  LYS84       0.0298
     68  CG       -84.6140   37.2280   64.6100 C.3    84  LYS84       0.0038
     69  CD       -84.4570   35.7580   64.2570 C.3    84  LYS84       0.0206
     70  CE       -84.1900   34.9300   65.4940 C.3    84  LYS84       0.1093
     71  NZ       -84.2490   33.4950   65.1730 N.3    84  LYS84      -0.1314
@<TRIPOS>BOND
     1     8     7    2
     2    66    65    2
     3     7     6    1
     4     4     3    2
     5    65    64    1
     6    62    61    2
     7    19    18   ar
     8     6     5    1
     9     6     9    1
    10    56    55    2
    11     3     5   am
    12     3     2    1
    13     5    11    1
    14    18    20   ar
    15    18    17    1
    16     9    10    1
    17    69    68    1
    18    69    70    1
    19     1     2    1
    20    64    63    1
    21    64    67    1
    22    61    63   am
    23    61    60    1
    24    16    17    1
    25    16    13    1
    26    68    67    1
    27    55    54    1
    28    55    59   am
    29    12    13    1
    30    60    59    1
    31    71    70    1
    32    10    11    1
    33    13    14    1
    34    54    57    1
    35    54    53    1
    36    57    58    1
    37    52    51    2
    38    47    46    1
    39    53    51   am
    40    14    21   am
    41    14    15    2
    42    51    50    1
    43    21    22    1
    44    45    46    1
    45    45    42    1
    46    46    48    1
    47    25    22    1
    48    25    26    1
    49    22    23    1
    50    50    49    1
    51    49    43   am
    52    43    44    2
    53    43    42    1
    54    42    41    1
    55    41    32   am
    56    30    23   am
    57    30    31    1
    58    23    24    2
    59    35    34    1
    60    35    36    1
    61    34    31    1
    62    27    26    1
    63    27    28    1
    64    31    32    1
    65    32    33    2
    66    37    36    1
    67    37    38    2
    68    28    29    1
    69    40    38    1
    70    38    39    1
