@<TRIPOS>MOLECULE
tmp/4qo4A00.pdb
 162 156 0 0 0
SMALL
GASTEIGER

@<TRIPOS>ATOM
      1  N          7.6650    1.5960   17.7060 N.3     7  GLN7       -0.1245
      2  CA         7.5450    0.9980   16.3760 C.3     7  GLN7        0.1566
      3  C          7.7740    2.0090   15.2470 C.2     7  GLN7        0.2260
      4  O          7.9980    1.6340   14.1170 O.2     7  GLN7       -0.2867
      5  CB         6.1580    0.3360   16.1980 C.3     7  GLN7        0.0367
      6  CG         6.1690   -1.2160   16.1070 C.3     7  GLN7        0.0905
      7  CD         6.3340   -1.8780   17.4520 C.2     7  GLN7        0.2608
      8  OE1        7.0270   -1.3840   18.2960 O.2     7  GLN7       -0.2717
      9  NE2        5.6870   -3.0300   17.6350 N.am    7  GLN7       -0.0878
     10  N          9.1480   -1.0800   13.1240 N.3    34  LYS34      -0.1245
     11  CA         8.0460   -1.9670   12.7640 C.3    34  LYS34       0.1561
     12  C          8.4930   -2.9260   11.6630 C.2    34  LYS34       0.2260
     13  O          8.1510   -4.1010   11.6840 O.2    34  LYS34      -0.2867
     14  CB         6.8530   -1.1550   12.2590 C.3    34  LYS34       0.0271
     15  CG         5.7230   -1.9960   11.7030 C.3    34  LYS34       0.0035
     16  CD         4.5630   -1.1120   11.2790 C.3    34  LYS34       0.0206
     17  CE         3.3510   -1.9320   10.8530 C.3    34  LYS34       0.1093
     18  NZ         2.1480   -1.0550   10.7000 N.3    34  LYS34      -0.1314
     19  N         11.2510   -5.4390   13.0640 N.3    37  LEU37      -0.1231
     20  CA        10.6390   -6.4740   13.8880 C.3    37  LEU37       0.1693
     21  C          9.9200   -7.5130   13.0420 C.2    37  LEU37       0.2592
     22  O          9.9710   -8.6990   13.3300 O.2    37  LEU37      -0.2718
     23  CB         9.6710   -5.8360   14.8860 C.3    37  LEU37       0.0284
     24  CG        10.3710   -5.0540   16.0020 C.3    37  LEU37       0.0019
     25  CD1        9.3660   -4.1560   16.7220 C.3    37  LEU37       0.0001
     26  CD2       11.0240   -6.0330   16.9790 C.3    37  LEU37       0.0001
     27  N          9.2390   -7.0670   11.9960 N.am   38  PHE38      -0.1976
     28  CA         8.5320   -8.0090   11.1360 C.3    38  PHE38       0.1639
     29  C          9.5110   -8.8840   10.3730 C.2    38  PHE38       0.2290
     30  O          9.3610  -10.0940   10.3410 O.2    38  PHE38      -0.2864
     31  CB         7.6490   -7.2800   10.1300 C.3    38  PHE38       0.0560
     32  CG         7.1000   -8.1760    9.0650 C.ar   38  PHE38      -0.0200
     33  CD1        5.9820   -8.9650    9.3060 C.ar   38  PHE38      -0.0042
     34  CD2        7.7370   -8.2690    7.8300 C.ar   38  PHE38      -0.0042
     35  CE1        5.5010   -9.8390    8.3220 C.ar   38  PHE38      -0.0003
     36  CE2        7.2700   -9.1330    6.8460 C.ar   38  PHE38      -0.0003
     37  CZ         6.1510   -9.9220    7.0920 C.ar   38  PHE38      -0.0000
     38  N         12.5470   -9.6130   11.1080 N.3    40  LEU40      -0.1231
     39  CA        13.2040  -10.5400   12.0330 C.3    40  LEU40       0.1693
     40  C         12.2270  -11.6490   12.4210 C.2    40  LEU40       0.2593
     41  O         12.5960  -12.8120   12.5180 O.2    40  LEU40      -0.2718
     42  CB        13.6660   -9.8230   13.3020 C.3    40  LEU40       0.0284
     43  CG        15.0000   -9.0820   13.2450 C.3    40  LEU40       0.0019
     44  CD1       15.1980   -8.3130   14.5550 C.3    40  LEU40       0.0001
     45  CD2       16.1380  -10.0650   13.0320 C.3    40  LEU40       0.0001
     46  N         10.9790  -11.2650   12.6580 N.am   41  GLY41      -0.1942
     47  CA         9.9620  -12.2340   13.0130 C.3    41  GLY41       0.2014
     48  C          9.7820  -13.2800   11.9180 C.2    41  GLY41       0.2638
     49  O          9.6340  -14.4660   12.2150 O.2    41  GLY41      -0.2714
     50  N          9.7940  -12.8430   10.6570 N.am   42  GLN42      -0.1977
     51  CA         9.6380  -13.7560    9.5240 C.3    42  GLN42       0.1601
     52  C         10.8940  -14.6040    9.3350 C.2    42  GLN42       0.2287
     53  O         10.7970  -15.7370    8.8880 O.2    42  GLN42      -0.2864
     54  CB         9.3240  -12.9960    8.2150 C.3    42  GLN42       0.0394
     55  CG         7.8860  -12.4590    8.1320 C.3    42  GLN42       0.0908
     56  CD         6.8360  -13.5630    7.9770 C.2    42  GLN42       0.2608
     57  OE1        5.6880  -13.4270    8.4700 O.2    42  GLN42      -0.2717
     58  NE2        7.2150  -14.6640    7.3360 N.am   42  GLN42      -0.0878
     59  N         12.7380  -15.6630   11.7200 N.3    44  ILE44      -0.1231
     60  CA        12.5700  -16.6300   12.7900 C.3    44  ILE44       0.1692
     61  C         11.6060  -17.7690   12.4370 C.2    44  ILE44       0.2591
     62  O         11.9540  -18.9320   12.5710 O.2    44  ILE44      -0.2718
     63  CB        12.0750  -15.9250   14.0660 C.3    44  ILE44       0.0266
     64  CG1       13.2070  -15.0620   14.6230 C.3    44  ILE44       0.0019
     65  CG2       11.5780  -16.9370   15.0900 C.3    44  ILE44       0.0020
     66  CD1       12.8360  -14.2700   15.8550 C.3    44  ILE44       0.0001
     67  N         10.4070  -17.4360   11.9700 N.am   45  MET45      -0.1979
     68  CA         9.4080  -18.4530   11.6500 C.3    45  MET45       0.1605
     69  C          9.7590  -19.2950   10.4080 C.2    45  MET45       0.2287
     70  O          9.6000  -20.5210   10.4310 O.2    45  MET45      -0.2864
     71  CB         8.0290  -17.7970   11.4770 C.3    45  MET45       0.0413
     72  CG         7.5140  -16.9550   12.6630 C.3    45  MET45       0.0598
     73  SD         7.5540  -17.8350   14.2470 S.3    45  MET45      -0.1393
     74  CE         6.2190  -19.0300   14.0880 C.3    45  MET45       0.0692
     75  N         11.5520  -20.8880   15.9690 N.3    50  TYR50      -0.1241
     76  CA        10.4990  -20.7400   16.9710 C.3    50  TYR50       0.1605
     77  C          9.2730  -21.5270   16.5250 C.2    50  TYR50       0.2264
     78  O          9.0150  -21.6400   15.3380 O.2    50  TYR50      -0.2867
     79  CB        10.1040  -19.2750   17.1230 C.3    50  TYR50       0.0534
     80  CG         9.0070  -19.0730   18.1320 C.ar   50  TYR50      -0.0201
     81  CD1        9.2090  -19.4000   19.4680 C.ar   50  TYR50      -0.0009
     82  CD2        7.7610  -18.5690   17.7510 C.ar   50  TYR50      -0.0009
     83  CE1        8.2090  -19.2190   20.4060 C.ar   50  TYR50       0.0417
     84  CE2        6.7550  -18.3860   18.6840 C.ar   50  TYR50       0.0417
     85  CZ         6.9820  -18.7160   20.0070 C.ar   50  TYR50       0.1957
     86  OH         5.9960  -18.5230   20.9550 O.3    50  TYR50      -0.2866
     87  N         21.5770  -15.2370   13.6520 N.3    61  LEU61      -0.1245
     88  CA        20.7630  -14.4860   14.6120 C.3    61  LEU61       0.1561
     89  C         21.4530  -14.5750   15.9700 C.2    61  LEU61       0.2260
     90  O         21.5590  -13.5880   16.6900 O.2    61  LEU61      -0.2867
     91  CB        19.3460  -15.0700   14.7120 C.3    61  LEU61       0.0270
     92  CG        18.4360  -14.3270   15.6980 C.3    61  LEU61       0.0019
     93  CD1       18.1890  -12.9130   15.1750 C.3    61  LEU61       0.0001
     94  CD2       17.1170  -15.0760   15.8710 C.3    61  LEU61       0.0001
     95  N         22.6090  -11.4120   18.1730 N.3    65  PHE65      -0.1241
     96  CA        22.0570  -11.1790   19.5050 C.3    65  PHE65       0.1605
     97  C         22.9990  -11.4990   20.6720 C.2    65  PHE65       0.2264
     98  O         22.8430  -10.9520   21.7700 O.2    65  PHE65      -0.2867
     99  CB        20.7370  -11.9590   19.6510 C.3    65  PHE65       0.0534
    100  CG        19.5460  -11.2630   19.0270 C.ar   65  PHE65      -0.0203
    101  CD1       19.7240  -10.1670   18.1910 C.ar   65  PHE65      -0.0042
    102  CD2       18.2530  -11.7130   19.2720 C.ar   65  PHE65      -0.0042
    103  CE1       18.6320   -9.5170   17.6160 C.ar   65  PHE65      -0.0003
    104  CE2       17.1570  -11.0750   18.7080 C.ar   65  PHE65      -0.0003
    105  CZ        17.3500   -9.9700   17.8680 C.ar   65  PHE65      -0.0000
    106  N         16.5230  -17.2770   23.5320 N.3    70  PHE70      -0.1241
    107  CA        15.8590  -16.1920   24.2460 C.3    70  PHE70       0.1605
    108  C         14.3610  -16.3990   24.1240 C.2    70  PHE70       0.2264
    109  O         13.9090  -17.0620   23.2110 O.2    70  PHE70      -0.2867
    110  CB        16.2650  -14.8300   23.6600 C.3    70  PHE70       0.0534
    111  CG        15.7930  -14.5900   22.2410 C.ar   70  PHE70      -0.0203
    112  CD1       14.5140  -14.1000   21.9850 C.ar   70  PHE70      -0.0042
    113  CD2       16.6410  -14.8310   21.1670 C.ar   70  PHE70      -0.0042
    114  CE1       14.0930  -13.8390   20.6790 C.ar   70  PHE70      -0.0003
    115  CE2       16.2350  -14.5760   19.8600 C.ar   70  PHE70      -0.0003
    116  CZ        14.9550  -14.0820   19.6130 C.ar   70  PHE70      -0.0000
    117  N         10.4940  -15.2520   23.3910 N.3    72  VAL72      -0.1231
    118  CA         9.8070  -14.2780   22.5480 C.3    72  VAL72       0.1692
    119  C          8.9120  -13.3380   23.3450 C.2    72  VAL72       0.2591
    120  O          8.3870  -12.3770   22.7980 O.2    72  VAL72      -0.2718
    121  CB         8.9160  -14.9470   21.4860 C.3    72  VAL72       0.0266
    122  CG1        9.7530  -15.8740   20.6410 C.3    72  VAL72       0.0020
    123  CG2        7.7620  -15.6840   22.1480 C.3    72  VAL72       0.0020
    124  N          8.7300  -13.6220   24.6330 N.am   73  LYS73      -0.1980
    125  CA         7.8890  -12.7760   25.4740 C.3    73  LYS73       0.1596
    126  C          8.6670  -11.6720   26.1750 C.2    73  LYS73       0.2287
    127  O          8.0740  -10.7540   26.7220 O.2    73  LYS73      -0.2864
    128  CB         7.1840  -13.6120   26.5250 C.3    73  LYS73       0.0298
    129  CG         6.1950  -14.5930   25.9510 C.3    73  LYS73       0.0038
    130  CD         5.1020  -13.8940   25.1680 C.3    73  LYS73       0.0206
    131  CE         3.9350  -14.8390   24.9470 C.3    73  LYS73       0.1093
    132  NZ         2.9860  -14.3440   23.9150 N.3    73  LYS73      -0.1314
    133  N         10.2220   -8.8530   25.4600 N.3    75  HIS75      -0.1241
    134  CA        10.3970   -7.7840   24.4870 C.3    75  HIS75       0.1621
    135  C         11.4550   -6.7360   24.8110 C.2    75  HIS75       0.2264
    136  O         12.2090   -6.3520   23.9330 O.2    75  HIS75      -0.2867
    137  CB         9.0530   -7.1200   24.2240 C.3    75  HIS75       0.0745
    138  CG         8.0690   -8.0210   23.5530 C.ar   75  HIS75       0.0817
    139  ND1        6.9080   -7.5550   22.9800 N.ar   75  HIS75      -0.2268
    140  CD2        8.0820   -9.3590   23.3450 C.ar   75  HIS75       0.1154
    141  CE1        6.2480   -8.5650   22.4430 C.ar   75  HIS75       0.1986
    142  NE2        6.9400   -9.6710   22.6510 N.ar   75  HIS75      -0.2212
    143  N         14.7070   -8.1260   23.9970 N.3    78  ILE78      -0.1231
    144  CA        14.8680   -8.2760   22.5600 C.3    78  ILE78       0.1692
    145  C         15.2450   -6.9400   21.9240 C.2    78  ILE78       0.2592
    146  O         16.1510   -6.8800   21.1050 O.2    78  ILE78      -0.2718
    147  CB        13.5780   -8.8450   21.9140 C.3    78  ILE78       0.0266
    148  CG1       13.3660  -10.2890   22.3880 C.3    78  ILE78       0.0019
    149  CG2       13.6770   -8.7960   20.3920 C.3    78  ILE78       0.0020
    150  CD1       12.0120  -10.8820   22.0170 C.3    78  ILE78       0.0001
    151  N         14.5550   -5.8700   22.3190 N.am   79  TYR79      -0.1976
    152  CA        14.8440   -4.5380   21.7850 C.3    79  TYR79       0.1639
    153  C         16.3080   -4.1710   22.0350 C.2    79  TYR79       0.2290
    154  O         16.9620   -3.5880   21.1910 O.2    79  TYR79      -0.2864
    155  CB        13.9220   -3.4850   22.4330 C.3    79  TYR79       0.0560
    156  CG        12.5900   -3.3090   21.7360 C.ar   79  TYR79      -0.0198
    157  CD1       12.5240   -2.8130   20.4340 C.ar   79  TYR79      -0.0009
    158  CD2       11.3950   -3.6700   22.3620 C.ar   79  TYR79      -0.0009
    159  CE1       11.3080   -2.6920   19.7680 C.ar   79  TYR79       0.0417
    160  CE2       10.1730   -3.5480   21.7030 C.ar   79  TYR79       0.0417
    161  CZ        10.1370   -3.0600   20.4090 C.ar   79  TYR79       0.1957
    162  OH         8.9300   -2.9510   19.7550 O.3    79  TYR79      -0.2866
@<TRIPOS>BOND
     1    36    37   ar
     2    36    34   ar
     3    37    35   ar
     4    58    56   am
     5    34    32   ar
     6    56    55    1
     7    56    57    2
     8    55    54    1
     9    54    51    1
    10    35    33   ar
    11    53    52    2
    12    32    33   ar
    13    32    31    1
    14    52    51    1
    15    51    50    1
    16    31    28    1
    17    30    29    2
    18    29    28    1
    19    69    70    2
    20    69    68    1
    21    50    48   am
    22    18    17    1
    23    17    16    1
    24    38    39    1
    25    28    27    1
    26    16    15    1
    27    71    68    1
    28    71    72    1
    29    68    67    1
    30    12    13    2
    31    12    11    1
    32    15    14    1
    33    59    60    1
    34    48    49    2
    35    48    47    1
    36    67    61   am
    37    27    21   am
    38    39    40    1
    39    39    42    1
    40    14    11    1
    41    40    41    2
    42    40    46   am
    43    61    62    2
    44    61    60    1
    45    46    47    1
    46    72    73    1
    47    11    10    1
    48    60    63    1
    49    45    43    1
    50    21    22    2
    51    21    20    1
    52    19    20    1
    53    43    42    1
    54    43    44    1
    55    87    88    1
    56    20    23    1
    57    63    64    1
    58    63    65    1
    59    74    73    1
    60     4     3    2
    61    88    91    1
    62    88    89    1
    63    64    66    1
    64    91    92    1
    65    23    24    1
    66    93    92    1
    67     3     2    1
    68    78    77    2
    69    92    94    1
    70    75    76    1
    71    89    90    2
    72    24    25    1
    73    24    26    1
    74     6     5    1
    75     6     7    1
    76     5     2    1
    77     2     1    1
    78    77    76    1
    79    76    79    1
    80    79    80    1
    81     7     9   am
    82     7     8    2
    83   103   105   ar
    84   103   101   ar
    85    82    80   ar
    86    82    84   ar
    87   105   104   ar
    88    80    81   ar
    89    95    96    1
    90   101   100   ar
    91    84    85   ar
    92   104   102   ar
    93   100   102   ar
    94   100    99    1
    95    81    83   ar
    96    96    99    1
    97    96    97    1
    98   116   115   ar
    99   116   114   ar
   100   162   161    1
   101   159   161   ar
   102   159   157   ar
   103   115   113   ar
   104    85    83   ar
   105    85    86    1
   106   149   147    1
   107   161   160   ar
   108   157   156   ar
   109   122   121    1
   110    97    98    2
   111   114   112   ar
   112   146   145    2
   113   113   111   ar
   114   154   153    2
   115   121   123    1
   116   121   118    1
   117   160   158   ar
   118   156   158   ar
   119   156   155    1
   120   152   153    1
   121   152   151    1
   122   152   155    1
   123   147   148    1
   124   147   144    1
   125   145   151   am
   126   145   144    1
   127   112   111   ar
   128   150   148    1
   129   111   110    1
   130   141   142   ar
   131   141   139   ar
   132   118   119    1
   133   118   117    1
   134   144   143    1
   135   142   140   ar
   136   120   119    2
   137   139   138   ar
   138   109   108    2
   139   140   138   ar
   140   119   124   am
   141   106   107    1
   142   138   137    1
   143   110   107    1
   144   132   131    1
   145   136   135    2
   146   108   107    1
   147   137   134    1
   148   134   135    1
   149   134   133    1
   150   124   125    1
   151   131   130    1
   152   130   129    1
   153   125   126    1
   154   125   128    1
   155   129   128    1
   156   126   127    2
