@<TRIPOS>MOLECULE
tmp/4qo5A04.pdb
 197 185 0 0 0
SMALL
GASTEIGER

@<TRIPOS>ATOM
      1  N        -43.8150   51.2710  -25.1840 N.3    59  ARG59      -0.1231
      2  CA       -42.8490   50.2050  -24.9450 C.3    59  ARG59       0.1694
      3  C        -42.9240   49.6350  -23.5160 C.2    59  ARG59       0.2591
      4  O        -43.0550   50.3810  -22.5470 O.2    59  ARG59      -0.2718
      5  CB       -41.4570   50.8010  -25.2320 C.3    59  ARG59       0.0321
      6  CG       -40.2790   49.9060  -25.0340 C.3    59  ARG59       0.0489
      7  CD       -39.0440   50.5260  -25.6950 C.3    59  ARG59       0.2205
      8  NE       -38.6300   51.7600  -25.0300 N.pl3  59  ARG59      -0.0865
      9  CZ       -38.3800   52.9080  -25.6480 C.cat  59  ARG59       0.5346
     10  NH1      -38.0000   53.9590  -24.9400 N.pl3  59  ARG59       0.1354
     11  NH2      -38.5010   53.0080  -26.9680 N.pl3  59  ARG59       0.1354
     12  N        -42.8160   48.3140  -23.3810 N.am   60  GLU60      -0.1979
     13  CA       -42.8740   47.6810  -22.0680 C.3    60  GLU60       0.1602
     14  C        -41.6370   46.8220  -21.7730 C.2    60  GLU60       0.2287
     15  O        -41.7440   45.7840  -21.1180 O.2    60  GLU60      -0.2864
     16  CB       -44.1380   46.8210  -21.9440 C.3    60  GLU60       0.0415
     17  CG       -45.4280   47.6730  -21.9170 C.3    60  GLU60       0.1163
     18  CD       -46.6770   46.8340  -21.7070 C.2    60  GLU60       0.3649
     19  OE1      -46.8580   45.8290  -22.4250 O.co2  60  GLU60      -0.2457
     20  OE2      -47.4880   47.1980  -20.8290 O.co2  60  GLU60      -0.2457
     21  N        -37.0980   38.4130   -9.3390 N.3   107  PRO107     -0.2116
     22  CA       -36.9850   39.8000   -9.8300 C.3   107  PRO107      0.1372
     23  C        -35.6460   40.0790  -10.5180 C.2   107  PRO107      0.2244
     24  O        -35.5800   40.8360  -11.5030 O.2   107  PRO107     -0.2868
     25  CB       -37.1090   40.6300   -8.5480 C.3   107  PRO107      0.0268
     26  CG       -38.0250   39.8040   -7.6810 C.3   107  PRO107      0.0207
     27  CD       -37.6190   38.3670   -7.9540 C.3   107  PRO107      0.0892
     28  N        -36.1360   38.8570  -14.0520 N.3   110  CYS110     -0.1235
     29  CA       -36.9670   39.8530  -14.7220 C.3   110  CYS110      0.1677
     30  C        -36.1550   41.0910  -15.0880 C.2   110  CYS110      0.2270
     31  O        -36.3930   41.7080  -16.1370 O.2   110  CYS110     -0.2867
     32  CB       -38.1350   40.2830  -13.8210 C.3   110  CYS110      0.0956
     33  SG       -39.1410   38.9170  -13.1490 S.3   110  CYS110     -0.0801
     34  N        -36.3640   44.1460  -17.6950 N.3   114  HIS114     -0.1241
     35  CA       -37.2270   45.1460  -17.0670 C.3   114  HIS114      0.1621
     36  C        -36.5180   45.7730  -15.8990 C.2   114  HIS114      0.2264
     37  O        -37.0240   45.7580  -14.7780 O.2   114  HIS114     -0.2867
     38  CB       -38.5110   44.4950  -16.5610 C.3   114  HIS114      0.0745
     39  CG       -39.2910   43.8330  -17.6370 C.ar  114  HIS114      0.0817
     40  ND1      -39.7470   44.5120  -18.7430 N.ar  114  HIS114     -0.2268
     41  CD2      -39.6780   42.5490  -17.7930 C.ar  114  HIS114      0.1154
     42  CE1      -40.4050   43.6820  -19.5270 C.ar  114  HIS114      0.1986
     43  NE2      -40.3680   42.4850  -18.9780 N.ar  114  HIS114     -0.2212
     44  N        -38.4040   48.5660  -13.6770 N.3   117  GLU117     -0.1231
     45  CA       -39.4530   48.0520  -12.8240 C.3   117  GLU117      0.1699
     46  C        -38.8770   47.4100  -11.5690 C.2   117  GLU117      0.2592
     47  O        -39.3720   47.6190  -10.4600 O.2   117  GLU117     -0.2718
     48  CB       -40.3340   47.0590  -13.5910 C.3   117  GLU117      0.0402
     49  CG       -41.1840   47.7050  -14.6820 C.3   117  GLU117      0.1161
     50  CD       -40.3910   48.1510  -15.9130 C.2   117  GLU117      0.3649
     51  OE1      -39.2310   47.7240  -16.0870 O.co2 117  GLU117     -0.2457
     52  OE2      -40.9260   48.9610  -16.7080 O.co2 117  GLU117     -0.2457
     53  N        -37.8160   46.6330  -11.7440 N.am  118  VAL118     -0.1980
     54  CA       -37.2000   45.9730  -10.6070 C.3   118  VAL118      0.1595
     55  C        -36.5030   46.9780   -9.6750 C.2   118  VAL118      0.2287
     56  O        -36.6100   46.8660   -8.4400 O.2   118  VAL118     -0.2864
     57  CB       -36.2640   44.8470  -11.0770 C.3   118  VAL118      0.0276
     58  CG1      -35.6230   44.1400   -9.8850 C.3   118  VAL118      0.0022
     59  CG2      -37.0610   43.8310  -11.9160 C.3   118  VAL118      0.0022
     60  N        -39.3760   48.5160   -7.7200 N.3   121  TYR121     -0.1241
     61  CA       -39.9290   47.5840   -6.7650 C.3   121  TYR121      0.1605
     62  C        -39.0290   47.3580   -5.5710 C.2   121  TYR121      0.2264
     63  O        -39.5020   47.2890   -4.4350 O.2   121  TYR121     -0.2867
     64  CB       -40.2500   46.2560   -7.4430 C.3   121  TYR121      0.0534
     65  CG       -41.1490   45.3940   -6.6020 C.ar  121  TYR121     -0.0201
     66  CD1      -42.4900   45.6930   -6.4800 C.ar  121  TYR121     -0.0009
     67  CD2      -40.6490   44.3000   -5.9060 C.ar  121  TYR121     -0.0009
     68  CE1      -43.3120   44.9230   -5.7170 C.ar  121  TYR121      0.0417
     69  CE2      -41.4710   43.5200   -5.1300 C.ar  121  TYR121      0.0417
     70  CZ       -42.8040   43.8460   -5.0370 C.ar  121  TYR121      0.1957
     71  OH       -43.6590   43.0880   -4.2780 O.3   121  TYR121     -0.2866
     72  N        -43.3030   46.9230   -0.3030 N.3   126  LYS126     -0.1245
     73  CA       -43.7280   45.5800   -0.7170 C.3   126  LYS126      0.1561
     74  C        -42.5460   44.6220   -0.7800 C.2   126  LYS126      0.2260
     75  O        -42.6360   43.4960   -0.3050 O.2   126  LYS126     -0.2867
     76  CB       -44.4210   45.6220   -2.0790 C.3   126  LYS126      0.0271
     77  CG       -45.8690   46.1720   -2.0310 C.3   126  LYS126      0.0035
     78  CD       -46.4480   46.2600   -3.4370 C.3   126  LYS126      0.0206
     79  CE       -47.9360   46.5660   -3.4140 C.3   126  LYS126      0.1093
     80  NZ       -48.5910   45.2880   -3.0580 N.3   126  LYS126     -0.1314
     81  N        -45.7050   39.4560   -1.6110 N.3   203  VAL203     -0.1245
     82  CA       -44.9540   40.5290   -2.2580 C.3   203  VAL203      0.1561
     83  C        -43.5050   40.6600   -1.8150 C.2   203  VAL203      0.2260
     84  O        -42.6830   41.1260   -2.5910 O.2   203  VAL203     -0.2867
     85  CB       -45.6650   41.8860   -2.1200 C.3   203  VAL203      0.0252
     86  CG1      -46.9750   41.8480   -2.8940 C.3   203  VAL203      0.0019
     87  CG2      -45.9010   42.1910   -0.6430 C.3   203  VAL203      0.0019
     88  N        -42.0970   38.7770   -5.3040 N.3   214  ALA214     -0.1231
     89  CA       -42.6270   37.8690   -6.2980 C.3   214  ALA214      0.1694
     90  C        -43.2150   38.7000   -7.4250 C.2   214  ALA214      0.2592
     91  O        -44.1980   39.4160   -7.2270 O.2   214  ALA214     -0.2718
     92  CB       -43.6960   36.9420   -5.6830 C.3   214  ALA214      0.0304
     93  N        -42.6460   38.6010   -8.6170 N.am  215  CYS215     -0.1970
     94  CA       -43.1840   39.3840   -9.7280 C.3   215  CYS215      0.1712
     95  C        -44.4330   38.7910  -10.3550 C.2   215  CYS215      0.2296
     96  O        -44.8770   39.2660  -11.3900 O.2   215  CYS215     -0.2864
     97  CB       -42.1410   39.5670  -10.8210 C.3   215  CYS215      0.0983
     98  SG       -40.6870   40.4480  -10.2670 S.3   215  CYS215     -0.0798
     99  N        -47.1690   38.2590   -8.3150 N.3   217  ALA217     -0.1231
    100  CA       -48.2990   38.9200   -7.6970 C.3   217  ALA217      0.1694
    101  C        -48.7570   39.9610   -8.7330 C.2   217  ALA217      0.2592
    102  O        -47.9280   40.4780   -9.4960 O.2   217  ALA217     -0.2718
    103  CB       -47.9000   39.5690   -6.3840 C.3   217  ALA217      0.0304
    104  N        -50.0650   40.2230   -8.7680 N.am  218  CYS218     -0.1956
    105  CA       -50.6920   41.2320   -9.6370 C.3   218  CYS218      0.1843
    106  C        -50.8570   40.7840  -11.0840 C.2   218  CYS218      0.2625
    107  O        -51.9650   40.7840  -11.6200 O.2   218  CYS218     -0.2714
    108  CB       -49.9430   42.5820   -9.5330 C.3   218  CYS218      0.0997
    109  SG       -49.8090   42.9200   -7.7630 S.3   218  CYS218     -0.0797
    110  N        -49.7540   40.4160  -11.7230 N.am  219  HIS219     -0.1973
    111  CA       -49.8430   39.7890  -13.0360 C.3   219  HIS219      0.1656
    112  C        -49.2170   38.3930  -12.9350 C.2   219  HIS219      0.2291
    113  O        -47.9920   38.2320  -13.0350 O.2   219  HIS219     -0.2864
    114  CB       -49.2030   40.6400  -14.1370 C.3   219  HIS219      0.0771
    115  CG       -47.9970   41.3940  -13.6930 C.ar  219  HIS219      0.0820
    116  ND1      -46.8790   40.7770  -13.1670 N.ar  219  HIS219     -0.2267
    117  CD2      -47.7320   42.7220  -13.6610 C.ar  219  HIS219      0.1154
    118  CE1      -45.9810   41.6820  -12.8480 C.ar  219  HIS219      0.1986
    119  NE2      -46.4820   42.8740  -13.1320 N.ar  219  HIS219     -0.2212
    120  N        -51.1900   42.4050  -18.2370 N.3   226  ILE226     -0.1245
    121  CA       -51.4840   43.6670  -17.5750 C.3   226  ILE226      0.1561
    122  C        -52.9830   43.8970  -17.4490 C.2   226  ILE226      0.2260
    123  O        -53.4220   44.6870  -16.6180 O.2   226  ILE226     -0.2867
    124  CB       -50.7950   44.8920  -18.2210 C.3   226  ILE226      0.0252
    125  CG1      -51.3460   45.1530  -19.6250 C.3   226  ILE226      0.0019
    126  CG2      -49.2680   44.7110  -18.2040 C.3   226  ILE226      0.0019
    127  CD1      -50.8690   46.4940  -20.2080 C.3   226  ILE226      0.0001
    128  N        -53.3910   42.6240  -14.1230 N.3   229  ALA229     -0.1231
    129  CA       -52.7570   43.5120  -13.1540 C.3   229  ALA229      0.1694
    130  C        -53.6240   44.7460  -12.9170 C.2   229  ALA229      0.2591
    131  O        -53.6210   45.3140  -11.8280 O.2   229  ALA229     -0.2718
    132  CB       -51.3630   43.9280  -13.6380 C.3   229  ALA229      0.0304
    133  N        -54.3630   45.1570  -13.9370 N.am  230  ARG230     -0.1980
    134  CA       -55.2260   46.3250  -13.8050 C.3   230  ARG230      0.1597
    135  C        -56.6490   46.0310  -13.3600 C.2   230  ARG230      0.2287
    136  O        -57.4870   46.9320  -13.3430 O.2   230  ARG230     -0.2864
    137  CB       -55.2810   47.0330  -15.1380 C.3   230  ARG230      0.0334
    138  CG       -53.9930   47.7010  -15.5100 C.3   230  ARG230      0.0492
    139  CD       -53.9280   47.9690  -16.9920 C.3   230  ARG230      0.2205
    140  NE       -52.8880   48.9240  -17.2990 N.pl3 230  ARG230     -0.0865
    141  CZ       -52.6680   49.3760  -18.5180 C.cat 230  ARG230      0.5346
    142  NH1      -53.3610   48.8450  -19.4970 N.pl3 230  ARG230      0.1354
    143  NH2      -51.6980   50.2760  -18.7660 N.pl3 230  ARG230      0.1354
    144  N        -55.6910   42.4360   -6.9300 N.3   235  CYS235     -0.1235
    145  CA       -55.2830   43.0420   -5.6630 C.3   235  CYS235      0.1677
    146  C        -56.0970   42.4860   -4.5230 C.2   235  CYS235      0.2270
    147  O        -55.6590   42.4850   -3.3680 O.2   235  CYS235     -0.2867
    148  CB       -55.4410   44.5760   -5.6820 C.3   235  CYS235      0.0956
    149  SG       -54.9750   45.3710   -7.2100 S.3   235  CYS235     -0.0801
    150  N        -55.1050   49.8570  -10.0630 N.3   285  ALA285     -0.1245
    151  CA       -53.9110   50.2730  -10.8160 C.3   285  ALA285      0.1562
    152  C        -54.0240   51.7180  -11.3060 C.2   285  ALA285      0.2260
    153  O        -53.0420   52.4570  -11.2940 O.2   285  ALA285     -0.2867
    154  CB       -53.6610   49.3500  -11.9840 C.3   285  ALA285      0.0290
    155  N        -50.7010   52.9050   -9.6360 N.3   289  MET289     -0.1230
    156  CA       -49.5260   52.3660  -10.3230 C.3   289  MET289      0.1702
    157  C        -49.3810   52.7560  -11.7840 C.2   289  MET289      0.2593
    158  O        -48.2660   52.8960  -12.2830 O.2   289  MET289     -0.2718
    159  CB       -49.5200   50.8190  -10.2470 C.3   289  MET289      0.0401
    160  CG       -49.4010   50.2800   -8.8260 C.3   289  MET289      0.0596
    161  SD       -49.1190   48.5050   -8.7370 S.3   289  MET289     -0.1393
    162  CE       -47.3590   48.4080   -9.1350 C.3   289  MET289      0.0692
    163  N        -50.4970   52.9230  -12.4750 N.am  290  SER290     -0.1938
    164  CA       -50.4790   52.9520  -13.9460 C.3   290  SER290      0.2055
    165  C        -49.8330   54.1900  -14.5700 C.2   290  SER290      0.2642
    166  O        -49.9040   55.2760  -14.0180 O.2   290  SER290     -0.2714
    167  CB       -51.9090   52.8600  -14.4720 C.3   290  SER290      0.2130
    168  OG       -52.4670   51.5920  -14.1750 O.3   290  SER290     -0.2179
    169  N        -49.2520   54.0120  -15.7530 N.am  291  LEU291     -0.1977
    170  CA       -48.9600   55.1340  -16.6370 C.3   291  LEU291      0.1596
    171  C        -50.2900   55.6310  -17.2020 C.2   291  LEU291      0.2287
    172  O        -51.0440   54.8620  -17.7970 O.2   291  LEU291     -0.2864
    173  CB       -48.0660   54.6800  -17.7840 C.3   291  LEU291      0.0297
    174  CG       -47.8960   55.6210  -18.9780 C.3   291  LEU291      0.0022
    175  CD1      -47.2800   56.9770  -18.5580 C.3   291  LEU291      0.0001
    176  CD2      -47.0250   54.9450  -20.0430 C.3   291  LEU291      0.0001
    177  N        -45.9180   55.7450  -14.5980 N.3   304  ARG304     -0.1245
    178  CA       -46.0290   54.4170  -14.0050 C.3   304  ARG304      0.1563
    179  C        -45.0750   54.2770  -12.8250 C.2   304  ARG304      0.2260
    180  O        -43.9360   54.8020  -12.8520 O.2   304  ARG304     -0.2867
    181  CB       -45.7150   53.3430  -15.0340 C.3   304  ARG304      0.0307
    182  CG       -46.0800   51.9250  -14.5720 C.3   304  ARG304      0.0489
    183  CD       -45.6020   50.9070  -15.5710 C.3   304  ARG304      0.2205
    184  NE       -46.2900   51.0250  -16.8530 N.pl3 304  ARG304     -0.0865
    185  CZ       -45.7070   51.3690  -17.9960 C.cat 304  ARG304      0.5346
    186  NH1      -44.4130   51.6900  -18.0270 N.pl3 304  ARG304      0.1354
    187  NH2      -46.4330   51.4120  -19.1080 N.pl3 304  ARG304      0.1354
    188  N        -43.6870   51.1230   -9.9510 N.3   306  HIS306     -0.1241
    189  CA       -43.7180   49.8280   -9.2660 C.3   306  HIS306      0.1621
    190  C        -43.3020   49.9800   -7.8200 C.2   306  HIS306      0.2264
    191  O        -43.0330   49.0120   -7.1250 O.2   306  HIS306     -0.2867
    192  CB       -42.8560   48.7870   -9.9710 C.3   306  HIS306      0.0745
    193  CG       -43.5870   48.0610  -11.0500 C.ar  306  HIS306      0.0817
    194  ND1      -43.7870   48.6010  -12.3040 N.ar  306  HIS306     -0.2268
    195  CD2      -44.2100   46.8610  -11.0500 C.ar  306  HIS306      0.1154
    196  CE1      -44.4750   47.7520  -13.0400 C.ar  306  HIS306      0.1986
    197  NE2      -44.7350   46.6900  -12.3060 N.ar  306  HIS306     -0.2212
@<TRIPOS>BOND
     1    11     9    1
     2     7     6    1
     3     7     8    1
     4     9     8    2
     5     9    10    1
     6     5     6    1
     7     5     2    1
     8     1     2    1
     9     2     3    1
    10     3    12   am
    11     3     4    2
    12    12    13    1
    13    19    18   ar
    14    13    16    1
    15    13    14    1
    16    16    17    1
    17    17    18    1
    18    14    15    2
    19    18    20   ar
    20   127   125    1
    21   176   174    1
    22   125   124    1
    23    42    43   ar
    24    42    40   ar
    25   142   141    1
    26   187   185    1
    27   174   175    1
    28   174   173    1
    29    43    41   ar
    30   143   141    1
    31    40    39   ar
    32   141   140    2
    33   120   121    1
    34   124   126    1
    35   124   121    1
    36   186   185    1
    37   185   184    2
    38   172   171    2
    39    41    39   ar
    40   173   170    1
    41    34    35    1
    42    39    38    1
    43   121   122    1
    44   122   123    2
    45   140   139    1
    46   171   170    1
    47    35    38    1
    48    35    36    1
    49   139   138    1
    50   184   183    1
    51    52    50   ar
    52   170   169    1
    53    31    30    2
    54    51    50   ar
    55    50    49    1
    56    36    37    2
    57   169   165   am
    58   183   182    1
    59   138   137    1
    60   137   134    1
    61    30    29    1
    62   181   182    1
    63   181   178    1
    64    29    28    1
    65    29    32    1
    66    49    48    1
    67   177   178    1
    68   165   166    2
    69   165   164    1
    70   167   168    1
    71   167   164    1
    72   114   115    1
    73   114   111    1
    74   128   129    1
    75   178   179    1
    76   164   163    1
    77   133   134    1
    78   133   130   am
    79    32    33    1
    80   134   135    1
    81   115   117   ar
    82   115   116   ar
    83    44    45    1
    84   117   119   ar
    85   132   129    1
    86    48    45    1
    87   135   136    2
    88   116   118   ar
    89   129   130    1
    90   119   118   ar
    91   196   197   ar
    92   196   194   ar
    93   111   112    1
    94   111   110    1
    95   113   112    2
    96   130   131    2
    97   180   179    2
    98    45    46    1
    99   163   157   am
   100   197   195   ar
   101   194   193   ar
   102   158   157    2
   103   154   151    1
   104    59    57    1
   105   157   156    1
   106    53    46   am
   107    53    54    1
   108   110   106   am
   109   107   106    2
   110    46    47    2
   111    24    23    2
   112    96    95    2
   113   152   153    2
   114   152   151    1
   115   106   105    1
   116    57    54    1
   117    57    58    1
   118   193   195   ar
   119   193   192    1
   120    97    98    1
   121    97    94    1
   122   151   150    1
   123    54    55    1
   124    23    22    1
   125    95    94    1
   126   156   159    1
   127   156   155    1
   128   159   160    1
   129   192   189    1
   130   188   189    1
   131    22    21    1
   132    22    25    1
   133    94    93    1
   134    55    56    2
   135   105   108    1
   136   105   104    1
   137   108   109    1
   138   102   101    2
   139    21    27    1
   140   189   190    1
   141   162   161    1
   142   160   161    1
   143   104   101   am
   144   101   100    1
   145    93    90   am
   146    25    26    1
   147    99   100    1
   148    27    26    1
   149   190   191    2
   150    60    61    1
   151   100   103    1
   152    64    61    1
   153    64    65    1
   154    90    91    2
   155    90    89    1
   156   149   148    1
   157   144   145    1
   158    61    62    1
   159    65    66   ar
   160    65    67   ar
   161    66    68   ar
   162    89    92    1
   163    89    88    1
   164    67    69   ar
   165    68    70   ar
   166   148   145    1
   167   145   146    1
   168    62    63    2
   169    69    70   ar
   170    70    71    1
   171   146   147    2
   172    78    79    1
   173    78    77    1
   174    79    80    1
   175    86    85    1
   176    84    83    2
   177    82    85    1
   178    82    83    1
   179    82    81    1
   180    85    87    1
   181    76    77    1
   182    76    73    1
   183    74    73    1
   184    74    75    2
   185    73    72    1
