@<TRIPOS>MOLECULE
tmp/4qo5A08.pdb
 75 70 0 0 0
SMALL
GASTEIGER

@<TRIPOS>ATOM
      1  N        -39.7180   43.3570   16.0540 N.3   137  PRO137     -0.2116
      2  CA       -40.0410   42.5540   17.2390 C.3   137  PRO137      0.1372
      3  C        -41.4780   42.7550   17.7150 C.2   137  PRO137      0.2244
      4  O        -42.0920   41.7940   18.1690 O.2   137  PRO137     -0.2868
      5  CB       -39.0250   43.0280   18.2870 C.3   137  PRO137      0.0268
      6  CG       -38.5460   44.3500   17.7990 C.3   137  PRO137      0.0207
      7  CD       -38.6090   44.2960   16.3000 C.3   137  PRO137      0.0892
      8  N        -43.7970   41.1150   15.0100 N.3   140  ARG140     -0.1231
      9  CA       -43.6310   39.6660   15.0790 C.3   140  ARG140      0.1694
     10  C        -44.3450   39.0920   16.2990 C.2   140  ARG140      0.2591
     11  O        -44.8370   37.9530   16.2730 O.2   140  ARG140     -0.2718
     12  CB       -42.1430   39.3050   15.0800 C.3   140  ARG140      0.0321
     13  CG       -41.8490   37.8320   15.2510 C.3   140  ARG140      0.0489
     14  CD       -42.4960   37.0020   14.1450 C.3   140  ARG140      0.2205
     15  NE       -41.9840   35.6330   14.1330 N.pl3 140  ARG140     -0.0865
     16  CZ       -40.7780   35.2970   13.6810 C.cat 140  ARG140      0.5346
     17  NH1      -39.9640   36.2330   13.2070 N.pl3 140  ARG140      0.1354
     18  NH2      -40.3880   34.0290   13.6970 N.pl3 140  ARG140      0.1354
     19  N        -44.4070   39.8810   17.3670 N.am  141  ALA141     -0.1980
     20  CA       -45.1490   39.4770   18.5470 C.3   141  ALA141      0.1597
     21  C        -46.6400   39.3520   18.2230 C.2   141  ALA141      0.2287
     22  O        -47.3240   38.4550   18.7290 O.2   141  ALA141     -0.2864
     23  CB       -44.9190   40.4550   19.6770 C.3   141  ALA141      0.0319
     24  N        -47.0530   36.1830   16.2380 N.3   144  ASN144     -0.1240
     25  CA       -47.0470   35.0880   17.1790 C.3   144  ASN144      0.1653
     26  C        -48.2990   34.9040   18.0080 C.2   144  ASN144      0.2266
     27  O        -48.7680   33.7740   18.1910 O.2   144  ASN144     -0.2867
     28  CB       -45.8940   35.2630   18.1210 C.3   144  ASN144      0.1155
     29  CG       -44.7090   34.5790   17.6350 C.2   144  ASN144      0.2627
     30  OD1      -44.3750   34.6480   16.4320 O.2   144  ASN144     -0.2716
     31  ND2      -44.0840   33.8220   18.5260 N.am  144  ASN144     -0.0877
     32  N        -50.1600   31.1640   17.1640 N.3   148  MET148     -0.1245
     33  CA       -49.5480   30.1470   18.0100 C.3   148  MET148      0.1570
     34  C        -50.3470   30.0180   19.2880 C.2   148  MET148      0.2261
     35  O        -50.9730   30.9760   19.7360 O.2   148  MET148     -0.2867
     36  CB       -48.0860   30.5090   18.3280 C.3   148  MET148      0.0387
     37  CG       -47.2080   30.6380   17.0860 C.3   148  MET148      0.0595
     38  SD       -45.5580   31.3160   17.4040 S.3   148  MET148     -0.1393
     39  CE       -44.7250   29.8920   18.0850 C.3   148  MET148      0.0692
     40  N        -46.3240   28.2230   13.9600 N.3   158  GLY158     -0.1210
     41  CA       -44.9970   28.7780   13.7550 C.3   158  GLY158      0.1956
     42  C        -44.7480   29.1070   12.3050 C.2   158  GLY158      0.2611
     43  O        -45.6530   29.0300   11.4870 O.2   158  GLY158     -0.2717
     44  N        -43.5090   29.4690   11.9830 N.am  159  GLU159     -0.1979
     45  CA       -43.2310   30.0830   10.6870 C.3   159  GLU159      0.1602
     46  C        -43.5130   29.2030    9.4790 C.2   159  GLU159      0.2287
     47  O        -43.9710   29.6940    8.4370 O.2   159  GLU159     -0.2864
     48  CB       -41.7820   30.5910   10.6190 C.3   159  GLU159      0.0415
     49  CG       -41.5200   31.4180    9.3560 C.3   159  GLU159      0.1163
     50  CD       -40.2340   32.2110    9.4120 C.2   159  GLU159      0.3649
     51  OE1      -39.5970   32.2500   10.4870 O.co2 159  GLU159     -0.2457
     52  OE2      -39.8600   32.7920    8.3710 O.co2 159  GLU159     -0.2457
     53  N        -48.1140   30.1840   10.2210 N.3   163  GLN163     -0.1245
     54  CA       -47.7870   31.5070    9.7280 C.3   163  GLN163      0.1566
     55  C        -47.6330   31.4760    8.2110 C.2   163  GLN163      0.2260
     56  O        -47.8940   32.4630    7.5300 O.2   163  GLN163     -0.2867
     57  CB       -46.5490   32.0600   10.4490 C.3   163  GLN163      0.0367
     58  CG       -46.8420   32.2800   11.9300 C.3   163  GLN163      0.0905
     59  CD       -45.6210   32.5080   12.7860 C.2   163  GLN163      0.2608
     60  OE1      -44.4990   32.6490   12.2860 O.2   163  GLN163     -0.2717
     61  NE2      -45.8300   32.5460   14.0990 N.am  163  GLN163     -0.0878
     62  N        -42.9350   40.9530   24.2570 N.3   457  PRO457     -0.2102
     63  CA       -43.9740   41.6870   23.5140 C.3   457  PRO457      0.1504
     64  C        -45.2070   40.8600   23.1010 C.2   457  PRO457      0.2575
     65  O        -46.2470   41.4480   22.7980 O.2   457  PRO457     -0.2718
     66  CB       -43.2370   42.1820   22.2630 C.3   457  PRO457      0.0282
     67  CG       -41.8000   42.0550   22.5570 C.3   457  PRO457      0.0208
     68  CD       -41.6350   40.9660   23.5610 C.3   457  PRO457      0.0893
     69  N        -45.1170   39.5370   23.0790 N.am  458  VAL458     -0.1980
     70  CA       -46.3040   38.7510   22.7520 C.3   458  VAL458      0.1595
     71  C        -47.4130   39.0200   23.7790 C.2   458  VAL458      0.2287
     72  O        -48.5950   38.8910   23.4750 O.2   458  VAL458     -0.2864
     73  CB       -45.9840   37.2350   22.6500 C.3   458  VAL458      0.0276
     74  CG1      -45.6190   36.6750   24.0170 C.3   458  VAL458      0.0022
     75  CG2      -47.1650   36.4720   22.0500 C.3   458  VAL458      0.0022
@<TRIPOS>BOND
     1    56    55    2
     2    55    54    1
     3    52    50   ar
     4    47    46    2
     5    49    50    1
     6    49    48    1
     7    50    51   ar
     8    46    45    1
     9    54    53    1
    10    54    57    1
    11    57    58    1
    12    48    45    1
    13    45    44    1
    14    43    42    2
    15    58    59    1
    16    44    42   am
    17    60    59    2
    18    42    41    1
    19    59    61   am
    20    17    16    1
    21    16    18    1
    22    16    15    2
    23    41    40    1
    24    15    14    1
    25    14    13    1
    26     8     9    1
    27     9    12    1
    28     9    10    1
    29    12    13    1
    30     1     7    1
    31     1     2    1
    32    24    25    1
    33    11    10    2
    34    10    19   am
    35     7     6    1
    36    30    29    2
    37    37    38    1
    38    37    36    1
    39    32    33    1
    40    25    26    1
    41    25    28    1
    42     2     3    1
    43     2     5    1
    44    19    20    1
    45    38    39    1
    46    29    28    1
    47    29    31   am
    48     3     4    2
    49     6     5    1
    50    26    27    2
    51    33    36    1
    52    33    34    1
    53    21    20    1
    54    21    22    2
    55    20    23    1
    56    34    35    2
    57    75    73    1
    58    66    67    1
    59    66    63    1
    60    67    68    1
    61    73    70    1
    62    73    74    1
    63    70    69    1
    64    70    71    1
    65    65    64    2
    66    69    64   am
    67    64    63    1
    68    72    71    2
    69    63    62    1
    70    68    62    1
