@<TRIPOS>MOLECULE
tmp/4qo5A07.pdb
 178 171 0 0 0
SMALL
GASTEIGER

@<TRIPOS>ATOM
      1  N        -68.9610   53.6300   -6.2830 N.3   254  LYS254     -0.1231
      2  CA       -69.5090   53.8100   -7.6210 C.3   254  LYS254      0.1693
      3  C        -68.4840   53.5110   -8.7110 C.2   254  LYS254      0.2592
      4  O        -68.8490   53.0040   -9.7740 O.2   254  LYS254     -0.2718
      5  CB       -70.1180   55.2160   -7.7840 C.3   254  LYS254      0.0285
      6  CG       -71.2150   55.4900   -6.7580 C.3   254  LYS254      0.0035
      7  CD       -71.8980   56.8540   -6.9580 C.3   254  LYS254      0.0206
      8  CE       -72.9810   56.7990   -8.0210 C.3   254  LYS254      0.1093
      9  NZ       -73.7750   58.0810   -8.0580 N.3   254  LYS254     -0.1314
     10  N        -67.2070   53.8160   -8.4690 N.am  255  HIS255     -0.1976
     11  CA       -66.1660   53.4530   -9.4210 C.3   255  HIS255      0.1656
     12  C        -66.2480   51.9560   -9.7180 C.2   255  HIS255      0.2291
     13  O        -66.2030   51.5360  -10.8730 O.2   255  HIS255     -0.2864
     14  CB       -64.7880   53.6960   -8.8350 C.3   255  HIS255      0.0771
     15  CG       -64.4980   55.1340   -8.5680 C.ar  255  HIS255      0.0820
     16  ND1      -63.7900   55.5530   -7.4660 N.ar  255  HIS255     -0.2267
     17  CD2      -64.8320   56.2500   -9.2520 C.ar  255  HIS255      0.1154
     18  CE1      -63.6950   56.8700   -7.4810 C.ar  255  HIS255      0.1986
     19  NE2      -64.3040   57.3090   -8.5590 N.ar  255  HIS255     -0.2212
     20  N        -69.6070   50.7520  -11.6120 N.3   258  ILE258     -0.1245
     21  CA       -69.5330   51.0860  -13.0300 C.3   258  ILE258      0.1561
     22  C        -68.5240   50.1890  -13.7710 C.2   258  ILE258      0.2260
     23  O        -68.7840   49.7350  -14.8910 O.2   258  ILE258     -0.2867
     24  CB       -69.1500   52.5730  -13.2120 C.3   258  ILE258      0.0252
     25  CG1      -70.2770   53.4640  -12.6930 C.3   258  ILE258      0.0019
     26  CG2      -68.9070   52.8930  -14.6730 C.3   258  ILE258      0.0019
     27  CD1      -69.8370   54.9320  -12.5310 C.3   258  ILE258      0.0001
     28  N        -57.2780   57.7120  -19.8030 N.3   275  PRO275     -0.2116
     29  CA       -58.5910   57.9700  -19.1860 C.3   275  PRO275      0.1372
     30  C        -59.5850   58.4280  -20.2380 C.2   275  PRO275      0.2244
     31  O        -59.2320   59.2030  -21.1190 O.2   275  PRO275     -0.2868
     32  CB       -58.3030   59.1020  -18.1920 C.3   275  PRO275      0.0268
     33  CG       -56.8130   58.9240  -17.8530 C.3   275  PRO275      0.0207
     34  CD       -56.1940   58.4790  -19.1540 C.3   275  PRO275      0.0892
     35  N        -60.9710   53.8980  -20.7020 N.3   279  PHE279     -0.1227
     36  CA       -61.7810   53.5080  -19.5450 C.3   279  PHE279      0.1736
     37  C        -62.4680   54.7240  -18.9270 C.2   279  PHE279      0.2596
     38  O        -61.9550   55.8350  -19.0300 O.2   279  PHE279     -0.2718
     39  CB       -60.8970   52.7920  -18.5090 C.3   279  PHE279      0.0547
     40  CG       -59.8520   53.6800  -17.8640 C.ar  279  PHE279     -0.0202
     41  CD1      -58.6060   53.8630  -18.4510 C.ar  279  PHE279     -0.0042
     42  CD2      -60.1150   54.3060  -16.6530 C.ar  279  PHE279     -0.0042
     43  CE1      -57.6400   54.6920  -17.8490 C.ar  279  PHE279     -0.0003
     44  CE2      -59.1700   55.1130  -16.0490 C.ar  279  PHE279     -0.0003
     45  CZ       -57.9170   55.2930  -16.6410 C.ar  279  PHE279     -0.0000
     46  N        -63.6240   54.5190  -18.2970 N.am  280  THR280     -0.1939
     47  CA       -64.3810   55.6190  -17.6980 C.3   280  THR280      0.2028
     48  C        -64.5860   55.4250  -16.1940 C.2   280  THR280      0.2642
     49  O        -65.2410   56.2340  -15.5500 O.2   280  THR280     -0.2714
     50  CB       -65.7470   55.8070  -18.3830 C.3   280  THR280      0.1808
     51  OG1      -66.3740   54.5300  -18.5410 O.3   280  THR280     -0.2208
     52  CG2      -65.5630   56.4420  -19.7580 C.3   280  THR280      0.0379
     53  N        -64.0270   54.3480  -15.6460 N.am  281  ALA281     -0.1963
     54  CA       -64.0520   54.1150  -14.1960 C.3   281  ALA281      0.1713
     55  C        -62.6970   53.5470  -13.8040 C.2   281  ALA281      0.2458
     56  O        -62.1860   52.6660  -14.4810 O.2   281  ALA281     -0.2730
     57  CB       -65.1830   53.1170  -13.8030 C.3   281  ALA281      0.0333
     58  N        -62.1270   54.0370  -12.6920 N.am  282  PRO282     -0.2727
     59  CA       -60.7690   53.6640  -12.2620 C.3   282  PRO282      0.1402
     60  C        -60.7210   52.3630  -11.4540 C.2   282  PRO282      0.2269
     61  O        -61.6270   52.0930  -10.6570 O.2   282  PRO282     -0.2865
     62  CB       -60.3780   54.8310  -11.3630 C.3   282  PRO282      0.0296
     63  CG       -61.7030   55.2560  -10.7450 C.3   282  PRO282      0.0237
     64  CD       -62.7330   55.0540  -11.8130 C.3   282  PRO282      0.0939
     65  N        -55.2210   52.1190  -11.7350 N.3   286  THR286     -0.1203
     66  CA       -55.4320   53.4790  -12.2520 C.3   286  THR286      0.1994
     67  C        -54.9150   54.5240  -11.2860 C.2   286  THR286      0.2618
     68  O        -54.1850   55.4450  -11.6690 O.2   286  THR286     -0.2717
     69  CB       -56.9390   53.7860  -12.5100 C.3   286  THR286      0.1784
     70  OG1      -57.5140   52.7780  -13.3610 O.3   286  THR286     -0.2211
     71  CG2      -57.0810   55.1600  -13.1550 C.3   286  THR286      0.0376
     72  N        -55.2410   54.3540  -10.0120 N.am  287  CYS287     -0.1969
     73  CA       -54.8940   55.3780   -9.0440 C.3   287  CYS287      0.1712
     74  C        -53.5590   55.1370   -8.3610 C.2   287  CYS287      0.2296
     75  O        -52.9680   56.0680   -7.8230 O.2   287  CYS287     -0.2864
     76  CB       -55.9960   55.5050   -8.0120 C.3   287  CYS287      0.0983
     77  SG       -57.5450   56.0420   -8.7990 S.3   287  CYS287     -0.0798
     78  N        -52.2060   62.9170   -6.9420 N.3   403  MET403     -0.1245
     79  CA       -53.3930   62.0610   -6.9390 C.3   403  MET403      0.1570
     80  C        -54.6000   62.8510   -7.4720 C.2   403  MET403      0.2261
     81  O        -55.3780   62.3450   -8.2880 O.2   403  MET403     -0.2867
     82  CB       -53.6870   61.5130   -5.5380 C.3   403  MET403      0.0387
     83  CG       -54.8940   60.5400   -5.4600 C.3   403  MET403      0.0595
     84  SD       -54.5560   58.9470   -6.2520 S.3   403  MET403     -0.1393
     85  CE       -55.5670   59.0710   -7.7100 C.3   403  MET403      0.0692
     86  N        -54.9220   62.8620  -11.1180 N.3   406  ILE406     -0.1231
     87  CA       -55.5980   61.6810  -11.6440 C.3   406  ILE406      0.1692
     88  C        -57.1160   61.8360  -11.5910 C.2   406  ILE406      0.2592
     89  O        -57.7800   61.6340  -12.6020 O.2   406  ILE406     -0.2718
     90  CB       -55.1760   60.3850  -10.9240 C.3   406  ILE406      0.0266
     91  CG1      -53.6750   60.1500  -11.1290 C.3   406  ILE406      0.0019
     92  CG2      -56.0080   59.2000  -11.4420 C.3   406  ILE406      0.0020
     93  CD1      -53.1190   58.9350  -10.3830 C.3   406  ILE406      0.0001
     94  N        -57.6630   62.2070  -10.4290 N.am  407  CYS407     -0.1970
     95  CA       -59.1160   62.4020  -10.3090 C.3   407  CYS407      0.1712
     96  C        -59.6180   63.3990  -11.3350 C.2   407  CYS407      0.2296
     97  O        -60.7590   63.2750  -11.8180 O.2   407  CYS407     -0.2864
     98  CB       -59.5180   62.9520   -8.9430 C.3   407  CYS407      0.0983
     99  SG       -58.6080   62.2770   -7.5810 S.3   407  CYS407     -0.0798
    100  N        -58.9440   63.8790  -14.2930 N.3   409  ALA409     -0.1231
    101  CA       -59.2930   63.3570  -15.6080 C.3   409  ALA409      0.1694
    102  C        -60.8040   63.1890  -15.7230 C.2   409  ALA409      0.2592
    103  O        -61.3510   63.2210  -16.8300 O.2   409  ALA409     -0.2718
    104  CB       -58.5920   62.0270  -15.8700 C.3   409  ALA409      0.0304
    105  N        -61.4790   63.0280  -14.5850 N.am  410  CYS410     -0.1956
    106  CA       -62.9210   62.7080  -14.5880 C.3   410  CYS410      0.1843
    107  C        -63.8090   63.5270  -13.6440 C.2   410  CYS410      0.2625
    108  O        -65.0130   63.2560  -13.5190 O.2   410  CYS410     -0.2714
    109  CB       -63.1040   61.2310  -14.2770 C.3   410  CYS410      0.0997
    110  SG       -62.0670   60.1890  -15.3310 S.3   410  CYS410     -0.0797
    111  N        -63.2170   64.5260  -12.9950 N.am  411  HIS411     -0.1973
    112  CA       -63.8910   65.3210  -11.9770 C.3   411  HIS411      0.1656
    113  C        -63.2200   66.6690  -11.9260 C.2   411  HIS411      0.2291
    114  O        -62.0590   66.7790  -12.2920 O.2   411  HIS411     -0.2864
    115  CB       -63.6610   64.7130  -10.6000 C.3   411  HIS411      0.0771
    116  CG       -64.2990   63.3850  -10.4110 C.ar  411  HIS411      0.0820
    117  ND1      -65.6700   63.2050  -10.4620 N.ar  411  HIS411     -0.2267
    118  CD2      -63.7740   62.1720  -10.1260 C.ar  411  HIS411      0.1154
    119  CE1      -65.9540   61.9390  -10.2450 C.ar  411  HIS411      0.1986
    120  NE2      -64.8150   61.2930  -10.0350 N.ar  411  HIS411     -0.2212
    121  N        -63.8650   69.1060   -6.1950 N.3   415  TYR415     -0.1227
    122  CA       -64.5520   67.8520   -5.8930 C.3   415  TYR415      0.1736
    123  C        -63.5680   66.8400   -5.2770 C.2   415  TYR415      0.2595
    124  O        -63.8200   66.2510   -4.2220 O.2   415  TYR415     -0.2718
    125  CB       -65.0940   67.3170   -7.2200 C.3   415  TYR415      0.0548
    126  CG       -65.9690   66.0760   -7.2110 C.ar  415  TYR415     -0.0200
    127  CD1      -65.4110   64.8100   -7.1690 C.ar  415  TYR415     -0.0009
    128  CD2      -67.3480   66.1810   -7.3500 C.ar  415  TYR415     -0.0009
    129  CE1      -66.2060   63.6710   -7.2190 C.ar  415  TYR415      0.0417
    130  CE2      -68.1540   65.0530   -7.4010 C.ar  415  TYR415      0.0417
    131  CZ       -67.5730   63.8060   -7.3320 C.ar  415  TYR415      0.1957
    132  OH       -68.3690   62.6980   -7.3880 O.3   415  TYR415     -0.2866
    133  N        -62.4410   66.6490   -5.9380 N.am  416  ALA416     -0.1980
    134  CA       -61.4270   65.7210   -5.4390 C.3   416  ALA416      0.1597
    135  C        -60.8000   66.2040   -4.1290 C.2   416  ALA416      0.2287
    136  O        -60.6440   65.4310   -3.1880 O.2   416  ALA416     -0.2864
    137  CB       -60.3610   65.4850   -6.4920 C.3   416  ALA416      0.0319
    138  N        -62.9670   65.5690   -1.0160 N.3   419  ARG419     -0.1231
    139  CA       -62.8370   64.1960   -0.4960 C.3   419  ARG419      0.1694
    140  C        -61.5330   64.0020    0.3000 C.2   419  ARG419      0.2591
    141  O        -61.5270   63.3400    1.3470 O.2   419  ARG419     -0.2718
    142  CB       -62.9250   63.1570   -1.6210 C.3   419  ARG419      0.0321
    143  CG       -64.3170   62.9820   -2.2200 C.3   419  ARG419      0.0489
    144  CD       -65.3350   62.5330   -1.1690 C.3   419  ARG419      0.2205
    145  NE       -64.9900   61.2450   -0.5660 N.pl3 419  ARG419     -0.0865
    146  CZ       -65.8100   60.5460    0.2190 C.cat 419  ARG419      0.5346
    147  NH1      -67.0270   61.0110    0.5010 N.pl3 419  ARG419      0.1354
    148  NH2      -65.4100   59.3850    0.7260 N.pl3 419  ARG419      0.1354
    149  N        -60.4380   64.5890   -0.1760 N.am  420  MET420     -0.1979
    150  CA       -59.1720   64.4400    0.5330 C.3   420  MET420      0.1605
    151  C        -59.2040   65.1940    1.8610 C.2   420  MET420      0.2287
    152  O        -58.5890   64.7610    2.8280 O.2   420  MET420     -0.2864
    153  CB       -57.9630   64.8440   -0.3340 C.3   420  MET420      0.0413
    154  CG       -57.8100   64.0190   -1.6330 C.3   420  MET420      0.0598
    155  SD       -57.7250   62.1990   -1.4210 S.3   420  MET420     -0.1393
    156  CE       -59.4290   61.6540   -1.5990 C.3   420  MET420      0.0692
    157  N        -61.1450   57.2650    1.9960 N.3   485  ALA485     -0.1245
    158  CA       -60.2090   57.4950    0.9020 C.3   485  ALA485      0.1562
    159  C        -60.7380   57.0160   -0.4440 C.2   485  ALA485      0.2260
    160  O        -60.4840   57.6500   -1.4700 O.2   485  ALA485     -0.2867
    161  CB       -58.8630   56.8170    1.1960 C.3   485  ALA485      0.0290
    162  N        -64.0880   55.8850   -1.2350 N.3   487  ASN487     -0.1240
    163  CA       -65.5160   56.0490   -1.4970 C.3   487  ASN487      0.1653
    164  C        -66.3440   54.8270   -1.1500 C.2   487  ASN487      0.2266
    165  O        -67.1950   54.4010   -1.9360 O.2   487  ASN487     -0.2867
    166  CB       -65.7410   56.4320   -2.9600 C.3   487  ASN487      0.1155
    167  CG       -64.8650   57.5710   -3.3890 C.2   487  ASN487      0.2627
    168  OD1      -64.8230   58.6090   -2.7340 O.2   487  ASN487     -0.2716
    169  ND2      -64.1190   57.3700   -4.4640 N.am  487  ASN487     -0.0877
    170  N        -68.9970   52.8910    1.7030 N.3   489  GLN489     -0.1245
    171  CA       -70.1740   53.2820    2.4510 C.3   489  GLN489      0.1566
    172  C        -70.3060   52.3850    3.6820 C.2   489  GLN489      0.2260
    173  O        -70.1270   52.8370    4.8110 O.2   489  GLN489     -0.2867
    174  CB       -71.4250   53.1990    1.5670 C.3   489  GLN489      0.0367
    175  CG       -71.4870   54.2710    0.4650 C.3   489  GLN489      0.0905
    176  CD       -70.8280   53.8320   -0.8370 C.2   489  GLN489      0.2608
    177  OE1      -70.5430   52.6490   -1.0450 O.2   489  GLN489     -0.2717
    178  NE2      -70.5830   54.7880   -1.7210 N.am  489  GLN489     -0.0878
@<TRIPOS>BOND
     1    31    30    2
     2    35    36    1
     3    30    29    1
     4    28    29    1
     5    28    34    1
     6    52    50    1
     7    36    37    1
     8    36    39    1
     9    29    32    1
    10    34    33    1
    11    38    37    2
    12    37    46   am
    13    51    50    1
    14    39    40    1
    15    41    40   ar
    16    41    43   ar
    17    50    47    1
    18    46    47    1
    19    32    33    1
    20    40    42   ar
    21    43    45   ar
    22    47    48    1
    23   103   102    2
    24    42    44   ar
    25    45    44   ar
    26    48    53   am
    27    48    49    2
    28   104   101    1
    29   102   101    1
    30   102   105   am
    31    53    54    1
    32   101   100    1
    33   110   109    1
    34    23    22    2
    35    26    24    1
    36   106   105    1
    37   106   109    1
    38   106   107    1
    39    56    55    2
    40    54    55    1
    41    54    57    1
    42    55    58   am
    43    22    21    1
    44   107   108    2
    45   107   111   am
    46    70    69    1
    47    24    21    1
    48    24    25    1
    49    71    69    1
    50    21    20    1
    51   111   112    1
    52    25    27    1
    53    58    59    1
    54    58    64    1
    55    89    88    2
    56    69    66    1
    57   114   113    2
    58    59    60    1
    59    59    62    1
    60    66    65    1
    61    66    67    1
    62   112   113    1
    63   112   115    1
    64    97    96    2
    65    64    63    1
    66    68    67    2
    67    87    88    1
    68    87    86    1
    69    87    90    1
    70    88    94   am
    71    60    61    2
    72    92    90    1
    73    62    63    1
    74    96    95    1
    75    67    72   am
    76    91    90    1
    77    91    93    1
    78    13    12    2
    79   115   116    1
    80   117   116   ar
    81   117   119   ar
    82    94    95    1
    83   116   118   ar
    84    95    98    1
    85   119   120   ar
    86   118   120   ar
    87    72    73    1
    88     4     3    2
    89    12    11    1
    90    11    14    1
    91    11    10    1
    92    17    15   ar
    93    17    19   ar
    94    73    74    1
    95    73    76    1
    96    98    99    1
    97    14    15    1
    98    77    76    1
    99     3    10   am
   100     3     2    1
   101    15    16   ar
   102    19    18   ar
   103    74    75    2
   104    81    80    2
   105     9     8    1
   106     8     7    1
   107     5     2    1
   108     5     6    1
   109    85    84    1
   110     2     1    1
   111    18    16   ar
   112    80    79    1
   113   130   128   ar
   114   130   131   ar
   115   132   131    1
   116   128   126   ar
   117   131   129   ar
   118   125   126    1
   119   125   122    1
   120   129   127   ar
   121   126   127   ar
   122     7     6    1
   123    78    79    1
   124    79    82    1
   125   137   134    1
   126    84    83    1
   127   121   122    1
   128   133   134    1
   129   133   123   am
   130   122   123    1
   131    82    83    1
   132   134   135    1
   133   123   124    2
   134   169   167   am
   135   135   136    2
   136   167   166    1
   137   167   168    2
   138   166   163    1
   139   143   142    1
   140   143   144    1
   141   165   164    2
   142   178   176   am
   143   154   155    1
   144   154   153    1
   145   142   139    1
   146   156   155    1
   147   163   162    1
   148   163   164    1
   149   160   159    2
   150   144   145    1
   151   177   176    2
   152   138   139    1
   153   176   175    1
   154   145   146    2
   155   139   140    1
   156   159   158    1
   157   153   150    1
   158   149   140   am
   159   149   150    1
   160   146   147    1
   161   146   148    1
   162   140   141    2
   163   175   174    1
   164   150   151    1
   165   158   161    1
   166   158   157    1
   167   174   171    1
   168   170   171    1
   169   151   152    2
   170   171   172    1
   171   172   173    2
