@<TRIPOS>MOLECULE
tmp/4qo5A00.pdb
 191 184 0 0 0
SMALL
GASTEIGER

@<TRIPOS>ATOM
      1  N        -37.5980   22.8400  -27.6150 N.3    22  THR22      -0.1203
      2  CA       -37.4550   21.5660  -26.9270 C.3    22  THR22       0.1994
      3  C        -38.3290   21.4990  -25.6690 C.2    22  THR22       0.2618
      4  O        -39.0310   20.5010  -25.4500 O.2    22  THR22      -0.2717
      5  CB       -35.9880   21.2820  -26.5950 C.3    22  THR22       0.1784
      6  OG1      -35.2190   21.3110  -27.8090 O.3    22  THR22      -0.2211
      7  CG2      -35.8510   19.9120  -25.9530 C.3    22  THR22       0.0376
      8  N        -38.3160   22.5530  -24.8580 N.am   23  CYS23      -0.1969
      9  CA       -39.1930   22.5960  -23.6830 C.3    23  CYS23       0.1712
     10  C        -40.6470   22.4210  -24.0940 C.2    23  CYS23       0.2296
     11  O        -41.3900   21.6620  -23.4720 O.2    23  CYS23      -0.2864
     12  CB       -39.1140   23.9250  -22.9410 C.3    23  CYS23       0.0983
     13  SG       -37.5320   24.7730  -22.9800 S.3    23  CYS23      -0.0798
     14  N        -42.1650   18.9840  -25.1370 N.3    26  CYS26      -0.1221
     15  CA       -42.5250   18.0880  -24.0550 C.3    26  CYS26       0.1808
     16  C        -43.6130   18.6360  -23.1380 C.2    26  CYS26       0.2601
     17  O        -44.5580   17.9230  -22.7820 O.2    26  CYS26      -0.2717
     18  CB       -41.3200   17.7160  -23.2240 C.3    26  CYS26       0.0970
     19  SG       -41.7710   16.3600  -22.1570 S.3    26  CYS26      -0.0800
     20  N        -43.4690   19.8990  -22.7560 N.am   27  HIS27      -0.1975
     21  CA       -44.3780   20.5010  -21.7980 C.3    27  HIS27       0.1656
     22  C        -45.7920   20.6810  -22.3210 C.2    27  HIS27       0.2291
     23  O        -46.7320   20.8020  -21.5390 O.2    27  HIS27      -0.2864
     24  CB       -43.8040   21.8050  -21.2430 C.3    27  HIS27       0.0771
     25  CG       -42.9950   21.5870  -20.0110 C.ar   27  HIS27       0.0820
     26  ND1      -43.5600   21.5380  -18.7570 N.ar   27  HIS27      -0.2267
     27  CD2      -41.6820   21.3020  -19.8460 C.ar   27  HIS27       0.1154
     28  CE1      -42.6280   21.2750  -17.8650 C.ar   27  HIS27       0.1986
     29  NE2      -41.4830   21.1310  -18.5000 N.ar   27  HIS27      -0.2212
     30  N        -47.1030   17.4220  -20.9600 N.3    30  VAL30      -0.1231
     31  CA       -47.0010   17.1300  -19.5260 C.3    30  VAL30       0.1692
     32  C        -47.6150   18.2060  -18.6370 C.2    30  VAL30       0.2592
     33  O        -48.1430   17.9040  -17.5680 O.2    30  VAL30      -0.2718
     34  CB       -45.5590   16.7490  -19.0570 C.3    30  VAL30       0.0266
     35  CG1      -45.0610   15.5370  -19.8280 C.3    30  VAL30       0.0020
     36  CG2      -44.6130   17.8900  -19.2100 C.3    30  VAL30       0.0020
     37  N        -47.5490   19.4530  -19.0840 N.am   31  THR31      -0.1953
     38  CA       -48.1880   20.5660  -18.3850 C.3    31  THR31       0.1897
     39  C        -48.9110   21.4800  -19.3810 C.2    31  THR31       0.2313
     40  O        -48.5240   22.6400  -19.5770 O.2    31  THR31      -0.2863
     41  CB       -47.1920   21.4150  -17.5590 C.3    31  THR31       0.1794
     42  OG1      -46.1830   21.9530  -18.4190 O.3    31  THR31      -0.2208
     43  CG2      -46.5400   20.5980  -16.4370 C.3    31  THR31       0.0378
     44  N        -39.8040   29.4910  -22.3760 N.3    79  CYS79      -0.1221
     45  CA       -39.4700   28.7430  -21.1660 C.3    79  CYS79       0.1808
     46  C        -37.9750   28.8360  -20.8250 C.2    79  CYS79       0.2601
     47  O        -37.6000   29.0460  -19.6770 O.2    79  CYS79      -0.2717
     48  CB       -39.8220   27.2580  -21.3550 C.3    79  CYS79       0.0970
     49  SG       -41.2920   26.9180  -22.4100 S.3    79  CYS79      -0.0800
     50  N        -37.1260   28.6670  -21.8270 N.am   80  TYR80      -0.1976
     51  CA       -35.6920   28.6670  -21.5640 C.3    80  TYR80       0.1639
     52  C        -35.1660   30.0750  -21.2910 C.2    80  TYR80       0.2290
     53  O        -34.2280   30.2560  -20.5110 O.2    80  TYR80      -0.2864
     54  CB       -34.9330   28.0210  -22.7180 C.3    80  TYR80       0.0560
     55  CG       -33.4360   28.0160  -22.4800 C.ar   80  TYR80      -0.0198
     56  CD1      -32.8640   27.0780  -21.6340 C.ar   80  TYR80      -0.0009
     57  CD2      -32.6140   28.9670  -23.0740 C.ar   80  TYR80      -0.0009
     58  CE1      -31.4980   27.0670  -21.3980 C.ar   80  TYR80       0.0417
     59  CE2      -31.2420   28.9640  -22.8410 C.ar   80  TYR80       0.0417
     60  CZ       -30.7000   28.0090  -22.0020 C.ar   80  TYR80       0.1957
     61  OH       -29.3470   27.9870  -21.7500 O.3    80  TYR80      -0.2866
     62  N        -36.2500   30.5250  -17.4330 N.3    83  HIS83      -0.1241
     63  CA       -35.8130   29.5180  -16.4850 C.3    83  HIS83       0.1621
     64  C        -34.3540   29.1350  -16.6350 C.2    83  HIS83       0.2264
     65  O        -33.7980   28.4930  -15.7560 O.2    83  HIS83      -0.2867
     66  CB       -36.6890   28.2660  -16.5830 C.3    83  HIS83       0.0745
     67  CG       -38.0540   28.4710  -16.0250 C.ar   83  HIS83       0.0817
     68  ND1      -38.3130   28.4370  -14.6690 N.ar   83  HIS83      -0.2268
     69  CD2      -39.2340   28.7530  -16.6240 C.ar   83  HIS83       0.1154
     70  CE1      -39.5970   28.6680  -14.4590 C.ar   83  HIS83       0.1986
     71  NE2      -40.1660   28.8500  -15.6300 N.ar   83  HIS83      -0.2212
     72  N        -30.9600   23.2250  -11.4610 N.3    94  ILE94      -0.1245
     73  CA       -30.7790   21.7820  -11.5710 C.3    94  ILE94       0.1561
     74  C        -30.6110   21.3740  -13.0230 C.2    94  ILE94       0.2260
     75  O        -31.0520   22.0750  -13.9270 O.2    94  ILE94      -0.2867
     76  CB       -31.9830   21.0120  -11.0080 C.3    94  ILE94       0.0252
     77  CG1      -33.2720   21.4720  -11.6930 C.3    94  ILE94       0.0019
     78  CG2      -32.0670   21.1990   -9.5020 C.3    94  ILE94       0.0019
     79  CD1      -34.4680   20.5770  -11.4060 C.3    94  ILE94       0.0001
     80  N        -31.7920   19.4030  -16.1570 N.3    96  HIS96      -0.1226
     81  CA       -33.1570   19.1060  -16.5540 C.3    96  HIS96       0.1752
     82  C        -33.1510   18.8540  -18.0460 C.2    96  HIS96       0.2596
     83  O        -33.1530   19.7960  -18.8320 O.2    96  HIS96      -0.2718
     84  CB       -34.0490   20.3000  -16.2330 C.3    96  HIS96       0.0759
     85  CG       -35.5100   20.0190  -16.3700 C.ar   96  HIS96       0.0818
     86  ND1      -36.1760   19.1310  -15.5510 N.ar   96  HIS96      -0.2268
     87  CD2      -36.4330   20.5140  -17.2230 C.ar   96  HIS96       0.1154
     88  CE1      -37.4480   19.0830  -15.8990 C.ar   96  HIS96       0.1986
     89  NE2      -37.6280   19.9120  -16.9110 N.ar   96  HIS96      -0.2212
     90  N        -33.1120   17.5790  -18.4170 N.am   97  PHE97      -0.1976
     91  CA       -33.0780   17.1580  -19.8150 C.3    97  PHE97       0.1639
     92  C        -32.0350   17.8800  -20.6730 C.2    97  PHE97       0.2290
     93  O        -32.2960   18.2530  -21.8190 O.2    97  PHE97      -0.2864
     94  CB       -34.4840   17.2460  -20.3980 C.3    97  PHE97       0.0560
     95  CG       -35.4680   16.4110  -19.6400 C.ar   97  PHE97      -0.0200
     96  CD1      -35.4160   15.0230  -19.7250 C.ar   97  PHE97      -0.0042
     97  CD2      -36.3900   16.9950  -18.7890 C.ar   97  PHE97      -0.0042
     98  CE1      -36.3040   14.2350  -19.0120 C.ar   97  PHE97      -0.0003
     99  CE2      -37.2870   16.2130  -18.0650 C.ar   97  PHE97      -0.0003
    100  CZ       -37.2430   14.8290  -18.1820 C.ar   97  PHE97      -0.0000
    101  N        -30.5330   20.7670  -19.9350 N.3    99  PHE99      -0.1241
    102  CA       -30.5070   22.2000  -19.6780 C.3    99  PHE99       0.1605
    103  C        -30.2620   22.4810  -18.2010 C.2    99  PHE99       0.2264
    104  O        -30.5550   21.6460  -17.3480 O.2    99  PHE99      -0.2867
    105  CB       -31.8400   22.8150  -20.0910 C.3    99  PHE99       0.0534
    106  CG       -32.2370   22.4970  -21.5020 C.ar   99  PHE99      -0.0203
    107  CD1      -33.1590   21.4950  -21.7670 C.ar   99  PHE99      -0.0042
    108  CD2      -31.7020   23.2060  -22.5580 C.ar   99  PHE99      -0.0042
    109  CE1      -33.5300   21.2070  -23.0690 C.ar   99  PHE99      -0.0003
    110  CE2      -32.0670   22.9250  -23.8560 C.ar   99  PHE99      -0.0003
    111  CZ       -32.9820   21.9220  -24.1130 C.ar   99  PHE99      -0.0000
    112  N        -31.6620   24.6310  -15.4830 N.3   101  ILE101     -0.1245
    113  CA       -32.7990   25.5220  -15.2360 C.3   101  ILE101      0.1561
    114  C        -33.1180   25.6460  -13.7530 C.2   101  ILE101      0.2260
    115  O        -32.7640   24.7830  -12.9600 O.2   101  ILE101     -0.2867
    116  CB       -34.0590   25.0690  -16.0090 C.3   101  ILE101      0.0252
    117  CG1      -34.5330   23.7150  -15.5010 C.3   101  ILE101      0.0019
    118  CG2      -33.7890   25.0150  -17.5140 C.3   101  ILE101      0.0019
    119  CD1      -35.8500   23.7670  -14.7540 C.3   101  ILE101      0.0001
    120  N        -36.4970   26.6330  -11.1220 N.3   103  PRO103     -0.2116
    121  CA       -37.9560   26.8260  -11.1650 C.3   103  PRO103      0.1372
    122  C        -38.3830   28.2220  -10.7350 C.2   103  PRO103      0.2244
    123  O        -39.3080   28.7560  -11.3350 O.2   103  PRO103     -0.2868
    124  CB       -38.4750   25.7920  -10.1630 C.3   103  PRO103      0.0268
    125  CG       -37.4180   24.7020  -10.1760 C.3   103  PRO103      0.0207
    126  CD       -36.1210   25.4860  -10.2740 C.3   103  PRO103      0.0892
    127  N        -38.7110   11.8350   -9.0450 N.3   183  THR183     -0.1218
    128  CA       -40.0690   11.3940   -9.3060 C.3   183  THR183      0.1862
    129  C        -40.1580   10.7240  -10.6680 C.2   183  THR183      0.2287
    130  O        -39.2810   10.8860  -11.5130 O.2   183  THR183     -0.2866
    131  CB       -41.0660   12.5680   -9.2720 C.3   183  THR183      0.1770
    132  OG1      -40.9060   13.3750  -10.4460 O.3   183  THR183     -0.2211
    133  CG2      -40.8470   13.4260   -8.0340 C.3   183  THR183      0.0375
    134  N        -42.7820   10.7620  -13.8130 N.3   185  SER185     -0.1202
    135  CA       -43.8420   11.6550  -14.2480 C.3   185  SER185      0.2020
    136  C        -44.1600   11.3870  -15.7090 C.2   185  SER185      0.2618
    137  O        -43.2970   11.5480  -16.5770 O.2   185  SER185     -0.2717
    138  CB       -43.4160   13.1120  -14.0430 C.3   185  SER185      0.2103
    139  OG       -44.5060   13.9970  -14.2150 O.3   185  SER185     -0.2182
    140  N        -45.3970   10.9650  -15.9680 N.am  186  HIS186     -0.1975
    141  CA       -45.8210   10.5510  -17.3040 C.3   186  HIS186      0.1656
    142  C        -44.8610    9.5160  -17.9000 C.2   186  HIS186      0.2291
    143  O        -44.6520    9.4760  -19.1130 O.2   186  HIS186     -0.2864
    144  CB       -45.9380   11.7580  -18.2390 C.3   186  HIS186      0.0771
    145  CG       -46.7770   12.8760  -17.6940 C.ar  186  HIS186      0.0820
    146  ND1      -46.2970   13.7930  -16.7820 N.ar  186  HIS186     -0.2267
    147  CD2      -48.0590   13.2350  -17.9490 C.ar  186  HIS186      0.1154
    148  CE1      -47.2480   14.6670  -16.4960 C.ar  186  HIS186      0.1986
    149  NE2      -48.3280   14.3500  -17.1900 N.ar  186  HIS186     -0.2212
    150  N        -41.6660    9.3600  -17.3200 N.3   188  ILE188     -0.1245
    151  CA       -40.3130    9.9040  -17.3640 C.3   188  ILE188      0.1561
    152  C        -39.7360   10.0650  -15.9600 C.2   188  ILE188      0.2260
    153  O        -40.4150   10.5660  -15.0650 O.2   188  ILE188     -0.2867
    154  CB       -40.3010   11.3050  -18.0170 C.3   188  ILE188      0.0252
    155  CG1      -41.3030   11.3810  -19.1710 C.3   188  ILE188      0.0019
    156  CG2      -38.8980   11.6750  -18.4750 C.3   188  ILE188      0.0019
    157  CD1      -41.5120   12.7950  -19.6990 C.3   188  ILE188      0.0001
    158  N        -37.7580   12.1850  -13.4860 N.3   190  VAL190     -0.1245
    159  CA       -37.4660   13.6140  -13.4020 C.3   190  VAL190      0.1561
    160  C        -37.0790   13.9870  -11.9810 C.2   190  VAL190      0.2260
    161  O        -37.7730   13.6340  -11.0290 O.2   190  VAL190     -0.2867
    162  CB       -38.6930   14.4640  -13.7890 C.3   190  VAL190      0.0252
    163  CG1      -38.3390   15.9650  -13.8290 C.3   190  VAL190      0.0019
    164  CG2      -39.2510   14.0160  -15.1230 C.3   190  VAL190      0.0019
    165  N        -36.8230   16.8890   -9.2110 N.3   192  LEU192     -0.1231
    166  CA       -37.4250   18.1860   -8.9140 C.3   192  LEU192      0.1693
    167  C        -36.7420   18.8050   -7.7080 C.2   192  LEU192      0.2591
    168  O        -36.1720   18.0980   -6.8760 O.2   192  LEU192     -0.2718
    169  CB       -38.9170   18.0240   -8.6060 C.3   192  LEU192      0.0284
    170  CG       -39.7710   17.4030   -9.7100 C.3   192  LEU192      0.0019
    171  CD1      -41.2430   17.3320   -9.2720 C.3   192  LEU192      0.0001
    172  CD2      -39.6290   18.2180  -10.9940 C.3   192  LEU192      0.0001
    173  N        -36.7950   20.1250   -7.6090 N.am  193  VAL193     -0.1980
    174  CA       -36.2100   20.7960   -6.4620 C.3   193  VAL193      0.1595
    175  C        -37.1170   20.6550   -5.2470 C.2   193  VAL193      0.2287
    176  O        -38.3350   20.8080   -5.3520 O.2   193  VAL193     -0.2864
    177  CB       -35.9930   22.3000   -6.7450 C.3   193  VAL193      0.0276
    178  CG1      -35.3910   22.9800   -5.5260 C.3   193  VAL193      0.0022
    179  CG2      -35.0960   22.4850   -7.9630 C.3   193  VAL193      0.0022
    180  N        -38.1380   22.4150   -1.8240 N.3   195  TYR195     -0.1241
    181  CA       -38.0610   23.7110   -1.1550 C.3   195  TYR195      0.1605
    182  C        -38.6840   23.7000    0.2290 C.2   195  TYR195      0.2264
    183  O        -39.5480   22.8690    0.5360 O.2   195  TYR195     -0.2867
    184  CB       -38.8360   24.7790   -1.9350 C.3   195  TYR195      0.0534
    185  CG       -38.3360   25.1090   -3.3140 C.ar  195  TYR195     -0.0201
    186  CD1      -37.2440   25.9680   -3.4930 C.ar  195  TYR195     -0.0009
    187  CD2      -38.9760   24.6060   -4.4430 C.ar  195  TYR195     -0.0009
    188  CE1      -36.8060   26.3000   -4.7500 C.ar  195  TYR195      0.0417
    189  CE2      -38.5360   24.9310   -5.7180 C.ar  195  TYR195      0.0417
    190  CZ       -37.4480   25.7870   -5.8550 C.ar  195  TYR195      0.1957
    191  OH       -36.9960   26.1210   -7.0980 O.3   195  TYR195     -0.2866
@<TRIPOS>BOND
     1     6     5    1
     2     1     2    1
     3     2     5    1
     4     2     3    1
     5     5     7    1
     6     3     4    2
     7     3     8   am
     8    14    15    1
     9     8     9    1
    10   111   110   ar
    11   111   109   ar
    12    10     9    1
    13    10    11    2
    14    15    18    1
    15    15    16    1
    16   110   108   ar
    17     9    12    1
    18    18    19    1
    19    16    17    2
    20    16    20   am
    21    57    59   ar
    22    57    55   ar
    23   109   107   ar
    24    13    12    1
    25    59    60   ar
    26    20    21    1
    27    54    55    1
    28    54    51    1
    29   108   106   ar
    30    55    56   ar
    31    49    48    1
    32    44    45    1
    33    22    21    1
    34    22    23    2
    35    60    61    1
    36    60    58   ar
    37    50    51    1
    38    50    46   am
    39    93    92    2
    40    21    24    1
    41   107   106   ar
    42    56    58   ar
    43    51    52    1
    44   106   105    1
    45    48    45    1
    46    52    53    2
    47    24    25    1
    48    45    46    1
    49    30    31    1
    50    46    47    2
    51    92    91    1
    52    94    91    1
    53    94    95    1
    54   105   102    1
    55    25    27   ar
    56    25    26   ar
    57   101   102    1
    58    27    29   ar
    59    35    34    1
    60    91    90    1
    61    96    95   ar
    62    96    98   ar
    63   157   155    1
    64   102   103    1
    65    95    97   ar
    66    40    39    2
    67    31    34    1
    68    31    32    1
    69    39    38    1
    70    36    34    1
    71   155   154    1
    72   143   142    2
    73    37    32   am
    74    37    38    1
    75    98   100   ar
    76    83    82    2
    77    97    99   ar
    78    26    28   ar
    79    32    33    2
    80    29    28   ar
    81   156   154    1
    82    42    41    1
    83    90    82   am
    84    38    41    1
    85   144   145    1
    86   144   141    1
    87   103   104    2
    88   100    99   ar
    89    82    81    1
    90   154   151    1
    91   147   145   ar
    92   147   149   ar
    93   142   141    1
    94   145   146   ar
    95    41    43    1
    96   118   116    1
    97    62    63    1
    98   151   150    1
    99   151   152    1
   100   141   140    1
   101    87    89   ar
   102    87    85   ar
   103   149   148   ar
   104    89    88   ar
   105   146   148   ar
   106    64    63    1
   107    64    65    2
   108    69    67   ar
   109    69    71   ar
   110    66    63    1
   111    66    67    1
   112   137   136    2
   113    81    84    1
   114    81    80    1
   115    85    84    1
   116    85    86   ar
   117    67    68   ar
   118   116   117    1
   119   116   113    1
   120   140   136   am
   121   152   153    2
   122    88    86   ar
   123   136   135    1
   124    71    70   ar
   125   117   119    1
   126   112   113    1
   127   113   114    1
   128   164   162    1
   129    68    70   ar
   130   135   138    1
   131   135   134    1
   132   139   138    1
   133    75    74    2
   134   163   162    1
   135   162   159    1
   136   114   115    2
   137   158   159    1
   138   159   160    1
   139    74    73    1
   140   160   161    2
   141    77    79    1
   142    77    76    1
   143    73    72    1
   144    73    76    1
   145   130   129    2
   146   123   122    2
   147   121   120    1
   148   121   122    1
   149   121   124    1
   150   120   126    1
   151    76    78    1
   152   172   170    1
   153   129   128    1
   154   132   131    1
   155   126   125    1
   156   125   124    1
   157   170   171    1
   158   170   169    1
   159   128   131    1
   160   128   127    1
   161   131   133    1
   162   165   166    1
   163   166   169    1
   164   166   167    1
   165   179   177    1
   166   167   173   am
   167   167   168    2
   168   173   174    1
   169   191   190    1
   170   177   174    1
   171   177   178    1
   172   174   175    1
   173   190   189   ar
   174   190   188   ar
   175   189   187   ar
   176   176   175    2
   177   188   186   ar
   178   187   185   ar
   179   186   185   ar
   180   185   184    1
   181   184   181    1
   182   180   181    1
   183   181   182    1
   184   182   183    2
