@<TRIPOS>MOLECULE
tmp/4qo5A05.pdb
 205 194 0 0 0
SMALL
GASTEIGER

@<TRIPOS>ATOM
      1  N        -41.8610   49.2870    0.0090 N.3   125  SER125     -0.1202
      2  CA       -42.2760   48.5520    1.2010 C.3   125  SER125      0.2020
      3  C        -42.7040   47.1240    0.8760 C.2   125  SER125      0.2618
      4  O        -42.4970   46.2230    1.6880 O.2   125  SER125     -0.2717
      5  CB       -43.4410   49.2730    1.8880 C.3   125  SER125      0.2103
      6  OG       -43.1200   50.6290    2.1240 O.3   125  SER125     -0.2182
      7  N        -43.3030   46.9230   -0.3030 N.am  126  LYS126     -0.1979
      8  CA       -43.7280   45.5800   -0.7170 C.3   126  LYS126      0.1596
      9  C        -42.5460   44.6220   -0.7800 C.2   126  LYS126      0.2287
     10  O        -42.6360   43.4960   -0.3050 O.2   126  LYS126     -0.2864
     11  CB       -44.4210   45.6220   -2.0790 C.3   126  LYS126      0.0298
     12  CG       -45.8690   46.1720   -2.0310 C.3   126  LYS126      0.0038
     13  CD       -46.4480   46.2600   -3.4370 C.3   126  LYS126      0.0206
     14  CE       -47.9360   46.5660   -3.4140 C.3   126  LYS126      0.1093
     15  NZ       -48.5910   45.2880   -3.0580 N.3   126  LYS126     -0.1314
     16  N        -41.5040   43.4000    2.6110 N.3   129  ALA129     -0.1245
     17  CA       -42.6580   43.0370    3.4340 C.3   129  ALA129      0.1562
     18  C        -42.3900   41.9120    4.4280 C.2   129  ALA129      0.2260
     19  O        -42.9440   41.9190    5.5210 O.2   129  ALA129     -0.2867
     20  CB       -43.8910   42.6920    2.5570 C.3   129  ALA129      0.0290
     21  N        -40.2750   43.6980    7.1230 N.3   132  ASN132     -0.1240
     22  CA       -41.1430   44.6670    7.8080 C.3   132  ASN132      0.1653
     23  C        -42.0140   44.0100    8.8640 C.2   132  ASN132      0.2266
     24  O        -42.2030   44.5520    9.9550 O.2   132  ASN132     -0.2867
     25  CB       -42.0010   45.4520    6.8170 C.3   132  ASN132      0.1155
     26  CG       -41.1890   46.4460    6.0000 C.2   132  ASN132      0.2627
     27  OD1      -40.0810   46.8090    6.3810 O.2   132  ASN132     -0.2716
     28  ND2      -41.7360   46.8760    4.8630 N.am  132  ASN132     -0.0877
     29  N        -48.5360   34.2330    3.4970 N.3   169  ALA169     -0.1231
     30  CA       -49.1420   34.0750    2.1760 C.3   169  ALA169      0.1694
     31  C        -49.2340   35.4210    1.4380 C.2   169  ALA169      0.2592
     32  O        -49.1140   35.4910    0.2110 O.2   169  ALA169     -0.2718
     33  CB       -50.5340   33.4410    2.2890 C.3   169  ALA169      0.0304
     34  N        -49.4750   36.4940    2.1770 N.am  170  CYS170     -0.1956
     35  CA       -49.5350   37.8010    1.5380 C.3   170  CYS170      0.1843
     36  C        -48.2380   38.5560    1.6110 C.2   170  CYS170      0.2625
     37  O        -47.8660   39.2180    0.6480 O.2   170  CYS170     -0.2714
     38  CB       -50.6010   38.6580    2.1790 C.3   170  CYS170      0.0997
     39  SG       -52.1740   37.8000    1.9470 S.3   170  CYS170     -0.0797
     40  N        -47.5810   38.4790    2.7650 N.am  171  HIS171     -0.1973
     41  CA       -46.3380   39.2150    2.9940 C.3   171  HIS171      0.1656
     42  C        -45.1100   38.5780    2.3290 C.2   171  HIS171      0.2291
     43  O        -44.1510   39.2790    1.9950 O.2   171  HIS171     -0.2864
     44  CB       -46.0680   39.3660    4.5050 C.3   171  HIS171      0.0771
     45  CG       -46.9460   40.3780    5.1770 C.ar  171  HIS171      0.0820
     46  ND1      -46.4980   41.6380    5.5240 N.ar  171  HIS171     -0.2267
     47  CD2      -48.2430   40.3160    5.5700 C.ar  171  HIS171      0.1154
     48  CE1      -47.4810   42.3080    6.0960 C.ar  171  HIS171      0.1986
     49  NE2      -48.5450   41.5270    6.1390 N.ar  171  HIS171     -0.2212
     50  N        -46.2460   33.2950   -3.0680 N.3   201  HIS201     -0.1226
     51  CA       -46.1190   34.4510   -3.9560 C.3   201  HIS201      0.1752
     52  C        -46.4810   35.7660   -3.2730 C.2   201  HIS201      0.2597
     53  O        -47.0760   36.6420   -3.8800 O.2   201  HIS201     -0.2718
     54  CB       -46.9130   34.2170   -5.2470 C.3   201  HIS201      0.0759
     55  CG       -46.5790   32.9070   -5.8960 C.ar  201  HIS201      0.0818
     56  ND1      -47.1830   31.7250   -5.5210 N.ar  201  HIS201     -0.2268
     57  CD2      -45.6490   32.5800   -6.8260 C.ar  201  HIS201      0.1154
     58  CE1      -46.6560   30.7260   -6.2130 C.ar  201  HIS201      0.1986
     59  NE2      -45.7240   31.2180   -7.0130 N.ar  201  HIS201     -0.2212
     60  N        -46.1270   35.8840   -1.9930 N.am  202  GLY202     -0.1942
     61  CA       -46.3240   37.1280   -1.2760 C.3   202  GLY202      0.2014
     62  C        -45.3550   38.1860   -1.7890 C.2   202  GLY202      0.2638
     63  O        -44.3000   37.8660   -2.3290 O.2   202  GLY202     -0.2714
     64  N        -45.7050   39.4560   -1.6110 N.am  203  VAL203     -0.1977
     65  CA       -44.9540   40.5290   -2.2580 C.3   203  VAL203      0.1596
     66  C        -43.5050   40.6600   -1.8150 C.2   203  VAL203      0.2287
     67  O        -42.6830   41.1260   -2.5910 O.2   203  VAL203     -0.2864
     68  CB       -45.6650   41.8860   -2.1200 C.3   203  VAL203      0.0276
     69  CG1      -46.9750   41.8480   -2.8940 C.3   203  VAL203      0.0022
     70  CG2      -45.9010   42.1910   -0.6430 C.3   203  VAL203      0.0022
     71  N        -47.1690   38.2590   -8.3150 N.3   217  ALA217     -0.1231
     72  CA       -48.2990   38.9200   -7.6970 C.3   217  ALA217      0.1694
     73  C        -48.7570   39.9610   -8.7330 C.2   217  ALA217      0.2592
     74  O        -47.9280   40.4780   -9.4960 O.2   217  ALA217     -0.2718
     75  CB       -47.9000   39.5690   -6.3840 C.3   217  ALA217      0.0304
     76  N        -50.0650   40.2230   -8.7680 N.am  218  CYS218     -0.1970
     77  CA       -50.6920   41.2320   -9.6370 C.3   218  CYS218      0.1712
     78  C        -50.8570   40.7840  -11.0840 C.2   218  CYS218      0.2296
     79  O        -51.9650   40.7840  -11.6200 O.2   218  CYS218     -0.2864
     80  CB       -49.9430   42.5820   -9.5330 C.3   218  CYS218      0.0983
     81  SG       -49.8090   42.9200   -7.7630 S.3   218  CYS218     -0.0798
     82  N        -53.3910   42.6240  -14.1230 N.3   229  ALA229     -0.1245
     83  CA       -52.7570   43.5120  -13.1540 C.3   229  ALA229      0.1562
     84  C        -53.6240   44.7460  -12.9170 C.2   229  ALA229      0.2260
     85  O        -53.6210   45.3140  -11.8280 O.2   229  ALA229     -0.2867
     86  CB       -51.3630   43.9280  -13.6380 C.3   229  ALA229      0.0290
     87  N        -57.2360   41.0140   -8.8660 N.3   234  THR234     -0.1203
     88  CA       -55.8810   40.6070   -8.5670 C.3   234  THR234      0.1994
     89  C        -55.3560   41.1830   -7.2340 C.2   234  THR234      0.2618
     90  O        -54.6820   40.4890   -6.4850 O.2   234  THR234     -0.2717
     91  CB       -54.9400   40.9030   -9.7380 C.3   234  THR234      0.1784
     92  OG1      -53.7920   40.0810   -9.5880 O.3   234  THR234     -0.2211
     93  CG2      -54.5250   42.3890   -9.8030 C.3   234  THR234      0.0376
     94  N        -55.6910   42.4360   -6.9300 N.am  235  CYS235     -0.1969
     95  CA       -55.2830   43.0420   -5.6630 C.3   235  CYS235      0.1712
     96  C        -56.0970   42.4860   -4.5230 C.2   235  CYS235      0.2296
     97  O        -55.6590   42.4850   -3.3680 O.2   235  CYS235     -0.2864
     98  CB       -55.4410   44.5760   -5.6820 C.3   235  CYS235      0.0983
     99  SG       -54.9750   45.3710   -7.2100 S.3   235  CYS235     -0.0798
    100  N        -56.5570   39.5360   -3.9540 N.3   237  GLN237     -0.1231
    101  CA       -55.9150   38.3570   -3.3830 C.3   237  GLN237      0.1698
    102  C        -55.5340   38.6870   -1.9450 C.2   237  GLN237      0.2592
    103  O        -55.6260   37.8440   -1.0610 O.2   237  GLN237     -0.2718
    104  CB       -54.6530   37.9470   -4.1780 C.3   237  GLN237      0.0381
    105  CG       -53.9990   36.6330   -3.6690 C.3   237  GLN237      0.0905
    106  CD       -52.5640   36.4080   -4.1640 C.2   237  GLN237      0.2608
    107  OE1      -52.0630   37.1330   -5.0160 O.2   237  GLN237     -0.2717
    108  NE2      -51.9110   35.3750   -3.6300 N.am  237  GLN237     -0.0878
    109  N        -55.1010   39.9300   -1.7180 N.am  238  CYS238     -0.1956
    110  CA       -54.4840   40.2900   -0.4400 C.3   238  CYS238      0.1843
    111  C        -55.0610   41.5300    0.2170 C.2   238  CYS238      0.2625
    112  O        -54.8200   41.7800    1.3990 O.2   238  CYS238     -0.2714
    113  CB       -53.0070   40.5310   -0.6630 C.3   238  CYS238      0.0997
    114  SG       -52.3050   39.0820   -1.3830 S.3   238  CYS238     -0.0797
    115  N        -55.7970   42.3320   -0.5390 N.am  239  HIS239     -0.1973
    116  CA       -56.3270   43.5600    0.0550 C.3   239  HIS239      0.1656
    117  C        -57.8130   43.4280    0.3760 C.2   239  HIS239      0.2291
    118  O        -58.6510   44.0390   -0.2900 O.2   239  HIS239     -0.2864
    119  CB       -56.1000   44.7650   -0.8530 C.3   239  HIS239      0.0771
    120  CG       -54.6780   45.2090   -0.8910 C.ar  239  HIS239      0.0820
    121  ND1      -54.2210   46.3040   -0.1880 N.ar  239  HIS239     -0.2267
    122  CD2      -53.5990   44.6740   -1.5020 C.ar  239  HIS239      0.1154
    123  CE1      -52.9250   46.4430   -0.3920 C.ar  239  HIS239      0.1986
    124  NE2      -52.5260   45.4560   -1.1700 N.ar  239  HIS239     -0.2212
    125  N        -57.8040   49.7740   -9.1050 N.3   284  CYS284     -0.1221
    126  CA       -56.6620   49.9510   -8.2050 C.3   284  CYS284      0.1808
    127  C        -55.4540   50.4900   -8.9490 C.2   284  CYS284      0.2601
    128  O        -54.8440   51.4660   -8.5210 O.2   284  CYS284     -0.2717
    129  CB       -56.2600   48.6280   -7.5770 C.3   284  CYS284      0.0970
    130  SG       -57.6050   47.4770   -7.3270 S.3   284  CYS284     -0.0800
    131  N        -55.1050   49.8570  -10.0630 N.am  285  ALA285     -0.1979
    132  CA       -53.9110   50.2730  -10.8160 C.3   285  ALA285      0.1597
    133  C        -54.0240   51.7180  -11.3060 C.2   285  ALA285      0.2287
    134  O        -53.0420   52.4570  -11.2940 O.2   285  ALA285     -0.2864
    135  CB       -53.6610   49.3500  -11.9840 C.3   285  ALA285      0.0319
    136  N        -53.0900   53.8930   -8.3960 N.3   288  HIS288     -0.1226
    137  CA       -51.9220   53.5030   -7.6100 C.3   288  HIS288      0.1752
    138  C        -50.6330   53.2150   -8.3410 C.2   288  HIS288      0.2595
    139  O        -49.5750   53.2890   -7.7230 O.2   288  HIS288     -0.2718
    140  CB       -52.2650   52.2980   -6.7370 C.3   288  HIS288      0.0759
    141  CG       -53.1170   52.6670   -5.5800 C.ar  288  HIS288      0.0818
    142  ND1      -52.6440   53.4280   -4.5340 N.ar  288  HIS288     -0.2268
    143  CD2      -54.4350   52.4670   -5.3410 C.ar  288  HIS288      0.1154
    144  CE1      -53.6220   53.6500   -3.6780 C.ar  288  HIS288      0.1986
    145  NE2      -54.7070   53.0520   -4.1330 N.ar  288  HIS288     -0.2212
    146  N        -50.7010   52.9050   -9.6360 N.am  289  MET289     -0.1979
    147  CA       -49.5260   52.3660  -10.3230 C.3   289  MET289      0.1605
    148  C        -49.3810   52.7560  -11.7840 C.2   289  MET289      0.2287
    149  O        -48.2660   52.8960  -12.2830 O.2   289  MET289     -0.2864
    150  CB       -49.5200   50.8190  -10.2470 C.3   289  MET289      0.0413
    151  CG       -49.4010   50.2800   -8.8260 C.3   289  MET289      0.0598
    152  SD       -49.1190   48.5050   -8.7370 S.3   289  MET289     -0.1393
    153  CE       -47.3590   48.4080   -9.1350 C.3   289  MET289      0.0692
    154  N        -45.2910   51.5030   -5.0370 N.3   308  VAL308     -0.1231
    155  CA       -46.5860   52.1240   -4.7510 C.3   308  VAL308      0.1692
    156  C        -46.5190   53.2060   -3.6730 C.2   308  VAL308      0.2592
    157  O        -47.3670   54.0980   -3.6500 O.2   308  VAL308     -0.2718
    158  CB       -47.6640   51.0930   -4.3900 C.3   308  VAL308      0.0266
    159  CG1      -47.8390   50.1140   -5.5370 C.3   308  VAL308      0.0020
    160  CG2      -47.2840   50.3600   -3.1310 C.3   308  VAL308      0.0020
    161  N        -45.5230   53.1260   -2.7900 N.am  309  ASP309     -0.1974
    162  CA       -45.3390   54.1190   -1.7270 C.3   309  ASP309      0.1709
    163  C        -45.2850   55.5510   -2.2680 C.2   309  ASP309      0.2293
    164  O        -45.7270   56.4970   -1.6030 O.2   309  ASP309     -0.2864
    165  CB       -44.0190   53.8810   -0.9660 C.3   309  ASP309      0.1436
    166  CG       -43.8500   52.4450   -0.4900 C.2   309  ASP309      0.3671
    167  OD1      -42.7030   52.0810   -0.1460 O.co2 309  ASP309     -0.2456
    168  OD2      -44.8460   51.6880   -0.4660 O.co2 309  ASP309     -0.2456
    169  N        -48.4360   57.7220   -2.1110 N.3   312  LEU312     -0.1245
    170  CA       -49.1620   57.8660   -0.8530 C.3   312  LEU312      0.1561
    171  C        -48.5820   58.9710    0.0240 C.2   312  LEU312      0.2260
    172  O        -47.3590   59.0430    0.2070 O.2   312  LEU312     -0.2867
    173  CB       -49.1350   56.5380   -0.0930 C.3   312  LEU312      0.0270
    174  CG       -49.5200   55.2980   -0.8970 C.3   312  LEU312      0.0019
    175  CD1      -49.2000   54.0200   -0.1020 C.3   312  LEU312      0.0001
    176  CD2      -50.9970   55.3320   -1.2910 C.3   312  LEU312      0.0001
    177  N        -50.0740   57.2010    5.6550 N.3   315  ARG315     -0.1245
    178  CA       -50.3170   55.7630    5.8430 C.3   315  ARG315      0.1563
    179  C        -51.6300   55.5620    6.5830 C.2   315  ARG315      0.2260
    180  O        -51.7490   55.9320    7.7540 O.2   315  ARG315     -0.2867
    181  CB       -49.1700   55.1100    6.6250 C.3   315  ARG315      0.0307
    182  CG       -49.2730   53.5690    6.6930 C.3   315  ARG315      0.0489
    183  CD       -48.4550   52.9400    5.5870 C.3   315  ARG315      0.2205
    184  NE       -48.6650   51.5000    5.4160 N.pl3 315  ARG315     -0.0865
    185  CZ       -47.8320   50.5630    5.8590 C.cat 315  ARG315      0.5346
    186  NH1      -46.7280   50.8890    6.5330 N.pl3 315  ARG315      0.1354
    187  NH2      -48.0970   49.2870    5.6230 N.pl3 315  ARG315      0.1354
    188  N        -46.4960   59.0680    5.3880 N.3   325  MET325     -0.1245
    189  CA       -45.8600   57.8930    4.7890 C.3   325  MET325      0.1570
    190  C        -44.3590   57.8150    5.1280 C.2   325  MET325      0.2261
    191  O        -43.6610   58.8170    5.0900 O.2   325  MET325     -0.2867
    192  CB       -46.0550   57.9430    3.2710 C.3   325  MET325      0.0387
    193  CG       -45.7800   56.6490    2.5540 C.3   325  MET325      0.0595
    194  SD       -47.0150   55.4170    3.0340 S.3   325  MET325     -0.1393
    195  CE       -46.1660   53.9170    2.5380 C.3   325  MET325      0.0692
    196  N        -39.3280   49.5340    6.7180 N.3   331  HIS331     -0.1241
    197  CA       -40.0490   50.0030    7.8910 C.3   331  HIS331      0.1621
    198  C        -39.4900   49.4730    9.2040 C.2   331  HIS331      0.2264
    199  O        -39.6450   50.1160   10.2490 O.2   331  HIS331     -0.2867
    200  CB       -41.5370   49.6400    7.7660 C.3   331  HIS331      0.0745
    201  CG       -42.2100   50.2720    6.5860 C.ar  331  HIS331      0.0817
    202  ND1      -43.4600   49.8880    6.1490 N.ar  331  HIS331     -0.2268
    203  CD2      -41.8080   51.2630    5.7550 C.ar  331  HIS331      0.1154
    204  CE1      -43.7940   50.6100    5.0930 C.ar  331  HIS331      0.1986
    205  NE2      -42.8100   51.4550    4.8360 N.ar  331  HIS331     -0.2212
@<TRIPOS>BOND
     1    82    83    1
     2    86    83    1
     3    83    84    1
     4    84    85    2
     5   149   148    2
     6   135   132    1
     7   148   147    1
     8    79    78    2
     9   133   134    2
    10   133   132    1
    11    78    77    1
    12   132   131    1
    13   147   150    1
    14   147   146    1
    15   150   151    1
    16   131   127   am
    17    93    91    1
    18    91    92    1
    19    91    88    1
    20    77    80    1
    21    77    76    1
    22   146   138   am
    23    80    81    1
    24    74    73    2
    25   153   152    1
    26   125   126    1
    27   127   128    2
    28   127   126    1
    29    87    88    1
    30   151   152    1
    31    76    73   am
    32    73    72    1
    33    88    89    1
    34   136   137    1
    35   138   139    2
    36   138   137    1
    37    71    72    1
    38   126   129    1
    39    72    75    1
    40   137   140    1
    41   129   130    1
    42    89    94   am
    43    89    90    2
    44    99    98    1
    45    59    57   ar
    46    59    58   ar
    47    94    95    1
    48    57    55   ar
    49   140   141    1
    50    58    56   ar
    51    55    56   ar
    52    55    54    1
    53    98    95    1
    54    95    96    1
    55   141   143   ar
    56   141   142   ar
    57   159   158    1
    58   143   145   ar
    59    54    51    1
    60   154   155    1
    61   107   106    2
    62   155   158    1
    63   155   156    1
    64   142   144   ar
    65    96    97    2
    66   158   160    1
    67   104   105    1
    68   104   101    1
    69   106   105    1
    70   106   108   am
    71   145   144   ar
    72    51    52    1
    73    51    50    1
    74   100   101    1
    75    53    52    2
    76   156   157    2
    77   156   161   am
    78    13    14    1
    79    13    12    1
    80    14    15    1
    81   101   102    1
    82    52    60   am
    83    69    68    1
    84   161   162    1
    85    67    66    2
    86    63    62    2
    87   163   162    1
    88   163   164    2
    89    65    68    1
    90    65    66    1
    91    65    64    1
    92    68    70    1
    93   169   170    1
    94    11    12    1
    95    11     8    1
    96    60    61    1
    97   102   109   am
    98   102   103    2
    99    62    64   am
   100    62    61    1
   101   162   165    1
   102   109   110    1
   103   122   124   ar
   104   122   120   ar
   105   114   113    1
   106   176   174    1
   107   124   123   ar
   108   165   166    1
   109   174   175    1
   110   174   173    1
   111   120   119    1
   112   120   121   ar
   113   170   173    1
   114   170   171    1
   115   119   116    1
   116     9     8    1
   117     9    10    2
   118     8     7    1
   119   113   110    1
   120   115   116    1
   121   115   111   am
   122   166   168   ar
   123   166   167   ar
   124   110   111    1
   125   123   121   ar
   126     7     3   am
   127   118   117    2
   128     1     2    1
   129   171   172    2
   130   116   117    1
   131    32    31    2
   132   111   112    2
   133    37    36    2
   134     3     2    1
   135     3     4    2
   136     2     5    1
   137    31    30    1
   138    31    34   am
   139    35    36    1
   140    35    34    1
   141    35    38    1
   142    36    40   am
   143     5     6    1
   144    39    38    1
   145    43    42    2
   146    30    33    1
   147    30    29    1
   148    42    41    1
   149   195   194    1
   150   193   194    1
   151   193   192    1
   152    20    17    1
   153    16    17    1
   154    40    41    1
   155    41    44    1
   156   192   189    1
   157    17    18    1
   158    18    19    2
   159    44    45    1
   160   189   190    1
   161   189   188    1
   162   205   204   ar
   163   205   203   ar
   164    28    26   am
   165   191   190    2
   166   204   202   ar
   167    45    46   ar
   168    45    47   ar
   169   184   183    1
   170   184   185    2
   171    46    48   ar
   172    47    49   ar
   173   183   182    1
   174   187   185    1
   175   177   178    1
   176   203   201   ar
   177   178   179    1
   178   178   181    1
   179   185   186    1
   180    26    27    2
   181    26    25    1
   182    48    49   ar
   183   202   201   ar
   184   179   180    2
   185   201   200    1
   186   181   182    1
   187   196   197    1
   188    25    22    1
   189    21    22    1
   190   200   197    1
   191    22    23    1
   192   197   198    1
   193    23    24    2
   194   198   199    2
