@<TRIPOS>MOLECULE
tmp/4qo5A03.pdb
 219 210 0 0 0
SMALL
GASTEIGER

@<TRIPOS>ATOM
      1  N        -41.8610   49.2870    0.0090 N.3   125  SER125     -0.1217
      2  CA       -42.2760   48.5520    1.2010 C.3   125  SER125      0.1889
      3  C        -42.7040   47.1240    0.8760 C.2   125  SER125      0.2288
      4  O        -42.4970   46.2230    1.6880 O.2   125  SER125     -0.2866
      5  CB       -43.4410   49.2730    1.8880 C.3   125  SER125      0.2089
      6  OG       -43.1200   50.6290    2.1240 O.3   125  SER125     -0.2183
      7  N        -40.2750   43.6980    7.1230 N.3   132  ASN132     -0.1225
      8  CA       -41.1430   44.6670    7.8080 C.3   132  ASN132      0.1785
      9  C        -42.0140   44.0100    8.8640 C.2   132  ASN132      0.2597
     10  O        -42.2030   44.5520    9.9550 O.2   132  ASN132     -0.2718
     11  CB       -42.0010   45.4520    6.8170 C.3   132  ASN132      0.1169
     12  CG       -41.1890   46.4460    6.0000 C.2   132  ASN132      0.2627
     13  OD1      -40.0810   46.8090    6.3810 O.2   132  ASN132     -0.2716
     14  ND2      -41.7360   46.8760    4.8630 N.am  132  ASN132     -0.0877
     15  N        -42.5180   42.8200    8.5430 N.am  133  LEU133     -0.1980
     16  CA       -43.3590   42.0640    9.4520 C.3   133  LEU133      0.1596
     17  C        -42.5460   41.2470   10.4480 C.2   133  LEU133      0.2287
     18  O        -42.7160   41.3740   11.6610 O.2   133  LEU133     -0.2864
     19  CB       -44.2780   41.1160    8.6600 C.3   133  LEU133      0.0297
     20  CG       -45.2710   40.3430    9.5170 C.3   133  LEU133      0.0022
     21  CD1      -46.1290   41.3510   10.2560 C.3   133  LEU133      0.0001
     22  CD2      -46.1280   39.4240    8.6570 C.3   133  LEU133      0.0001
     23  N        -44.1500   43.7250   15.7360 N.3   139  TYR139     -0.1241
     24  CA       -45.0840   43.1550   14.7700 C.3   139  TYR139      0.1605
     25  C        -44.9970   41.6350   14.7840 C.2   139  TYR139      0.2264
     26  O        -45.9960   40.9470   14.5920 O.2   139  TYR139     -0.2867
     27  CB       -44.8470   43.6850   13.3510 C.3   139  TYR139      0.0534
     28  CG       -44.9300   45.2040   13.2460 C.ar  139  TYR139     -0.0201
     29  CD1      -45.4200   45.9670   14.2980 C.ar  139  TYR139     -0.0009
     30  CD2      -44.5120   45.8660   12.0950 C.ar  139  TYR139     -0.0009
     31  CE1      -45.4790   47.3530   14.2140 C.ar  139  TYR139      0.0417
     32  CE2      -44.5770   47.2530   11.9980 C.ar  139  TYR139      0.0417
     33  CZ       -45.0580   47.9850   13.0610 C.ar  139  TYR139      0.1957
     34  OH       -45.1140   49.3600   12.9760 O.3   139  TYR139     -0.2866
     35  N        -47.1360   40.2430   17.3660 N.3   142  LEU142     -0.1231
     36  CA       -48.5270   40.1800   16.9220 C.3   142  LEU142      0.1693
     37  C        -48.7470   38.9330   16.0630 C.2   142  LEU142      0.2591
     38  O        -49.7460   38.2220   16.2250 O.2   142  LEU142     -0.2718
     39  CB       -48.9100   41.4420   16.1470 C.3   142  LEU142      0.0284
     40  CG       -50.3780   41.5070   15.6960 C.3   142  LEU142      0.0019
     41  CD1      -51.3080   41.3690   16.8940 C.3   142  LEU142      0.0001
     42  CD2      -50.6440   42.8110   14.9570 C.3   142  LEU142      0.0001
     43  N        -47.8050   38.6700   15.1570 N.am  143  VAL143     -0.1980
     44  CA       -47.8310   37.4500   14.3500 C.3   143  VAL143      0.1595
     45  C        -47.9480   36.2460   15.2650 C.2   143  VAL143      0.2287
     46  O        -48.8400   35.4050   15.1170 O.2   143  VAL143     -0.2864
     47  CB       -46.5550   37.2940   13.4860 C.3   143  VAL143      0.0276
     48  CG1      -46.4620   35.8790   12.9210 C.3   143  VAL143      0.0022
     49  CG2      -46.5230   38.3310   12.3650 C.3   143  VAL143      0.0022
     50  N        -51.1420   35.6800   17.2170 N.3   146  SER146     -0.1202
     51  CA       -52.2840   35.4160   16.3510 C.3   146  SER146      0.2020
     52  C        -52.2730   34.0230   15.7440 C.2   146  SER146      0.2619
     53  O        -53.2730   33.5920   15.1930 O.2   146  SER146     -0.2717
     54  CB       -52.3490   36.4490   15.2230 C.3   146  SER146      0.2103
     55  OG       -52.4470   37.7650   15.7320 O.3   146  SER146     -0.2182
     56  N        -51.1400   33.3250   15.8250 N.am  147  THR147     -0.1952
     57  CA       -50.9660   32.0900   15.0680 C.3   147  THR147      0.1897
     58  C        -50.3360   30.9600   15.8650 C.2   147  THR147      0.2313
     59  O        -50.0010   29.9170   15.3070 O.2   147  THR147     -0.2863
     60  CB       -50.0690   32.3260   13.8460 C.3   147  THR147      0.1794
     61  OG1      -48.7930   32.8030   14.2960 O.3   147  THR147     -0.2208
     62  CG2      -50.6940   33.3530   12.9050 C.3   147  THR147      0.0378
     63  N        -50.9810   31.7340    6.6490 N.3   166  SER166     -0.1202
     64  CA       -51.6640   32.9900    7.0050 C.3   166  SER166      0.2020
     65  C        -50.8770   34.2460    6.6160 C.2   166  SER166      0.2619
     66  O        -50.8360   34.5950    5.4350 O.2   166  SER166     -0.2717
     67  CB       -52.0870   33.0120    8.4850 C.3   166  SER166      0.2103
     68  OG       -51.0140   32.8060    9.3710 O.3   166  SER166     -0.2182
     69  N        -50.2320   34.8930    7.5780 N.am  167  CYS167     -0.1969
     70  CA       -49.5480   36.1750    7.2950 C.3   167  CYS167      0.1712
     71  C        -48.6020   36.0760    6.1100 C.2   167  CYS167      0.2296
     72  O        -48.5690   36.9700    5.2730 O.2   167  CYS167     -0.2864
     73  CB       -48.7250   36.6830    8.4650 C.3   167  CYS167      0.0983
     74  SG       -49.2970   36.3370   10.1060 S.3   167  CYS167     -0.0798
     75  N        -48.5360   34.2330    3.4970 N.3   169  ALA169     -0.1231
     76  CA       -49.1420   34.0750    2.1760 C.3   169  ALA169      0.1694
     77  C        -49.2340   35.4210    1.4380 C.2   169  ALA169      0.2592
     78  O        -49.1140   35.4910    0.2110 O.2   169  ALA169     -0.2718
     79  CB       -50.5340   33.4410    2.2890 C.3   169  ALA169      0.0304
     80  N        -49.4750   36.4940    2.1770 N.am  170  CYS170     -0.1956
     81  CA       -49.5350   37.8010    1.5380 C.3   170  CYS170      0.1843
     82  C        -48.2380   38.5560    1.6110 C.2   170  CYS170      0.2625
     83  O        -47.8660   39.2180    0.6480 O.2   170  CYS170     -0.2714
     84  CB       -50.6010   38.6580    2.1790 C.3   170  CYS170      0.0997
     85  SG       -52.1740   37.8000    1.9470 S.3   170  CYS170     -0.0797
     86  N        -47.5810   38.4790    2.7650 N.am  171  HIS171     -0.1973
     87  CA       -46.3380   39.2150    2.9940 C.3   171  HIS171      0.1656
     88  C        -45.1100   38.5780    2.3290 C.2   171  HIS171      0.2291
     89  O        -44.1510   39.2790    1.9950 O.2   171  HIS171     -0.2864
     90  CB       -46.0680   39.3660    4.5050 C.3   171  HIS171      0.0771
     91  CG       -46.9460   40.3780    5.1770 C.ar  171  HIS171      0.0820
     92  ND1      -46.4980   41.6380    5.5240 N.ar  171  HIS171     -0.2267
     93  CD2      -48.2430   40.3160    5.5700 C.ar  171  HIS171      0.1154
     94  CE1      -47.4810   42.3080    6.0960 C.ar  171  HIS171      0.1986
     95  NE2      -48.5450   41.5270    6.1390 N.ar  171  HIS171     -0.2212
     96  N        -56.5570   39.5360   -3.9540 N.3   237  GLN237     -0.1231
     97  CA       -55.9150   38.3570   -3.3830 C.3   237  GLN237      0.1698
     98  C        -55.5340   38.6870   -1.9450 C.2   237  GLN237      0.2592
     99  O        -55.6260   37.8440   -1.0610 O.2   237  GLN237     -0.2718
    100  CB       -54.6530   37.9470   -4.1780 C.3   237  GLN237      0.0381
    101  CG       -53.9990   36.6330   -3.6690 C.3   237  GLN237      0.0905
    102  CD       -52.5640   36.4080   -4.1640 C.2   237  GLN237      0.2608
    103  OE1      -52.0630   37.1330   -5.0160 O.2   237  GLN237     -0.2717
    104  NE2      -51.9110   35.3750   -3.6300 N.am  237  GLN237     -0.0878
    105  N        -55.1010   39.9300   -1.7180 N.am  238  CYS238     -0.1956
    106  CA       -54.4840   40.2900   -0.4400 C.3   238  CYS238      0.1843
    107  C        -55.0610   41.5300    0.2170 C.2   238  CYS238      0.2625
    108  O        -54.8200   41.7800    1.3990 O.2   238  CYS238     -0.2714
    109  CB       -53.0070   40.5310   -0.6630 C.3   238  CYS238      0.0997
    110  SG       -52.3050   39.0820   -1.3830 S.3   238  CYS238     -0.0797
    111  N        -55.7970   42.3320   -0.5390 N.am  239  HIS239     -0.1959
    112  CA       -56.3270   43.5600    0.0550 C.3   239  HIS239      0.1787
    113  C        -57.8130   43.4280    0.3760 C.2   239  HIS239      0.2620
    114  O        -58.6510   44.0390   -0.2900 O.2   239  HIS239     -0.2715
    115  CB       -56.1000   44.7650   -0.8530 C.3   239  HIS239      0.0785
    116  CG       -54.6780   45.2090   -0.8910 C.ar  239  HIS239      0.0821
    117  ND1      -54.2210   46.3040   -0.1880 N.ar  239  HIS239     -0.2267
    118  CD2      -53.5990   44.6740   -1.5020 C.ar  239  HIS239      0.1154
    119  CE1      -52.9250   46.4430   -0.3920 C.ar  239  HIS239      0.1986
    120  NE2      -52.5260   45.4560   -1.1700 N.ar  239  HIS239     -0.2212
    121  N        -58.1050   42.6640    1.4310 N.am  240  LEU240     -0.1977
    122  CA       -59.4580   42.3480    1.8420 C.3   240  LEU240      0.1596
    123  C        -59.7660   42.7010    3.2860 C.2   240  LEU240      0.2287
    124  O        -58.8830   42.8330    4.1310 O.2   240  LEU240     -0.2864
    125  CB       -59.7130   40.8390    1.7120 C.3   240  LEU240      0.0297
    126  CG       -59.7290   40.1710    0.3540 C.3   240  LEU240      0.0022
    127  CD1      -60.1250   38.6970    0.5400 C.3   240  LEU240      0.0001
    128  CD2      -60.7010   40.8890   -0.5580 C.3   240  LEU240      0.0001
    129  N        -58.8630   43.7240    7.7380 N.3   243  ASP243     -0.1225
    130  CA       -57.6870   44.5440    8.0490 C.3   243  ASP243      0.1805
    131  C        -57.3140   45.5390    6.9670 C.2   243  ASP243      0.2597
    132  O        -56.8390   46.6520    7.2490 O.2   243  ASP243     -0.2718
    133  CB       -56.4700   43.6560    8.3950 C.3   243  ASP243      0.1424
    134  CG       -56.2150   42.5300    7.3670 C.2   243  ASP243      0.3668
    135  OD1      -55.0260   42.3160    6.9950 O.co2 243  ASP243     -0.2456
    136  OD2      -57.1750   41.8190    6.9690 O.co2 243  ASP243     -0.2456
    137  N        -57.5100   45.1500    5.7150 N.am  244  VAL244     -0.1980
    138  CA       -57.0190   45.9720    4.6150 C.3   244  VAL244      0.1595
    139  C        -58.0370   45.9880    3.4710 C.2   244  VAL244      0.2287
    140  O        -57.7050   45.6590    2.3390 O.2   244  VAL244     -0.2864
    141  CB       -55.6270   45.4480    4.1220 C.3   244  VAL244      0.0276
    142  CG1      -54.5300   45.7630    5.1450 C.3   244  VAL244      0.0022
    143  CG2      -55.6630   43.9290    3.8750 C.3   244  VAL244      0.0022
    144  N        -48.4360   57.7220   -2.1110 N.3   312  LEU312     -0.1245
    145  CA       -49.1620   57.8660   -0.8530 C.3   312  LEU312      0.1561
    146  C        -48.5820   58.9710    0.0240 C.2   312  LEU312      0.2260
    147  O        -47.3590   59.0430    0.2070 O.2   312  LEU312     -0.2867
    148  CB       -49.1350   56.5380   -0.0930 C.3   312  LEU312      0.0270
    149  CG       -49.5200   55.2980   -0.8970 C.3   312  LEU312      0.0019
    150  CD1      -49.2000   54.0200   -0.1020 C.3   312  LEU312      0.0001
    151  CD2      -50.9970   55.3320   -1.2910 C.3   312  LEU312      0.0001
    152  N        -50.0740   57.2010    5.6550 N.3   315  ARG315     -0.1231
    153  CA       -50.3170   55.7630    5.8430 C.3   315  ARG315      0.1694
    154  C        -51.6300   55.5620    6.5830 C.2   315  ARG315      0.2592
    155  O        -51.7490   55.9320    7.7540 O.2   315  ARG315     -0.2718
    156  CB       -49.1700   55.1100    6.6250 C.3   315  ARG315      0.0321
    157  CG       -49.2730   53.5690    6.6930 C.3   315  ARG315      0.0489
    158  CD       -48.4550   52.9400    5.5870 C.3   315  ARG315      0.2205
    159  NE       -48.6650   51.5000    5.4160 N.pl3 315  ARG315     -0.0865
    160  CZ       -47.8320   50.5630    5.8590 C.cat 315  ARG315      0.5346
    161  NH1      -46.7280   50.8890    6.5330 N.pl3 315  ARG315      0.1354
    162  NH2      -48.0970   49.2870    5.6230 N.pl3 315  ARG315      0.1354
    163  N        -52.6130   54.9830    5.8970 N.am  316  LEU316     -0.1966
    164  CA       -53.9460   54.7670    6.4690 C.3   316  LEU316      0.1728
    165  C        -53.9980   53.5340    7.3650 C.2   316  LEU316      0.2616
    166  O        -54.9210   53.3980    8.1700 O.2   316  LEU316     -0.2715
    167  CB       -54.9960   54.6080    5.3640 C.3   316  LEU316      0.0311
    168  CG       -55.1780   55.7640    4.3770 C.3   316  LEU316      0.0022
    169  CD1      -56.3960   55.4900    3.4870 C.3   316  LEU316      0.0001
    170  CD2      -55.3030   57.1140    5.0930 C.3   316  LEU316      0.0001
    171  N        -53.0220   52.6310    7.2030 N.am  317  PHE317     -0.1974
    172  CA       -52.8840   51.4570    8.0530 C.3   317  PHE317      0.1639
    173  C        -52.2520   51.8940    9.3690 C.2   317  PHE317      0.2290
    174  O        -51.0690   52.2570    9.4140 O.2   317  PHE317     -0.2864
    175  CB       -51.9860   50.4380    7.3420 C.3   317  PHE317      0.0560
    176  CG       -51.9840   49.0620    7.9470 C.ar  317  PHE317     -0.0200
    177  CD1      -50.9380   48.6560    8.7590 C.ar  317  PHE317     -0.0042
    178  CD2      -52.9900   48.1510    7.6510 C.ar  317  PHE317     -0.0042
    179  CE1      -50.8980   47.3890    9.2980 C.ar  317  PHE317     -0.0003
    180  CE2      -52.9580   46.8740    8.1850 C.ar  317  PHE317     -0.0003
    181  CZ       -51.9070   46.4860    9.0070 C.ar  317  PHE317     -0.0000
    182  N        -50.4330   52.2590   12.8020 N.3   319  LEU319     -0.1245
    183  CA       -49.3770   51.5690   13.5350 C.3   319  LEU319      0.1561
    184  C        -48.8900   52.3530   14.7550 C.2   319  LEU319      0.2260
    185  O        -47.7150   52.7270   14.8130 O.2   319  LEU319     -0.2867
    186  CB       -48.2070   51.2780   12.5930 C.3   319  LEU319      0.0270
    187  CG       -48.5590   50.3500   11.4230 C.3   319  LEU319      0.0019
    188  CD1      -47.4710   50.3710   10.3440 C.3   319  LEU319      0.0001
    189  CD2      -48.8230   48.9170   11.9230 C.3   319  LEU319      0.0001
    190  N        -39.3280   49.5340    6.7180 N.3   331  HIS331     -0.1241
    191  CA       -40.0490   50.0030    7.8910 C.3   331  HIS331      0.1621
    192  C        -39.4900   49.4730    9.2040 C.2   331  HIS331      0.2264
    193  O        -39.6450   50.1160   10.2490 O.2   331  HIS331     -0.2867
    194  CB       -41.5370   49.6400    7.7660 C.3   331  HIS331      0.0745
    195  CG       -42.2100   50.2720    6.5860 C.ar  331  HIS331      0.0817
    196  ND1      -43.4600   49.8880    6.1490 N.ar  331  HIS331     -0.2268
    197  CD2      -41.8080   51.2630    5.7550 C.ar  331  HIS331      0.1154
    198  CE1      -43.7940   50.6100    5.0930 C.ar  331  HIS331      0.1986
    199  NE2      -42.8100   51.4550    4.8360 N.ar  331  HIS331     -0.2212
    200  N        -56.4790   48.0650   13.9220 N.3   474  LEU474     -0.1245
    201  CA       -56.2190   47.1650   12.8030 C.3   474  LEU474      0.1561
    202  C        -57.4260   46.8950   11.9060 C.2   474  LEU474      0.2260
    203  O        -57.2750   46.6910   10.6940 O.2   474  LEU474     -0.2867
    204  CB       -55.6530   45.8250   13.3140 C.3   474  LEU474      0.0270
    205  CG       -55.2070   44.8030   12.2790 C.3   474  LEU474      0.0019
    206  CD1      -53.9960   45.3200   11.5220 C.3   474  LEU474      0.0001
    207  CD2      -54.8890   43.4700   12.9600 C.3   474  LEU474      0.0001
    208  N        -59.8870   53.7520    5.0110 N.3   482  TYR482     -0.1241
    209  CA       -59.9340   53.1950    3.6590 C.3   482  TYR482      0.1605
    210  C        -61.2150   53.6010    2.9240 C.2   482  TYR482      0.2264
    211  O        -61.1860   53.9440    1.7280 O.2   482  TYR482     -0.2867
    212  CB       -59.9140   51.6600    3.7220 C.3   482  TYR482      0.0534
    213  CG       -58.5450   51.0130    3.7240 C.ar  482  TYR482     -0.0201
    214  CD1      -57.5110   51.4910    4.5190 C.ar  482  TYR482     -0.0009
    215  CD2      -58.3040   49.8960    2.9430 C.ar  482  TYR482     -0.0009
    216  CE1      -56.2570   50.8550    4.5230 C.ar  482  TYR482      0.0417
    217  CE2      -57.0650   49.2610    2.9430 C.ar  482  TYR482      0.0417
    218  CZ       -56.0510   49.7450    3.7230 C.ar  482  TYR482      0.1957
    219  OH       -54.8280   49.0920    3.7030 O.3   482  TYR482     -0.2866
@<TRIPOS>BOND
     1   103   102    2
     2   100   101    1
     3   100    97    1
     4   102   101    1
     5   102   104   am
     6    96    97    1
     7    97    98    1
     8   144   145    1
     9    98   105   am
    10    98    99    2
    11   105   106    1
    12   118   120   ar
    13   118   116   ar
    14   110   109    1
    15   151   149    1
    16   120   119   ar
    17   149   150    1
    18   149   148    1
    19   116   115    1
    20   116   117   ar
    21   115   112    1
    22   145   148    1
    23   145   146    1
    24   109   106    1
    25   128   126    1
    26   111   112    1
    27   111   107   am
    28   106   107    1
    29   119   117   ar
    30   114   113    2
    31     1     2    1
    32   146   147    2
    33   112   113    1
    34    78    77    2
    35   107   108    2
    36   126   127    1
    37   126   125    1
    38   113   121   am
    39    83    82    2
    40     3     2    1
    41     3     4    2
    42     2     5    1
    43   121   122    1
    44    77    76    1
    45    77    80   am
    46    81    82    1
    47    81    80    1
    48    81    84    1
    49    82    86   am
    50   125   122    1
    51   211   210    2
    52   122   123    1
    53     5     6    1
    54    85    84    1
    55    89    88    2
    56    76    79    1
    57    76    75    1
    58    88    87    1
    59   140   139    2
    60    86    87    1
    61   210   209    1
    62   217   215   ar
    63   217   218   ar
    64   215   213   ar
    65    87    90    1
    66   123   124    2
    67   139   138    1
    68   169   168    1
    69   209   212    1
    70   209   208    1
    71   219   218    1
    72   212   213    1
    73   218   216   ar
    74   213   214   ar
    75   143   141    1
    76   141   138    1
    77   141   142    1
    78   168   170    1
    79   168   167    1
    80    90    91    1
    81   214   216   ar
    82   138   137    1
    83   199   198   ar
    84   199   197   ar
    85    14    12   am
    86   198   196   ar
    87    91    92   ar
    88    91    93   ar
    89    72    71    2
    90   167   164    1
    91   159   158    1
    92   159   160    2
    93    66    65    2
    94    92    94   ar
    95    93    95   ar
    96   158   157    1
    97   162   160    1
    98   152   153    1
    99   137   131   am
   100   197   195   ar
   101   153   154    1
   102   153   156    1
   103   160   161    1
   104   163   164    1
   105   163   154   am
   106    12    13    2
   107    12    11    1
   108    94    95   ar
   109    71    70    1
   110   196   195   ar
   111   164   165    1
   112   154   155    2
   113   195   194    1
   114    65    64    1
   115    65    69   am
   116   156   157    1
   117    63    64    1
   118   190   191    1
   119    11     8    1
   120   131   132    2
   121   131   130    1
   122   136   134   ar
   123   135   134   ar
   124    64    67    1
   125     7     8    1
   126   171   165   am
   127   171   172    1
   128    70    69    1
   129    70    73    1
   130   175   176    1
   131   175   172    1
   132   165   166    2
   133   134   133    1
   134   178   176   ar
   135   178   180   ar
   136   129   130    1
   137   194   191    1
   138     8     9    1
   139   191   192    1
   140   176   177   ar
   141   130   133    1
   142   172   173    1
   143   180   181   ar
   144    73    74    1
   145    67    68    1
   146    15     9   am
   147    15    16    1
   148    22    20    1
   149    19    16    1
   150    19    20    1
   151   177   179   ar
   152     9    10    2
   153   181   179   ar
   154   192   193    2
   155   173   174    2
   156    16    17    1
   157    20    21    1
   158   188   187    1
   159    17    18    2
   160   203   202    2
   161   187   189    1
   162   187   186    1
   163   206   205    1
   164   202   201    1
   165    32    30   ar
   166    32    33   ar
   167    30    28   ar
   168   205   207    1
   169   205   204    1
   170    49    47    1
   171   186   183    1
   172   182   183    1
   173   201   204    1
   174   201   200    1
   175    62    60    1
   176    48    47    1
   177    34    33    1
   178    33    31   ar
   179    28    27    1
   180    28    29   ar
   181    27    24    1
   182    47    44    1
   183   183   184    1
   184    60    61    1
   185    60    57    1
   186    31    29   ar
   187    44    43    1
   188    44    45    1
   189    26    25    2
   190   184   185    2
   191    24    25    1
   192    24    23    1
   193    42    40    1
   194    57    56    1
   195    57    58    1
   196    46    45    2
   197    43    37   am
   198    53    52    2
   199    54    55    1
   200    54    51    1
   201    59    58    2
   202    40    39    1
   203    40    41    1
   204    52    56   am
   205    52    51    1
   206    37    38    2
   207    37    36    1
   208    39    36    1
   209    51    50    1
   210    36    35    1
