@<TRIPOS>MOLECULE
tmp/4qo5A06.pdb
 221 218 0 0 0
SMALL
GASTEIGER

@<TRIPOS>ATOM
      1  N        -59.4780   44.7020  -10.4650 N.3   232  PRO232     -0.2116
      2  CA       -59.5340   44.7530   -8.9960 C.3   232  PRO232      0.1372
      3  C        -59.3090   43.3820   -8.3600 C.2   232  PRO232      0.2244
      4  O        -58.8700   43.2920   -7.2140 O.2   232  PRO232     -0.2868
      5  CB       -60.9770   45.2030   -8.7330 C.3   232  PRO232      0.0268
      6  CG       -61.7450   44.6390   -9.9220 C.3   232  PRO232      0.0207
      7  CD       -60.8130   44.8120  -11.0880 C.3   232  PRO232      0.0892
      8  N        -55.6910   42.4360   -6.9300 N.3   235  CYS235     -0.1235
      9  CA       -55.2830   43.0420   -5.6630 C.3   235  CYS235      0.1677
     10  C        -56.0970   42.4860   -4.5230 C.2   235  CYS235      0.2270
     11  O        -55.6590   42.4850   -3.3680 O.2   235  CYS235     -0.2867
     12  CB       -55.4410   44.5760   -5.6820 C.3   235  CYS235      0.0956
     13  SG       -54.9750   45.3710   -7.2100 S.3   235  CYS235     -0.0801
     14  N        -55.7970   42.3320   -0.5390 N.3   239  HIS239     -0.1241
     15  CA       -56.3270   43.5600    0.0550 C.3   239  HIS239      0.1621
     16  C        -57.8130   43.4280    0.3760 C.2   239  HIS239      0.2264
     17  O        -58.6510   44.0390   -0.2900 O.2   239  HIS239     -0.2867
     18  CB       -56.1000   44.7650   -0.8530 C.3   239  HIS239      0.0745
     19  CG       -54.6780   45.2090   -0.8910 C.ar  239  HIS239      0.0817
     20  ND1      -54.2210   46.3040   -0.1880 N.ar  239  HIS239     -0.2268
     21  CD2      -53.5990   44.6740   -1.5020 C.ar  239  HIS239      0.1154
     22  CE1      -52.9250   46.4430   -0.3920 C.ar  239  HIS239      0.1986
     23  NE2      -52.5260   45.4560   -1.1700 N.ar  239  HIS239     -0.2212
     24  N        -59.3820   47.2370    0.9580 N.3   246  ALA246     -0.1231
     25  CA       -59.4300   48.0720   -0.2350 C.3   246  ALA246      0.1694
     26  C        -60.3070   47.4610   -1.3480 C.2   246  ALA246      0.2592
     27  O        -61.0950   48.1750   -1.9820 O.2   246  ALA246     -0.2718
     28  CB       -58.0250   48.4310   -0.7150 C.3   246  ALA246      0.0304
     29  N        -60.2450   46.1420   -1.5340 N.am  247  PHE247     -0.1976
     30  CA       -61.0860   45.5100   -2.5420 C.3   247  PHE247      0.1639
     31  C        -62.5680   45.6850   -2.2390 C.2   247  PHE247      0.2290
     32  O        -63.3690   45.9500   -3.1350 O.2   247  PHE247     -0.2864
     33  CB       -60.7690   44.0140   -2.7010 C.3   247  PHE247      0.0560
     34  CG       -61.6270   43.3300   -3.7150 C.ar  247  PHE247     -0.0200
     35  CD1      -61.3580   43.4720   -5.0640 C.ar  247  PHE247     -0.0042
     36  CD2      -62.7100   42.5520   -3.3230 C.ar  247  PHE247     -0.0042
     37  CE1      -62.1350   42.8510   -6.0140 C.ar  247  PHE247     -0.0003
     38  CE2      -63.5040   41.9280   -4.2690 C.ar  247  PHE247     -0.0003
     39  CZ       -63.2120   42.0740   -5.6220 C.ar  247  PHE247     -0.0000
     40  N        -63.7070   49.3230   -2.6670 N.3   250  TRP250     -0.1241
     41  CA       -63.8140   49.6490   -4.0890 C.3   250  TRP250      0.1605
     42  C        -65.0270   49.0000   -4.7480 C.2   250  TRP250      0.2264
     43  O        -65.7030   49.6230   -5.5520 O.2   250  TRP250     -0.2867
     44  CB       -62.5520   49.2240   -4.8170 C.3   250  TRP250      0.0550
     45  CG       -62.5270   49.5790   -6.2700 C.ar  250  TRP250      0.0003
     46  CD1      -62.0850   50.7330   -6.8130 C.ar  250  TRP250      0.0946
     47  CD2      -62.9610   48.7570   -7.3580 C.ar  250  TRP250      0.0152
     48  NE1      -62.2180   50.6920   -8.1920 N.ar  250  TRP250     -0.2442
     49  CE2      -62.7430   49.4770   -8.5450 C.ar  250  TRP250      0.0810
     50  CE3      -63.5150   47.4750   -7.4410 C.ar  250  TRP250      0.0012
     51  CZ2      -63.0650   48.9600   -9.8070 C.ar  250  TRP250      0.0191
     52  CZ3      -63.8350   46.9680   -8.6840 C.ar  250  TRP250      0.0001
     53  CH2      -63.6100   47.6960   -9.8460 C.ar  250  TRP250      0.0015
     54  N        -67.2070   53.8160   -8.4690 N.3   255  HIS255     -0.1241
     55  CA       -66.1660   53.4530   -9.4210 C.3   255  HIS255      0.1621
     56  C        -66.2480   51.9560   -9.7180 C.2   255  HIS255      0.2264
     57  O        -66.2030   51.5360  -10.8730 O.2   255  HIS255     -0.2867
     58  CB       -64.7880   53.6960   -8.8350 C.3   255  HIS255      0.0745
     59  CG       -64.4980   55.1340   -8.5680 C.ar  255  HIS255      0.0817
     60  ND1      -63.7900   55.5530   -7.4660 N.ar  255  HIS255     -0.2268
     61  CD2      -64.8320   56.2500   -9.2520 C.ar  255  HIS255      0.1154
     62  CE1      -63.6950   56.8700   -7.4810 C.ar  255  HIS255      0.1986
     63  NE2      -64.3040   57.3090   -8.5590 N.ar  255  HIS255     -0.2212
     64  N        -62.1270   54.0370  -12.6920 N.3   282  PRO282     -0.2102
     65  CA       -60.7690   53.6640  -12.2620 C.3   282  PRO282      0.1504
     66  C        -60.7210   52.3630  -11.4540 C.2   282  PRO282      0.2576
     67  O        -61.6270   52.0930  -10.6570 O.2   282  PRO282     -0.2718
     68  CB       -60.3780   54.8310  -11.3630 C.3   282  PRO282      0.0282
     69  CG       -61.7030   55.2560  -10.7450 C.3   282  PRO282      0.0208
     70  CD       -62.7330   55.0540  -11.8130 C.3   282  PRO282      0.0893
     71  N        -59.6820   51.5630  -11.6770 N.am  283  THR283     -0.1939
     72  CA       -59.3800   50.4260  -10.8230 C.3   283  THR283      0.2028
     73  C        -58.2020   50.7510   -9.9160 C.2   283  THR283      0.2642
     74  O        -57.6450   51.8540   -9.9740 O.2   283  THR283     -0.2714
     75  CB       -58.9700   49.1900  -11.6430 C.3   283  THR283      0.1808
     76  OG1      -57.7580   49.4690  -12.3680 O.3   283  THR283     -0.2208
     77  CG2      -60.0740   48.7890  -12.6090 C.3   283  THR283      0.0379
     78  N        -57.8040   49.7740   -9.1050 N.am  284  CYS284     -0.1967
     79  CA       -56.6620   49.9510   -8.2050 C.3   284  CYS284      0.1712
     80  C        -55.4540   50.4900   -8.9490 C.2   284  CYS284      0.2296
     81  O        -54.8440   51.4660   -8.5210 O.2   284  CYS284     -0.2864
     82  CB       -56.2600   48.6280   -7.5770 C.3   284  CYS284      0.0983
     83  SG       -57.6050   47.4770   -7.3270 S.3   284  CYS284     -0.0798
     84  N        -55.2410   54.3540  -10.0120 N.3   287  CYS287     -0.1221
     85  CA       -54.8940   55.3780   -9.0440 C.3   287  CYS287      0.1808
     86  C        -53.5590   55.1370   -8.3610 C.2   287  CYS287      0.2601
     87  O        -52.9680   56.0680   -7.8230 O.2   287  CYS287     -0.2717
     88  CB       -55.9960   55.5050   -8.0120 C.3   287  CYS287      0.0970
     89  SG       -57.5450   56.0420   -8.7990 S.3   287  CYS287     -0.0800
     90  N        -53.0900   53.8930   -8.3960 N.am  288  HIS288     -0.1975
     91  CA       -51.9220   53.5030   -7.6100 C.3   288  HIS288      0.1656
     92  C        -50.6330   53.2150   -8.3410 C.2   288  HIS288      0.2291
     93  O        -49.5750   53.2890   -7.7230 O.2   288  HIS288     -0.2864
     94  CB       -52.2650   52.2980   -6.7370 C.3   288  HIS288      0.0771
     95  CG       -53.1170   52.6670   -5.5800 C.ar  288  HIS288      0.0820
     96  ND1      -52.6440   53.4280   -4.5340 N.ar  288  HIS288     -0.2267
     97  CD2      -54.4350   52.4670   -5.3410 C.ar  288  HIS288      0.1154
     98  CE1      -53.6220   53.6500   -3.6780 C.ar  288  HIS288      0.1986
     99  NE2      -54.7070   53.0520   -4.1330 N.ar  288  HIS288     -0.2212
    100  N        -48.4360   57.7220   -2.1110 N.3   312  LEU312     -0.1231
    101  CA       -49.1620   57.8660   -0.8530 C.3   312  LEU312      0.1693
    102  C        -48.5820   58.9710    0.0240 C.2   312  LEU312      0.2592
    103  O        -47.3590   59.0430    0.2070 O.2   312  LEU312     -0.2718
    104  CB       -49.1350   56.5380   -0.0930 C.3   312  LEU312      0.0284
    105  CG       -49.5200   55.2980   -0.8970 C.3   312  LEU312      0.0019
    106  CD1      -49.2000   54.0200   -0.1020 C.3   312  LEU312      0.0001
    107  CD2      -50.9970   55.3320   -1.2910 C.3   312  LEU312      0.0001
    108  N        -49.4390   59.8300    0.5740 N.am  313  TRP313     -0.1962
    109  CA       -48.9270   60.8840    1.4590 C.3   313  TRP313      0.1771
    110  C        -49.1130   60.5090    2.9280 C.2   313  TRP313      0.2619
    111  O        -48.3730   60.9590    3.7930 O.2   313  TRP313     -0.2715
    112  CB       -49.5720   62.2570    1.1670 C.3   313  TRP313      0.0590
    113  CG       -51.1080   62.3050    1.1130 C.ar  313  TRP313      0.0006
    114  CD1      -51.9520   62.7930    2.0850 C.ar  313  TRP313      0.0946
    115  CD2      -51.9540   61.8990    0.0200 C.ar  313  TRP313      0.0152
    116  NE1      -53.2620   62.6980    1.6660 N.ar  313  TRP313     -0.2442
    117  CE2      -53.2920   62.1530    0.4070 C.ar  313  TRP313      0.0810
    118  CE3      -51.7120   61.3380   -1.2390 C.ar  313  TRP313      0.0012
    119  CZ2      -54.3820   61.8650   -0.4250 C.ar  313  TRP313      0.0191
    120  CZ3      -52.7940   61.0590   -2.0680 C.ar  313  TRP313      0.0001
    121  CH2      -54.1170   61.3240   -1.6540 C.ar  313  TRP313      0.0015
    122  N        -50.1320   59.7070    3.2090 N.am  314  VAL314     -0.1963
    123  CA       -50.4260   59.3620    4.5980 C.3   314  VAL314      0.1727
    124  C        -50.7430   57.8770    4.7280 C.2   314  VAL314      0.2616
    125  O        -51.5640   57.3420    3.9840 O.2   314  VAL314     -0.2715
    126  CB       -51.5830   60.2180    5.1540 C.3   314  VAL314      0.0290
    127  CG1      -52.8560   60.0530    4.2890 C.3   314  VAL314      0.0023
    128  CG2      -51.8520   59.8780    6.6200 C.3   314  VAL314      0.0023
    129  N        -50.0740   57.2010    5.6550 N.am  315  ARG315     -0.1963
    130  CA       -50.3170   55.7630    5.8430 C.3   315  ARG315      0.1729
    131  C        -51.6300   55.5620    6.5830 C.2   315  ARG315      0.2616
    132  O        -51.7490   55.9320    7.7540 O.2   315  ARG315     -0.2715
    133  CB       -49.1700   55.1100    6.6250 C.3   315  ARG315      0.0348
    134  CG       -49.2730   53.5690    6.6930 C.3   315  ARG315      0.0492
    135  CD       -48.4550   52.9400    5.5870 C.3   315  ARG315      0.2205
    136  NE       -48.6650   51.5000    5.4160 N.pl3 315  ARG315     -0.0865
    137  CZ       -47.8320   50.5630    5.8590 C.cat 315  ARG315      0.5346
    138  NH1      -46.7280   50.8890    6.5330 N.pl3 315  ARG315      0.1354
    139  NH2      -48.0970   49.2870    5.6230 N.pl3 315  ARG315      0.1354
    140  N        -52.6130   54.9830    5.8970 N.am  316  LEU316     -0.1963
    141  CA       -53.9460   54.7670    6.4690 C.3   316  LEU316      0.1728
    142  C        -53.9980   53.5340    7.3650 C.2   316  LEU316      0.2616
    143  O        -54.9210   53.3980    8.1700 O.2   316  LEU316     -0.2715
    144  CB       -54.9960   54.6080    5.3640 C.3   316  LEU316      0.0311
    145  CG       -55.1780   55.7640    4.3770 C.3   316  LEU316      0.0022
    146  CD1      -56.3960   55.4900    3.4870 C.3   316  LEU316      0.0001
    147  CD2      -55.3030   57.1140    5.0930 C.3   316  LEU316      0.0001
    148  N        -53.0220   52.6310    7.2030 N.am  317  PHE317     -0.1974
    149  CA       -52.8840   51.4570    8.0530 C.3   317  PHE317      0.1639
    150  C        -52.2520   51.8940    9.3690 C.2   317  PHE317      0.2290
    151  O        -51.0690   52.2570    9.4140 O.2   317  PHE317     -0.2864
    152  CB       -51.9860   50.4380    7.3420 C.3   317  PHE317      0.0560
    153  CG       -51.9840   49.0620    7.9470 C.ar  317  PHE317     -0.0200
    154  CD1      -50.9380   48.6560    8.7590 C.ar  317  PHE317     -0.0042
    155  CD2      -52.9900   48.1510    7.6510 C.ar  317  PHE317     -0.0042
    156  CE1      -50.8980   47.3890    9.2980 C.ar  317  PHE317     -0.0003
    157  CE2      -52.9580   46.8740    8.1850 C.ar  317  PHE317     -0.0003
    158  CZ       -51.9070   46.4860    9.0070 C.ar  317  PHE317     -0.0000
    159  N        -52.2060   62.9170   -6.9420 N.3   403  MET403     -0.1245
    160  CA       -53.3930   62.0610   -6.9390 C.3   403  MET403      0.1570
    161  C        -54.6000   62.8510   -7.4720 C.2   403  MET403      0.2261
    162  O        -55.3780   62.3450   -8.2880 O.2   403  MET403     -0.2867
    163  CB       -53.6870   61.5130   -5.5380 C.3   403  MET403      0.0387
    164  CG       -54.8940   60.5400   -5.4600 C.3   403  MET403      0.0595
    165  SD       -54.5560   58.9470   -6.2520 S.3   403  MET403     -0.1393
    166  CE       -55.5670   59.0710   -7.7100 C.3   403  MET403      0.0692
    167  N        -57.6630   62.2070  -10.4290 N.3   407  CYS407     -0.1235
    168  CA       -59.1160   62.4020  -10.3090 C.3   407  CYS407      0.1677
    169  C        -59.6180   63.3990  -11.3350 C.2   407  CYS407      0.2270
    170  O        -60.7590   63.2750  -11.8180 O.2   407  CYS407     -0.2867
    171  CB       -59.5180   62.9520   -8.9430 C.3   407  CYS407      0.0956
    172  SG       -58.6080   62.2770   -7.5810 S.3   407  CYS407     -0.0801
    173  N        -60.4380   64.5890   -0.1760 N.3   420  MET420     -0.1245
    174  CA       -59.1720   64.4400    0.5330 C.3   420  MET420      0.1570
    175  C        -59.2040   65.1940    1.8610 C.2   420  MET420      0.2261
    176  O        -58.5890   64.7610    2.8280 O.2   420  MET420     -0.2867
    177  CB       -57.9630   64.8440   -0.3340 C.3   420  MET420      0.0387
    178  CG       -57.8100   64.0190   -1.6330 C.3   420  MET420      0.0595
    179  SD       -57.7250   62.1990   -1.4210 S.3   420  MET420     -0.1393
    180  CE       -59.4290   61.6540   -1.5990 C.3   420  MET420      0.0692
    181  N        -61.0780   63.0430    4.1750 N.3   423  LEU423     -0.1245
    182  CA       -60.1540   61.9930    4.6260 C.3   423  LEU423      0.1561
    183  C        -59.2870   62.4850    5.7920 C.2   423  LEU423      0.2260
    184  O        -59.1320   61.7680    6.7880 O.2   423  LEU423     -0.2867
    185  CB       -59.2980   61.4670    3.4730 C.3   423  LEU423      0.0270
    186  CG       -58.2050   60.4330    3.8140 C.3   423  LEU423      0.0019
    187  CD1      -58.8260   59.1580    4.3770 C.3   423  LEU423      0.0001
    188  CD2      -57.3650   60.1110    2.5890 C.3   423  LEU423      0.0001
    189  N        -59.8870   53.7520    5.0110 N.3   482  TYR482     -0.1241
    190  CA       -59.9340   53.1950    3.6590 C.3   482  TYR482      0.1605
    191  C        -61.2150   53.6010    2.9240 C.2   482  TYR482      0.2264
    192  O        -61.1860   53.9440    1.7280 O.2   482  TYR482     -0.2867
    193  CB       -59.9140   51.6600    3.7220 C.3   482  TYR482      0.0534
    194  CG       -58.5450   51.0130    3.7240 C.ar  482  TYR482     -0.0201
    195  CD1      -57.5110   51.4910    4.5190 C.ar  482  TYR482     -0.0009
    196  CD2      -58.3040   49.8960    2.9430 C.ar  482  TYR482     -0.0009
    197  CE1      -56.2570   50.8550    4.5230 C.ar  482  TYR482      0.0417
    198  CE2      -57.0650   49.2610    2.9430 C.ar  482  TYR482      0.0417
    199  CZ       -56.0510   49.7450    3.7230 C.ar  482  TYR482      0.1957
    200  OH       -54.8280   49.0920    3.7030 O.3   482  TYR482     -0.2866
    201  N        -61.1450   57.2650    1.9960 N.3   485  ALA485     -0.1231
    202  CA       -60.2090   57.4950    0.9020 C.3   485  ALA485      0.1694
    203  C        -60.7380   57.0160   -0.4440 C.2   485  ALA485      0.2592
    204  O        -60.4840   57.6500   -1.4700 O.2   485  ALA485     -0.2718
    205  CB       -58.8630   56.8170    1.1960 C.3   485  ALA485      0.0304
    206  N        -61.4520   55.8860   -0.4520 N.am  486  MET486     -0.1965
    207  CA       -61.7970   55.2470   -1.7180 C.3   486  MET486      0.1736
    208  C        -63.3100   55.0610   -1.9310 C.2   486  MET486      0.2616
    209  O        -63.7280   54.1860   -2.6960 O.2   486  MET486     -0.2715
    210  CB       -61.0640   53.9120   -1.8520 C.3   486  MET486      0.0427
    211  CG       -59.5680   54.1400   -2.1290 C.3   486  MET486      0.0599
    212  SD       -58.6450   52.6020   -1.9740 S.3   486  MET486     -0.1393
    213  CE       -58.5130   52.4900   -0.1750 C.3   486  MET486      0.0692
    214  N        -64.0880   55.8850   -1.2350 N.am  487  ASN487     -0.1972
    215  CA       -65.5160   56.0490   -1.4970 C.3   487  ASN487      0.1688
    216  C        -66.3440   54.8270   -1.1500 C.2   487  ASN487      0.2292
    217  O        -67.1950   54.4010   -1.9360 O.2   487  ASN487     -0.2864
    218  CB       -65.7410   56.4320   -2.9600 C.3   487  ASN487      0.1181
    219  CG       -64.8650   57.5710   -3.3890 C.2   487  ASN487      0.2629
    220  OD1      -64.8230   58.6090   -2.7340 O.2   487  ASN487     -0.2716
    221  ND2      -64.1190   57.3700   -4.4640 N.am  487  ASN487     -0.0877
@<TRIPOS>BOND
     1    64    65    1
     2    64    70    1
     3    77    75    1
     4    76    75    1
     5    65    66    1
     6    65    68    1
     7   170   169    2
     8    70    69    1
     9    71    66   am
    10    71    72    1
    11    75    72    1
    12    66    67    2
    13    68    69    1
    14   169   168    1
    15     7     1    1
    16     7     6    1
    17    57    56    2
    18    72    73    1
    19     1     2    1
    20   167   168    1
    21   168   171    1
    22    84    85    1
    23    74    73    2
    24     6     5    1
    25    73    78   am
    26    53    51   ar
    27    53    52   ar
    28    51    49   ar
    29    56    55    1
    30    55    58    1
    31    55    54    1
    32    61    59   ar
    33    61    63   ar
    34    78    79    1
    35    85    86    1
    36    85    88    1
    37     2     5    1
    38     2     3    1
    39    80    81    2
    40    80    79    1
    41   171   172    1
    42    58    59    1
    43    89    88    1
    44    52    50   ar
    45    59    60   ar
    46    63    62   ar
    47    49    48   ar
    48    49    47   ar
    49    90    86   am
    50    90    91    1
    51    86    87    2
    52     3     4    2
    53    92    93    2
    54    92    91    1
    55   162   161    2
    56    79    82    1
    57    48    46   ar
    58   166   165    1
    59    91    94    1
    60    82    83    1
    61    62    60   ar
    62   161   160    1
    63    50    47   ar
    64    47    45   ar
    65    13    12    1
    66   159   160    1
    67   160   163    1
    68     8     9    1
    69    46    45   ar
    70    94    95    1
    71    45    44    1
    72   165   164    1
    73    37    39   ar
    74    37    35   ar
    75    12     9    1
    76     9    10    1
    77    39    38   ar
    78    95    97   ar
    79    95    96   ar
    80    43    42    2
    81   163   164    1
    82    97    99   ar
    83    35    34   ar
    84    44    41    1
    85    42    41    1
    86    96    98   ar
    87    10    11    2
    88   221   219   am
    89    38    36   ar
    90    99    98   ar
    91    41    40    1
    92    34    36   ar
    93    34    33    1
    94   219   218    1
    95   219   220    2
    96    32    31    2
    97   218   215    1
    98    33    30    1
    99   209   208    2
   100    30    31    1
   101    30    29    1
   102   211   212    1
   103   211   210    1
   104   100   101    1
   105   120   121   ar
   106   120   118   ar
   107    27    26    2
   108   212   213    1
   109   217   216    2
   110   208   207    1
   111   208   214   am
   112   210   207    1
   113   207   206    1
   114   121   119   ar
   115   178   179    1
   116   178   177    1
   117   180   179    1
   118    29    26   am
   119    21    23   ar
   120    21    19   ar
   121   215   214    1
   122   215   216    1
   123   204   203    2
   124    26    25    1
   125   107   105    1
   126   118   115   ar
   127    23    22   ar
   128   105   106    1
   129   105   104    1
   130    19    18    1
   131    19    20   ar
   132   101   104    1
   133   101   102    1
   134    18    15    1
   135    28    25    1
   136    14    15    1
   137   206   203   am
   138   203   202    1
   139   119   117   ar
   140    22    20   ar
   141   177   174    1
   142    17    16    2
   143    25    24    1
   144   173   174    1
   145   115   117   ar
   146   115   113   ar
   147   102   103    2
   148   102   108   am
   149    15    16    1
   150   117   116   ar
   151   174   175    1
   152   108   109    1
   153   202   205    1
   154   202   201    1
   155   113   112    1
   156   113   114   ar
   157   112   109    1
   158   109   110    1
   159   116   114   ar
   160   192   191    2
   161   175   176    2
   162   188   186    1
   163   191   190    1
   164   110   122   am
   165   110   111    2
   166   198   196   ar
   167   198   199   ar
   168   196   194   ar
   169   122   123    1
   170   185   186    1
   171   185   182    1
   172   146   145    1
   173   190   193    1
   174   190   189    1
   175   200   199    1
   176   193   194    1
   177   199   197   ar
   178   194   195   ar
   179   186   187    1
   180   125   124    2
   181   181   182    1
   182   127   126    1
   183   145   147    1
   184   145   144    1
   185   195   197   ar
   186   123   124    1
   187   123   126    1
   188   182   183    1
   189   124   129   am
   190   126   128    1
   191   144   141    1
   192   136   135    1
   193   136   137    2
   194   135   134    1
   195   139   137    1
   196   129   130    1
   197   183   184    2
   198   130   131    1
   199   130   133    1
   200   137   138    1
   201   140   141    1
   202   140   131   am
   203   141   142    1
   204   131   132    2
   205   133   134    1
   206   148   142   am
   207   148   149    1
   208   152   153    1
   209   152   149    1
   210   142   143    2
   211   155   153   ar
   212   155   157   ar
   213   153   154   ar
   214   149   150    1
   215   157   158   ar
   216   154   156   ar
   217   158   156   ar
   218   150   151    2
