@<TRIPOS>MOLECULE
tmp/4qo5A01.pdb
 206 199 0 0 0
SMALL
GASTEIGER

@<TRIPOS>ATOM
      1  N        -41.0610   23.1570  -25.1230 N.3    24  LEU24      -0.1245
      2  CA       -42.4630   23.1330  -25.5390 C.3    24  LEU24       0.1561
      3  C        -42.8790   21.7720  -26.0430 C.2    24  LEU24       0.2260
      4  O        -44.0130   21.3420  -25.8150 O.2    24  LEU24      -0.2867
      5  CB       -42.7170   24.1370  -26.6540 C.3    24  LEU24       0.0270
      6  CG       -42.6130   25.6000  -26.2360 C.3    24  LEU24       0.0019
      7  CD1      -42.7090   26.4910  -27.4660 C.3    24  LEU24       0.0001
      8  CD2      -43.7100   25.9310  -25.2250 C.3    24  LEU24       0.0001
      9  N        -43.4690   19.8990  -22.7560 N.3    27  HIS27      -0.1241
     10  CA       -44.3780   20.5010  -21.7980 C.3    27  HIS27       0.1621
     11  C        -45.7920   20.6810  -22.3210 C.2    27  HIS27       0.2264
     12  O        -46.7320   20.8020  -21.5390 O.2    27  HIS27      -0.2867
     13  CB       -43.8040   21.8050  -21.2430 C.3    27  HIS27       0.0745
     14  CG       -42.9950   21.5870  -20.0110 C.ar   27  HIS27       0.0817
     15  ND1      -43.5600   21.5380  -18.7570 N.ar   27  HIS27      -0.2268
     16  CD2      -41.6820   21.3020  -19.8460 C.ar   27  HIS27       0.1154
     17  CE1      -42.6280   21.2750  -17.8650 C.ar   27  HIS27       0.1986
     18  NE2      -41.4830   21.1310  -18.5000 N.ar   27  HIS27      -0.2212
     19  N        -47.5490   19.4530  -19.0840 N.3    31  THR31      -0.1218
     20  CA       -48.1880   20.5660  -18.3850 C.3    31  THR31       0.1862
     21  C        -48.9110   21.4800  -19.3810 C.2    31  THR31       0.2287
     22  O        -48.5240   22.6400  -19.5770 O.2    31  THR31      -0.2866
     23  CB       -47.1920   21.4150  -17.5590 C.3    31  THR31       0.1770
     24  OG1      -46.1830   21.9530  -18.4190 O.3    31  THR31      -0.2211
     25  CG2      -46.5400   20.5980  -16.4370 C.3    31  THR31       0.0375
     26  N        -49.7220   25.1600  -18.4720 N.3    34  ILE34      -0.1231
     27  CA       -48.6480   26.1470  -18.4790 C.3    34  ILE34       0.1692
     28  C        -48.3920   26.6400  -19.8990 C.2    34  ILE34       0.2591
     29  O        -48.2640   27.8370  -20.1250 O.2    34  ILE34      -0.2718
     30  CB       -47.3350   25.5910  -17.8730 C.3    34  ILE34       0.0266
     31  CG1      -47.4990   25.3950  -16.3600 C.3    34  ILE34       0.0019
     32  CG2      -46.1770   26.5780  -18.1500 C.3    34  ILE34       0.0020
     33  CD1      -46.3190   24.6770  -15.6820 C.3    34  ILE34       0.0001
     34  N        -48.3180   25.7190  -20.8520 N.am   35  VAL35      -0.1980
     35  CA       -48.0870   26.1150  -22.2410 C.3    35  VAL35       0.1595
     36  C        -49.2230   27.0000  -22.7750 C.2    35  VAL35       0.2287
     37  O        -48.9620   28.0300  -23.3910 O.2    35  VAL35      -0.2864
     38  CB       -47.8290   24.9170  -23.1870 C.3    35  VAL35       0.0276
     39  CG1      -47.6060   25.4110  -24.6330 C.3    35  VAL35       0.0022
     40  CG2      -46.6300   24.0900  -22.7120 C.3    35  VAL35       0.0022
     41  N        -48.8150   30.4600  -21.0920 N.3    38  TRP38      -0.1241
     42  CA       -47.6850   31.1520  -21.7170 C.3    38  TRP38       0.1605
     43  C        -48.0200   31.6620  -23.1210 C.2    38  TRP38       0.2264
     44  O        -47.6380   32.7770  -23.4910 O.2    38  TRP38      -0.2867
     45  CB       -46.4720   30.2140  -21.7750 C.3    38  TRP38       0.0550
     46  CG       -45.3100   30.8010  -22.5420 C.ar   38  TRP38       0.0003
     47  CD1      -44.4240   31.7470  -22.0930 C.ar   38  TRP38       0.0946
     48  CD2      -44.9240   30.5010  -23.8960 C.ar   38  TRP38       0.0152
     49  NE1      -43.5100   32.0450  -23.0810 N.ar   38  TRP38      -0.2442
     50  CE2      -43.7960   31.3010  -24.1960 C.ar   38  TRP38       0.0810
     51  CE3      -45.4250   29.6440  -24.8830 C.ar   38  TRP38       0.0012
     52  CZ2      -43.1580   31.2650  -25.4400 C.ar   38  TRP38       0.0191
     53  CZ3      -44.7870   29.6060  -26.1170 C.ar   38  TRP38       0.0001
     54  CH2      -43.6660   30.4110  -26.3830 C.ar   38  TRP38       0.0015
     55  N        -45.3060   38.2840  -23.9920 N.3    43  MET43      -0.1245
     56  CA       -43.9100   37.8500  -24.0900 C.3    43  MET43       0.1570
     57  C        -43.6440   36.6730  -25.0350 C.2    43  MET43       0.2261
     58  O        -42.5300   36.5050  -25.5190 O.2    43  MET43      -0.2867
     59  CB       -43.3710   37.5380  -22.6980 C.3    43  MET43       0.0387
     60  CG       -42.8580   38.7950  -22.0370 C.3    43  MET43       0.0595
     61  SD       -42.1560   38.5670  -20.4030 S.3    43  MET43      -0.1393
     62  CE       -43.6150   38.2640  -19.4250 C.3    43  MET43       0.0692
     63  N        -39.7880   35.5390  -25.4760 N.3    77  VAL77      -0.1231
     64  CA       -39.4190   35.1590  -24.1190 C.3    77  VAL77       0.1692
     65  C        -40.1280   33.8470  -23.7680 C.2    77  VAL77       0.2593
     66  O        -41.2710   33.8530  -23.2810 O.2    77  VAL77      -0.2718
     67  CB       -39.8330   36.2320  -23.1290 C.3    77  VAL77       0.0266
     68  CG1      -39.2320   35.9700  -21.7560 C.3    77  VAL77       0.0020
     69  CG2      -39.4210   37.5860  -23.6460 C.3    77  VAL77       0.0020
     70  N        -39.4350   32.7450  -24.0420 N.am   78  GLY78      -0.1942
     71  CA       -39.9590   31.4010  -23.8490 C.3    78  GLY78       0.2014
     72  C        -39.4330   30.7520  -22.5810 C.2    78  GLY78       0.2639
     73  O        -38.7130   31.3840  -21.8010 O.2    78  GLY78      -0.2714
     74  N        -39.8040   29.4910  -22.3760 N.am   79  CYS79      -0.1967
     75  CA       -39.4700   28.7430  -21.1660 C.3    79  CYS79       0.1712
     76  C        -37.9750   28.8360  -20.8250 C.2    79  CYS79       0.2296
     77  O        -37.6000   29.0460  -19.6770 O.2    79  CYS79      -0.2864
     78  CB       -39.8220   27.2580  -21.3550 C.3    79  CYS79       0.0983
     79  SG       -41.2920   26.9180  -22.4100 S.3    79  CYS79      -0.0798
     80  N        -36.4890   32.5310  -19.6310 N.3    82  CYS82      -0.1221
     81  CA       -36.5930   32.8120  -18.1860 C.3    82  CYS82       0.1808
     82  C        -35.9030   31.7960  -17.2770 C.2    82  CYS82       0.2601
     83  O        -35.0900   32.1590  -16.4320 O.2    82  CYS82      -0.2717
     84  CB       -38.0510   32.9580  -17.7670 C.3    82  CYS82       0.0970
     85  SG       -38.6920   34.5050  -18.3990 S.3    82  CYS82      -0.0800
     86  N        -36.2500   30.5250  -17.4330 N.am   83  HIS83      -0.1975
     87  CA       -35.8130   29.5180  -16.4850 C.3    83  HIS83       0.1656
     88  C        -34.3540   29.1350  -16.6350 C.2    83  HIS83       0.2291
     89  O        -33.7980   28.4930  -15.7560 O.2    83  HIS83      -0.2864
     90  CB       -36.6890   28.2660  -16.5830 C.3    83  HIS83       0.0771
     91  CG       -38.0540   28.4710  -16.0250 C.ar   83  HIS83       0.0820
     92  ND1      -38.3130   28.4370  -14.6690 N.ar   83  HIS83      -0.2267
     93  CD2      -39.2340   28.7530  -16.6240 C.ar   83  HIS83       0.1154
     94  CE1      -39.5970   28.6680  -14.4590 C.ar   83  HIS83       0.1986
     95  NE2      -40.1660   28.8500  -15.6300 N.ar   83  HIS83      -0.2212
     96  N        -36.4970   26.6330  -11.1220 N.3   103  PRO103     -0.2102
     97  CA       -37.9560   26.8260  -11.1650 C.3   103  PRO103      0.1504
     98  C        -38.3830   28.2220  -10.7350 C.2   103  PRO103      0.2576
     99  O        -39.3080   28.7560  -11.3350 O.2   103  PRO103     -0.2718
    100  CB       -38.4750   25.7920  -10.1630 C.3   103  PRO103      0.0282
    101  CG       -37.4180   24.7020  -10.1760 C.3   103  PRO103      0.0208
    102  CD       -36.1210   25.4860  -10.2740 C.3   103  PRO103      0.0893
    103  N        -37.7400   28.8000   -9.7200 N.am  104  ILE104     -0.1966
    104  CA       -38.2070   30.0850   -9.2250 C.3   104  ILE104      0.1727
    105  C        -37.5090   31.2060   -9.9660 C.2   104  ILE104      0.2616
    106  O        -36.3480   31.5270   -9.6820 O.2   104  ILE104     -0.2715
    107  CB       -38.0390   30.2510   -7.6950 C.3   104  ILE104      0.0290
    108  CG1      -38.8270   29.1660   -6.9540 C.3   104  ILE104      0.0022
    109  CG2      -38.5380   31.6410   -7.2460 C.3   104  ILE104      0.0023
    110  CD1      -38.6120   29.1880   -5.4370 C.3   104  ILE104      0.0001
    111  N        -38.2130   31.7660  -10.9450 N.am  105  VAL105     -0.1977
    112  CA       -37.7190   32.9160  -11.6790 C.3   105  VAL105      0.1596
    113  C        -37.9420   34.1740  -10.8290 C.2   105  VAL105      0.2287
    114  O        -39.0510   34.4410  -10.3710 O.2   105  VAL105     -0.2864
    115  CB       -38.3940   33.0080  -13.0670 C.3   105  VAL105      0.0276
    116  CG1      -37.9950   34.2800  -13.7970 C.3   105  VAL105      0.0022
    117  CG2      -38.0840   31.7640  -13.9010 C.3   105  VAL105      0.0022
    118  N        -36.1360   38.8570  -14.0520 N.3   110  CYS110     -0.1235
    119  CA       -36.9670   39.8530  -14.7220 C.3   110  CYS110      0.1677
    120  C        -36.1550   41.0910  -15.0880 C.2   110  CYS110      0.2270
    121  O        -36.3930   41.7080  -16.1370 O.2   110  CYS110     -0.2867
    122  CB       -38.1350   40.2830  -13.8210 C.3   110  CYS110      0.0956
    123  SG       -39.1410   38.9170  -13.1490 S.3   110  CYS110     -0.0801
    124  N        -41.7210   27.5240   -0.5860 N.3   198  TYR198     -0.1241
    125  CA       -42.2510   27.6830   -1.9460 C.3   198  TYR198      0.1605
    126  C        -43.0330   26.4070   -2.3350 C.2   198  TYR198      0.2264
    127  O        -42.5280   25.3160   -2.1290 O.2   198  TYR198     -0.2867
    128  CB       -41.1440   27.9750   -2.9770 C.3   198  TYR198      0.0534
    129  CG       -41.7660   28.3520   -4.2950 C.ar  198  TYR198     -0.0201
    130  CD1      -42.2500   29.6500   -4.5100 C.ar  198  TYR198     -0.0009
    131  CD2      -41.9540   27.4020   -5.2920 C.ar  198  TYR198     -0.0009
    132  CE1      -42.9000   29.9850   -5.7020 C.ar  198  TYR198      0.0417
    133  CE2      -42.5930   27.7280   -6.4910 C.ar  198  TYR198      0.0417
    134  CZ       -43.0690   29.0100   -6.6870 C.ar  198  TYR198      0.1957
    135  OH       -43.7130   29.3130   -7.8770 O.3   198  TYR198     -0.2866
    136  N        -46.2460   33.2950   -3.0680 N.3   201  HIS201     -0.1241
    137  CA       -46.1190   34.4510   -3.9560 C.3   201  HIS201      0.1621
    138  C        -46.4810   35.7660   -3.2730 C.2   201  HIS201      0.2264
    139  O        -47.0760   36.6420   -3.8800 O.2   201  HIS201     -0.2867
    140  CB       -46.9130   34.2170   -5.2470 C.3   201  HIS201      0.0745
    141  CG       -46.5790   32.9070   -5.8960 C.ar  201  HIS201      0.0817
    142  ND1      -47.1830   31.7250   -5.5210 N.ar  201  HIS201     -0.2268
    143  CD2      -45.6490   32.5800   -6.8260 C.ar  201  HIS201      0.1154
    144  CE1      -46.6560   30.7260   -6.2130 C.ar  201  HIS201      0.1986
    145  NE2      -45.7240   31.2180   -7.0130 N.ar  201  HIS201     -0.2212
    146  N        -41.5070   38.0860   -0.8460 N.3   205  ARG205     -0.1245
    147  CA       -40.8830   36.7540   -0.8230 C.3   205  ARG205      0.1563
    148  C        -39.3570   36.8650   -0.9300 C.2   205  ARG205      0.2260
    149  O        -38.8420   37.6020   -1.7780 O.2   205  ARG205     -0.2867
    150  CB       -41.3990   35.8880   -1.9580 C.3   205  ARG205      0.0307
    151  CG       -40.8550   34.4200   -1.9230 C.3   205  ARG205      0.0489
    152  CD       -41.4290   33.6680   -3.1000 C.3   205  ARG205      0.2205
    153  NE       -40.7870   34.0910   -4.3430 N.pl3 205  ARG205     -0.0865
    154  CZ       -41.3610   34.0620   -5.5440 C.cat 205  ARG205      0.5346
    155  NH1      -42.6270   33.6430   -5.7040 N.pl3 205  ARG205      0.1354
    156  NH2      -40.6630   34.4550   -6.5960 N.pl3 205  ARG205      0.1354
    157  N        -42.0970   38.7770   -5.3040 N.3   214  ALA214     -0.1231
    158  CA       -42.6270   37.8690   -6.2980 C.3   214  ALA214      0.1694
    159  C        -43.2150   38.7000   -7.4250 C.2   214  ALA214      0.2592
    160  O        -44.1980   39.4160   -7.2270 O.2   214  ALA214     -0.2718
    161  CB       -43.6960   36.9420   -5.6830 C.3   214  ALA214      0.0304
    162  N        -42.6460   38.6010   -8.6170 N.am  215  CYS215     -0.1956
    163  CA       -43.1840   39.3840   -9.7280 C.3   215  CYS215      0.1843
    164  C        -44.4330   38.7910  -10.3550 C.2   215  CYS215      0.2626
    165  O        -44.8770   39.2660  -11.3900 O.2   215  CYS215     -0.2714
    166  CB       -42.1410   39.5670  -10.8210 C.3   215  CYS215      0.0997
    167  SG       -40.6870   40.4480  -10.2670 S.3   215  CYS215     -0.0797
    168  N        -44.9850   37.7500   -9.7490 N.am  216  THR216     -0.1950
    169  CA       -46.2150   37.1590  -10.2570 C.3   216  THR216      0.1897
    170  C        -47.4060   37.5270   -9.3940 C.2   216  THR216      0.2313
    171  O        -48.5370   37.1260   -9.6720 O.2   216  THR216     -0.2863
    172  CB       -46.0940   35.6350  -10.3280 C.3   216  THR216      0.1794
    173  OG1      -45.5930   35.1750   -9.0680 O.3   216  THR216     -0.2208
    174  CG2      -45.0990   35.2580  -11.4350 C.3   216  THR216      0.0378
    175  N        -48.0370   34.4310  -13.5000 N.3   221  ARG221     -0.1231
    176  CA       -47.5070   33.6220  -14.5840 C.3   221  ARG221      0.1694
    177  C        -48.6380   32.6710  -15.0010 C.2   221  ARG221      0.2592
    178  O        -49.5800   32.4960  -14.2440 O.2   221  ARG221     -0.2718
    179  CB       -46.2780   32.8400  -14.0930 C.3   221  ARG221      0.0321
    180  CG       -46.6390   31.7170  -13.1160 C.3   221  ARG221      0.0489
    181  CD       -45.4150   30.9020  -12.6420 C.3   221  ARG221      0.2205
    182  NE       -45.9090   29.7180  -11.9480 N.pl3 221  ARG221     -0.0865
    183  CZ       -46.2550   29.6860  -10.6610 C.cat 221  ARG221      0.5346
    184  NH1      -46.7650   28.5710  -10.1530 N.pl3 221  ARG221      0.1354
    185  NH2      -46.1200   30.7630   -9.8940 N.pl3 221  ARG221      0.1354
    186  N        -48.6050   32.1250  -16.2170 N.am  222  HIS222     -0.1976
    187  CA       -47.6030   32.4630  -17.2170 C.3   222  HIS222      0.1656
    188  C        -48.1250   33.4250  -18.2710 C.2   222  HIS222      0.2291
    189  O        -47.4490   33.6800  -19.2790 O.2   222  HIS222     -0.2864
    190  CB       -47.0720   31.1860  -17.8820 C.3   222  HIS222      0.0771
    191  CG       -46.0650   30.4540  -17.0520 C.ar  222  HIS222      0.0820
    192  ND1      -46.4050   29.4740  -16.1450 N.ar  222  HIS222     -0.2267
    193  CD2      -44.7180   30.5600  -17.0000 C.ar  222  HIS222      0.1154
    194  CE1      -45.3160   29.0020  -15.5710 C.ar  222  HIS222      0.1986
    195  NE2      -44.2840   29.6500  -16.0690 N.ar  222  HIS222     -0.2212
    196  N        -48.8310   36.6530  -17.5750 N.3   224  PHE224     -0.1241
    197  CA       -48.1890   37.9580  -17.2690 C.3   224  PHE224      0.1605
    198  C        -48.9650   39.1060  -17.9180 C.2   224  PHE224      0.2264
    199  O        -48.4200   39.9000  -18.6690 O.2   224  PHE224     -0.2867
    200  CB       -46.6950   37.9940  -17.6690 C.3   224  PHE224      0.0534
    201  CG       -45.8370   37.0700  -16.8560 C.ar  224  PHE224     -0.0203
    202  CD1      -45.4700   37.4060  -15.5580 C.ar  224  PHE224     -0.0042
    203  CD2      -45.4260   35.8520  -17.3790 C.ar  224  PHE224     -0.0042
    204  CE1      -44.6850   36.5410  -14.8050 C.ar  224  PHE224     -0.0003
    205  CE2      -44.6610   34.9760  -16.6260 C.ar  224  PHE224     -0.0003
    206  CZ       -44.2880   35.3280  -15.3360 C.ar  224  PHE224     -0.0000
@<TRIPOS>BOND
     1     7     6    1
     2     5     6    1
     3     5     2    1
     4    54    53   ar
     5    54    52   ar
     6     6     8    1
     7    53    51   ar
     8     3     4    2
     9     3     2    1
    10     2     1    1
    11    58    57    2
    12    63    64    1
    13    52    50   ar
    14    57    56    1
    15    51    48   ar
    16    39    38    1
    17    50    48   ar
    18    50    49   ar
    19    64    65    1
    20    64    67    1
    21    56    55    1
    22    56    59    1
    23    70    71    1
    24    70    65   am
    25    48    46   ar
    26    71    72    1
    27    65    66    2
    28    69    67    1
    29    44    43    2
    30    37    36    2
    31    38    40    1
    32    38    35    1
    33    67    68    1
    34    43    42    1
    35    49    47   ar
    36    36    35    1
    37     9    10    1
    38    59    60    1
    39    72    74   am
    40    72    73    2
    41    46    47   ar
    42    46    45    1
    43    79    78    1
    44    74    75    1
    45    11    10    1
    46    11    12    2
    47    35    34    1
    48    60    61    1
    49    10    13    1
    50    45    42    1
    51    42    41    1
    52    78    75    1
    53    13    14    1
    54    75    76    1
    55    34    28   am
    56    76    77    2
    57    61    62    1
    58    29    28    2
    59    14    16   ar
    60    14    15   ar
    61    28    27    1
    62    16    18   ar
    63    80    81    1
    64    22    21    2
    65    21    20    1
    66   189   188    2
    67    19    20    1
    68    15    17   ar
    69   199   198    2
    70    18    17   ar
    71    27    26    1
    72    27    30    1
    73    24    23    1
    74    85    84    1
    75    20    23    1
    76   188   187    1
    77    81    84    1
    78    81    82    1
    79    32    30    1
    80   198   197    1
    81   190   187    1
    82   190   191    1
    83    30    31    1
    84   200   197    1
    85   200   201    1
    86   196   197    1
    87    23    25    1
    88    86    82   am
    89    86    87    1
    90   203   201   ar
    91   203   205   ar
    92    82    83    2
    93   187   186    1
    94   191   193   ar
    95   191   192   ar
    96   193   195   ar
    97   201   202   ar
    98    88    87    1
    99    88    89    2
   100   205   206   ar
   101    93    91   ar
   102    93    95   ar
   103    90    87    1
   104    90    91    1
   105    31    33    1
   106   186   177   am
   107   192   194   ar
   108   121   120    2
   109   195   194   ar
   110    91    92   ar
   111    95    94   ar
   112   202   204   ar
   113   206   204   ar
   114   120   119    1
   115   177   176    1
   116   177   178    2
   117   119   118    1
   118   119   122    1
   119    92    94   ar
   120   176   179    1
   121   176   175    1
   122   179   180    1
   123   117   115    1
   124   122   123    1
   125   116   115    1
   126   180   181    1
   127   115   112    1
   128   181   182    1
   129   182   183    2
   130   112   111    1
   131   112   113    1
   132   174   172    1
   133   165   164    2
   134    99    98    2
   135    97    96    1
   136    97    98    1
   137    97   100    1
   138    96   102    1
   139   111   105   am
   140   113   114    2
   141   166   167    1
   142   166   163    1
   143    98   103   am
   144   183   184    1
   145   183   185    1
   146   164   168   am
   147   164   163    1
   148   172   169    1
   149   172   173    1
   150   102   101    1
   151   169   168    1
   152   169   170    1
   153   101   100    1
   154   105   106    2
   155   105   104    1
   156   163   162    1
   157   103   104    1
   158   171   170    2
   159   104   107    1
   160   162   159   am
   161   135   134    1
   162   107   109    1
   163   107   108    1
   164   159   160    2
   165   159   158    1
   166   145   143   ar
   167   145   144   ar
   168   108   110    1
   169   143   141   ar
   170   134   133   ar
   171   134   132   ar
   172   156   154    1
   173   133   131   ar
   174   158   161    1
   175   158   157    1
   176   144   142   ar
   177   141   142   ar
   178   141   140    1
   179   155   154    1
   180   132   130   ar
   181   154   153    2
   182   131   129   ar
   183   140   137    1
   184   130   129   ar
   185   153   152    1
   186   129   128    1
   187   137   138    1
   188   137   136    1
   189   139   138    2
   190   152   151    1
   191   128   125    1
   192   126   127    2
   193   126   125    1
   194   150   151    1
   195   150   147    1
   196   125   124    1
   197   149   148    2
   198   148   147    1
   199   146   147    1
