@<TRIPOS>MOLECULE
tmp/4qo7C02.pdb
 103 97 0 0 0
SMALL
GASTEIGER

@<TRIPOS>ATOM
      1  N         -2.0870   -0.6870   24.1630 N.3   137  ASN137     -0.1240
      2  CA        -3.0210    0.4280   24.3460 C.3   137  ASN137      0.1653
      3  C         -4.4790   -0.0380   24.3970 C.2   137  ASN137      0.2266
      4  O         -4.8300   -1.0290   23.7670 O.2   137  ASN137     -0.2867
      5  CB        -2.8750    1.4720   23.2220 C.3   137  ASN137      0.1155
      6  CG        -1.8290    2.5430   23.5370 C.2   137  ASN137      0.2627
      7  OD1       -1.7380    3.0520   24.6600 O.2   137  ASN137     -0.2716
      8  ND2       -1.0200    2.8690   22.5490 N.am  137  ASN137     -0.0877
      9  N          7.1580    7.2110   27.4770 N.3   164  LEU164     -0.1231
     10  CA         7.4110    7.6960   26.1270 C.3   164  LEU164      0.1693
     11  C          7.0310    9.1580   25.9850 C.2   164  LEU164      0.2592
     12  O          7.7840    9.9400   25.4180 O.2   164  LEU164     -0.2718
     13  CB         6.6520    6.8560   25.1000 C.3   164  LEU164      0.0284
     14  CG         6.7880    7.2710   23.6350 C.3   164  LEU164      0.0019
     15  CD1        8.2390    7.4930   23.2310 C.3   164  LEU164      0.0001
     16  CD2        6.1330    6.2260   22.7430 C.3   164  LEU164      0.0001
     17  N          5.8690    9.5300   26.5180 N.am  165  ASP165     -0.1974
     18  CA         5.4250   10.9120   26.4520 C.3   165  ASP165      0.1709
     19  C          6.5320   11.8130   26.9870 C.2   165  ASP165      0.2293
     20  O          6.8670   12.8400   26.3790 O.2   165  ASP165     -0.2864
     21  CB         4.1440   11.1600   27.2770 C.3   165  ASP165      0.1436
     22  CG         3.0350   10.1460   27.0000 C.2   165  ASP165      0.3671
     23  OD1        3.2660    8.9310   27.1830 O.co2 165  ASP165     -0.2456
     24  OD2        1.9190   10.5600   26.6210 O.co2 165  ASP165     -0.2456
     25  N          9.7210   12.0090   24.7980 N.3   168  ARG168     -0.1245
     26  CA         9.4420   12.9280   23.6920 C.3   168  ARG168      0.1563
     27  C          9.4660   14.3930   24.1390 C.2   168  ARG168      0.2260
     28  O         10.0920   15.2640   23.4910 O.2   168  ARG168     -0.2867
     29  CB         8.0920   12.6050   23.0690 C.3   168  ARG168      0.0307
     30  CG         8.0920   11.3740   22.1940 C.3   168  ARG168      0.0489
     31  CD         6.7560   11.2120   21.4930 C.3   168  ARG168      0.2205
     32  NE         6.8180   10.1720   20.4810 N.pl3 168  ARG168     -0.0865
     33  CZ         5.8330    9.3280   20.1880 C.cat 168  ARG168      0.5346
     34  NH1        6.0260    8.4150   19.2510 N.pl3 168  ARG168      0.1354
     35  NH2        4.6680    9.3690   20.8270 N.pl3 168  ARG168      0.1354
     36  N         -1.7400    8.4290   29.6260 N.3   192  HIS192     -0.1226
     37  CA        -0.8820    8.3520   28.4470 C.3   192  HIS192      0.1752
     38  C         -1.6150    8.8160   27.1910 C.2   192  HIS192      0.2597
     39  O         -2.7590    8.4180   26.9270 O.2   192  HIS192     -0.2718
     40  CB        -0.3800    6.9170   28.2510 C.3   192  HIS192      0.0759
     41  CG         0.2390    6.6700   26.9150 C.ar  192  HIS192      0.0818
     42  ND1        1.4380    7.2400   26.5370 N.ar  192  HIS192     -0.2268
     43  CD2       -0.1710    5.9180   25.8670 C.ar  192  HIS192      0.1154
     44  CE1        1.7340    6.8540   25.3100 C.ar  192  HIS192      0.1986
     45  NE2        0.7790    6.0470   24.8810 N.ar  192  HIS192     -0.2212
     46  N         -0.9480    9.6580   26.4150 N.am  193  GLY193     -0.1942
     47  CA        -1.4240   10.0140   25.0920 C.3   193  GLY193      0.2014
     48  C         -1.9660   11.4230   25.0350 C.2   193  GLY193      0.2638
     49  O         -1.3820   12.3370   25.6030 O.2   193  GLY193     -0.2714
     50  N         -3.0960   11.5860   24.3490 N.am  194  ASP194     -0.1971
     51  CA        -3.7210   12.8970   24.1450 C.3   194  ASP194      0.1709
     52  C         -3.9960   13.6510   25.4450 C.2   194  ASP194      0.2293
     53  O         -3.7980   14.8600   25.5020 O.2   194  ASP194     -0.2864
     54  CB        -5.0410   12.7600   23.3670 C.3   194  ASP194      0.1436
     55  CG        -4.8310   12.4200   21.9030 C.2   194  ASP194      0.3671
     56  OD1       -4.3720   11.3040   21.6090 O.co2 194  ASP194     -0.2456
     57  OD2       -5.1450   13.2650   21.0440 O.co2 194  ASP194     -0.2456
     58  N          4.5480   17.2270   21.3990 N.3   233  VAL233     -0.1231
     59  CA         4.6640   15.8370   21.8400 C.3   233  VAL233      0.1692
     60  C          3.4920   15.0590   21.2290 C.2   233  VAL233      0.2591
     61  O          3.6930   14.0900   20.5030 O.2   233  VAL233     -0.2718
     62  CB         4.6800   15.6850   23.3770 C.3   233  VAL233      0.0266
     63  CG1        4.4990   14.2180   23.7830 C.3   233  VAL233      0.0020
     64  CG2        5.9650   16.2410   23.9660 C.3   233  VAL233      0.0020
     65  N          2.2720   15.5280   21.4840 N.am  234  VAL234     -0.1980
     66  CA         1.0710   14.8480   20.9980 C.3   234  VAL234      0.1595
     67  C          0.9990   14.8450   19.4670 C.2   234  VAL234      0.2287
     68  O          0.6440   13.8330   18.8720 O.2   234  VAL234     -0.2864
     69  CB        -0.2110   15.4620   21.6120 C.3   234  VAL234      0.0276
     70  CG1       -1.4680   14.8250   21.0210 C.3   234  VAL234      0.0022
     71  CG2       -0.1980   15.2770   23.1210 C.3   234  VAL234      0.0022
     72  N          3.3150   12.1330   17.7370 N.3   237  ALA237     -0.1231
     73  CA         2.7990   10.7690   17.7170 C.3   237  ALA237      0.1694
     74  C          1.9280   10.5410   16.4970 C.2   237  ALA237      0.2592
     75  O          2.0280    9.5060   15.8440 O.2   237  ALA237     -0.2718
     76  CB         2.0030   10.4920   18.9830 C.3   237  ALA237      0.0304
     77  N          1.0590   11.5090   16.2110 N.am  238  TYR238     -0.1976
     78  CA         0.1980   11.4450   15.0410 C.3   238  TYR238      0.1639
     79  C          1.0130   11.5180   13.7500 C.2   238  TYR238      0.2290
     80  O          0.7310   10.7940   12.8120 O.2   238  TYR238     -0.2864
     81  CB        -0.8540   12.5640   15.0800 C.3   238  TYR238      0.0560
     82  CG        -1.9790   12.2850   16.0510 C.ar  238  TYR238     -0.0198
     83  CD1       -3.0580   11.4900   15.6830 C.ar  238  TYR238     -0.0009
     84  CD2       -1.9530   12.7970   17.3420 C.ar  238  TYR238     -0.0009
     85  CE1       -4.0880   11.2240   16.5720 C.ar  238  TYR238      0.0417
     86  CE2       -2.9750   12.5350   18.2400 C.ar  238  TYR238      0.0417
     87  CZ        -4.0410   11.7520   17.8460 C.ar  238  TYR238      0.1957
     88  OH        -5.0560   11.4860   18.7290 O.3   238  TYR238     -0.2866
     89  N          2.9330    8.1940   13.0650 N.3   241  ILE241     -0.1245
     90  CA         1.9290    7.2510   12.5530 C.3   241  ILE241      0.1561
     91  C          1.5370    7.5870   11.1190 C.2   241  ILE241      0.2260
     92  O          1.4590    6.7060   10.2630 O.2   241  ILE241     -0.2867
     93  CB         0.6610    7.2250   13.4530 C.3   241  ILE241      0.0252
     94  CG1        0.9750    6.5660   14.8000 C.3   241  ILE241      0.0019
     95  CG2       -0.5020    6.4980   12.7750 C.3   241  ILE241      0.0019
     96  CD1        1.2150    5.0730   14.7250 C.3   241  ILE241      0.0001
     97  N          4.8720    3.3940   15.5190 N.3   247  THR247     -0.1218
     98  CA         6.0870    3.8110   16.2310 C.3   247  THR247      0.1862
     99  C          6.7330    2.5910   16.8790 C.2   247  THR247      0.2287
    100  O          6.0470    1.6800   17.3550 O.2   247  THR247     -0.2866
    101  CB         5.8260    4.8700   17.3010 C.3   247  THR247      0.1770
    102  OG1        5.3740    4.2420   18.5060 O.3   247  THR247     -0.2211
    103  CG2        4.8040    5.8620   16.8180 C.3   247  THR247      0.0375
@<TRIPOS>BOND
     1    92    91    2
     2    91    90    1
     3    90    89    1
     4    90    93    1
     5    95    93    1
     6    80    79    2
     7    93    94    1
     8    79    78    1
     9    96    94    1
    10    78    81    1
    11    78    77    1
    12    81    82    1
    13    97    98    1
    14    83    82   ar
    15    83    85   ar
    16    75    74    2
    17    82    84   ar
    18    77    74   am
    19    98    99    1
    20    98   101    1
    21    74    73    1
    22    85    87   ar
    23   103   101    1
    24    99   100    2
    25   101   102    1
    26    84    86   ar
    27    73    72    1
    28    73    76    1
    29    87    86   ar
    30    87    88    1
    31    68    67    2
    32    34    33    1
    33    67    66    1
    34    33    32    2
    35    33    35    1
    36    32    31    1
    37    61    60    2
    38    66    65    1
    39    66    69    1
    40    70    69    1
    41    57    55   ar
    42    60    65   am
    43    60    59    1
    44    58    59    1
    45    31    30    1
    46    56    55   ar
    47    69    71    1
    48    59    62    1
    49    55    54    1
    50    30    29    1
    51     8     6   am
    52    16    14    1
    53    29    26    1
    54     5     6    1
    55     5     2    1
    56    15    14    1
    57    54    51    1
    58    62    63    1
    59    62    64    1
    60    28    27    2
    61     6     7    2
    62    14    13    1
    63    26    27    1
    64    26    25    1
    65     4     3    2
    66    51    50    1
    67    51    52    1
    68     1     2    1
    69     2     3    1
    70    50    48   am
    71    45    44   ar
    72    45    43   ar
    73    48    47    1
    74    48    49    2
    75    47    46    1
    76    13    10    1
    77    44    42   ar
    78    12    11    2
    79    52    53    2
    80    43    41   ar
    81    11    10    1
    82    11    17   am
    83    10     9    1
    84    20    19    2
    85    46    38   am
    86    18    17    1
    87    18    19    1
    88    18    21    1
    89    42    41   ar
    90    24    22   ar
    91    41    40    1
    92    39    38    2
    93    22    23   ar
    94    22    21    1
    95    38    37    1
    96    40    37    1
    97    37    36    1
