@<TRIPOS>MOLECULE
tmp/4qo8A02.pdb
 146 139 0 0 0
SMALL
GASTEIGER

@<TRIPOS>ATOM
      1  N         45.0140    9.3640   40.9950 N.3    30  VAL30      -0.1245
      2  CA        43.9350   10.0630   40.2960 C.3    30  VAL30       0.1561
      3  C         44.0510    9.8930   38.7670 C.2    30  VAL30       0.2260
      4  O         43.0690    9.5790   38.0850 O.2    30  VAL30      -0.2867
      5  CB        43.8950   11.5650   40.6690 C.3    30  VAL30       0.0252
      6  CG1       42.9240   12.3190   39.7530 C.3    30  VAL30       0.0019
      7  CG2       43.5290   11.7570   42.1630 C.3    30  VAL30       0.0019
      8  N         51.9400   16.8490   46.3900 N.3    98  ARG98      -0.1231
      9  CA        51.1260   16.7460   47.6010 C.3    98  ARG98       0.1694
     10  C         51.5480   17.8000   48.6210 C.2    98  ARG98       0.2591
     11  O         52.7420   18.0050   48.8490 O.2    98  ARG98      -0.2718
     12  CB        51.2090   15.3390   48.2020 C.3    98  ARG98       0.0321
     13  CG        50.6000   14.2580   47.3160 C.3    98  ARG98       0.0489
     14  CD        50.5950   12.8900   47.9930 C.3    98  ARG98       0.2205
     15  NE        49.8940   11.8970   47.1810 N.pl3  98  ARG98      -0.0865
     16  CZ        49.6140   10.6580   47.5770 C.cat  98  ARG98       0.5346
     17  NH1       49.9750   10.2450   48.7840 N.pl3  98  ARG98       0.1354
     18  NH2       48.9680    9.8310   46.7630 N.pl3  98  ARG98       0.1354
     19  N         50.5660   18.4700   49.2220 N.am   99  GLN99      -0.1979
     20  CA        50.8390   19.5780   50.1360 C.3    99  GLN99       0.1601
     21  C         51.6290   19.1390   51.3680 C.2    99  GLN99       0.2287
     22  O         51.3890   18.0660   51.9300 O.2    99  GLN99      -0.2864
     23  CB        49.5430   20.2840   50.5570 C.3    99  GLN99       0.0394
     24  CG        49.7740   21.4960   51.4620 C.3    99  GLN99       0.0908
     25  CD        48.5160   22.3170   51.7000 C.2    99  GLN99       0.2608
     26  OE1       47.4070   21.8900   51.3700 O.2    99  GLN99      -0.2717
     27  NE2       48.6860   23.5070   52.2720 N.am   99  GLN99      -0.0878
     28  N         44.8680   20.1510   42.2380 N.3   137  ASN137     -0.1240
     29  CA        44.4080   21.1030   43.2560 C.3   137  ASN137      0.1653
     30  C         45.4310   22.1650   43.6450 C.2   137  ASN137      0.2266
     31  O         46.6360   21.9380   43.5500 O.2   137  ASN137     -0.2867
     32  CB        44.0070   20.3510   44.5270 C.3   137  ASN137      0.1155
     33  CG        42.5540   19.9680   44.5350 C.2   137  ASN137      0.2627
     34  OD1       41.6910   20.7400   44.1020 O.2   137  ASN137     -0.2716
     35  ND2       42.2660   18.7650   45.0200 N.am  137  ASN137     -0.0877
     36  N         32.8330   16.4990   41.3980 N.3   164  LEU164     -0.1231
     37  CA        32.9300   15.4320   42.3780 C.3   164  LEU164      0.1693
     38  C         32.1140   15.8040   43.6130 C.2   164  LEU164      0.2592
     39  O         31.4880   14.9400   44.2180 O.2   164  LEU164     -0.2718
     40  CB        34.3880   15.1530   42.7610 C.3   164  LEU164      0.0284
     41  CG        34.5530   14.1420   43.9020 C.3   164  LEU164      0.0019
     42  CD1       34.1070   12.7430   43.4390 C.3   164  LEU164      0.0001
     43  CD2       35.9780   14.1140   44.4210 C.3   164  LEU164      0.0001
     44  N         32.1110   17.0930   43.9670 N.am  165  ASP165     -0.1974
     45  CA        31.3420   17.5770   45.1190 C.3   165  ASP165      0.1709
     46  C         29.8570   17.2670   44.9230 C.2   165  ASP165      0.2293
     47  O         29.1730   16.8230   45.8470 O.2   165  ASP165     -0.2864
     48  CB        31.5010   19.0960   45.3080 C.3   165  ASP165      0.1436
     49  CG        32.9530   19.5480   45.3380 C.2   165  ASP165      0.3671
     50  OD1       33.3510   20.1510   46.3500 O.co2 165  ASP165     -0.2456
     51  OD2       33.6870   19.3350   44.3450 O.co2 165  ASP165     -0.2456
     52  N         29.0980   13.4180   45.1640 N.3   168  ARG168     -0.1245
     53  CA        29.0140   13.0090   46.5570 C.3   168  ARG168      0.1563
     54  C         27.6930   13.4500   47.1690 C.2   168  ARG168      0.2260
     55  O         27.0610   12.7020   47.9210 O.2   168  ARG168     -0.2867
     56  CB        30.1970   13.5490   47.3590 C.3   168  ARG168      0.0307
     57  CG        31.5320   12.9060   46.9760 C.3   168  ARG168      0.0489
     58  CD        32.6410   13.4100   47.8780 C.3   168  ARG168      0.2205
     59  NE        33.8490   12.5920   47.7910 N.pl3 168  ARG168     -0.0865
     60  CZ        35.0820   13.0890   47.7560 C.cat 168  ARG168      0.5346
     61  NH1       36.1310   12.2800   47.6890 N.pl3 168  ARG168      0.1354
     62  NH2       35.2650   14.4010   47.7870 N.pl3 168  ARG168      0.1354
     63  N         35.5180   24.7300   44.6480 N.3   192  HIS192     -0.1226
     64  CA        35.6270   23.3190   45.0010 C.3   192  HIS192      0.1752
     65  C         36.1450   23.1250   46.4300 C.2   192  HIS192      0.2597
     66  O         37.0400   23.8410   46.8790 O.2   192  HIS192     -0.2718
     67  CB        36.5400   22.5870   44.0180 C.3   192  HIS192      0.0759
     68  CG        36.9350   21.2170   44.4780 C.ar  192  HIS192      0.0818
     69  ND1       36.0530   20.1600   44.5090 N.ar  192  HIS192     -0.2268
     70  CD2       38.1130   20.7380   44.9450 C.ar  192  HIS192      0.1154
     71  CE1       36.6740   19.0840   44.9590 C.ar  192  HIS192      0.1986
     72  NE2       37.9240   19.4100   45.2340 N.ar  192  HIS192     -0.2212
     73  N         35.5820   22.1510   47.1420 N.am  193  GLY193     -0.1942
     74  CA        36.0790   21.8010   48.4630 C.3   193  GLY193      0.2014
     75  C         35.3640   22.4760   49.6210 C.2   193  GLY193      0.2638
     76  O         34.1360   22.5650   49.6330 O.2   193  GLY193     -0.2714
     77  N         36.1350   22.9570   50.5940 N.am  194  ASP194     -0.1971
     78  CA        35.5670   23.4960   51.8350 C.3   194  ASP194      0.1709
     79  C         34.4860   24.5590   51.6480 C.2   194  ASP194      0.2293
     80  O         33.4950   24.5720   52.3780 O.2   194  ASP194     -0.2864
     81  CB        36.6680   24.0600   52.7320 C.3   194  ASP194      0.1436
     82  CG        37.5850   22.9870   53.2690 C.2   194  ASP194      0.3671
     83  OD1       37.3010   21.7880   53.0370 O.co2 194  ASP194     -0.2456
     84  OD2       38.5850   23.3460   53.9250 O.co2 194  ASP194     -0.2456
     85  N         29.5200   15.9670   52.7510 N.3   233  VAL233     -0.1231
     86  CA        30.2690   16.0290   51.5050 C.3   233  VAL233      0.1692
     87  C         31.6940   16.4950   51.7860 C.2   233  VAL233      0.2591
     88  O         32.6610   15.8860   51.3260 O.2   233  VAL233     -0.2718
     89  CB        29.5860   16.9590   50.4910 C.3   233  VAL233      0.0266
     90  CG1       30.5380   17.3260   49.3610 C.3   233  VAL233      0.0020
     91  CG2       28.3280   16.2990   49.9510 C.3   233  VAL233      0.0020
     92  N         31.8130   17.5570   52.5760 N.am  234  VAL234     -0.1980
     93  CA        33.1120   18.1120   52.9480 C.3   234  VAL234      0.1595
     94  C         33.8860   17.1860   53.8880 C.2   234  VAL234      0.2287
     95  O         35.0700   16.9230   53.6790 O.2   234  VAL234     -0.2864
     96  CB        32.9480   19.5200   53.5740 C.3   234  VAL234      0.0276
     97  CG1       34.2380   19.9720   54.2320 C.3   234  VAL234      0.0022
     98  CG2       32.5190   20.5040   52.5060 C.3   234  VAL234      0.0022
     99  N         35.4690   13.9230   52.1340 N.3   237  ALA237     -0.1231
    100  CA        36.7590   14.1060   51.4790 C.3   237  ALA237      0.1694
    101  C         37.8920   13.7980   52.4530 C.2   237  ALA237      0.2592
    102  O         38.7780   12.9860   52.1690 O.2   237  ALA237     -0.2718
    103  CB        36.8870   15.5310   50.9520 C.3   237  ALA237      0.0304
    104  N         37.8500   14.4380   53.6130 N.am  238  TYR238     -0.1976
    105  CA        38.9240   14.2840   54.5800 C.3   238  TYR238      0.1639
    106  C         38.9280   12.8910   55.1900 C.2   238  TYR238      0.2290
    107  O         39.9860   12.3760   55.5510 O.2   238  TYR238     -0.2864
    108  CB        38.8560   15.3750   55.6560 C.3   238  TYR238      0.0560
    109  CG        39.0170   16.7650   55.0730 C.ar  238  TYR238     -0.0198
    110  CD1       40.2780   17.3020   54.8500 C.ar  238  TYR238     -0.0009
    111  CD2       37.9090   17.5250   54.7210 C.ar  238  TYR238     -0.0009
    112  CE1       40.4330   18.5640   54.3050 C.ar  238  TYR238      0.0417
    113  CE2       38.0540   18.7950   54.1750 C.ar  238  TYR238      0.0417
    114  CZ        39.3200   19.3040   53.9680 C.ar  238  TYR238      0.1957
    115  OH        39.4780   20.5580   53.4220 O.3   238  TYR238     -0.2866
    116  N         40.6540   10.3690   52.7540 N.3   241  ILE241     -0.1245
    117  CA        42.0940   10.5960   52.8510 C.3   241  ILE241      0.1561
    118  C         42.6550    9.9620   54.1230 C.2   241  ILE241      0.2260
    119  O         43.6430    9.2280   54.0810 O.2   241  ILE241     -0.2867
    120  CB        42.4270   12.0960   52.8350 C.3   241  ILE241      0.0252
    121  CG1       42.1230   12.6840   51.4590 C.3   241  ILE241      0.0019
    122  CG2       43.8900   12.3340   53.1930 C.3   241  ILE241      0.0019
    123  CD1       42.8280   11.9630   50.3410 C.3   241  ILE241      0.0001
    124  N         44.3090    7.1480   52.4790 N.3   245  GLY245     -0.1210
    125  CA        45.4730    7.9610   52.1660 C.3   245  GLY245      0.1956
    126  C         45.3630    8.8380   50.9240 C.2   245  GLY245      0.2612
    127  O         46.2000    9.7130   50.7090 O.2   245  GLY245     -0.2717
    128  N         44.3300    8.6130   50.1180 N.am  246  TYR246     -0.1962
    129  CA        44.0860    9.4000   48.9070 C.3   246  TYR246      0.1771
    130  C         42.7110    9.0180   48.3760 C.2   246  TYR246      0.2620
    131  O         42.0800    8.1020   48.8900 O.2   246  TYR246     -0.2715
    132  CB        45.1430    9.0970   47.8360 C.3   246  TYR246      0.0574
    133  CG        45.2160    7.6260   47.4750 C.ar  246  TYR246     -0.0198
    134  CD1       44.3980    7.0830   46.4840 C.ar  246  TYR246     -0.0009
    135  CD2       46.0880    6.7740   48.1430 C.ar  246  TYR246     -0.0009
    136  CE1       44.4570    5.7280   46.1700 C.ar  246  TYR246      0.0417
    137  CE2       46.1540    5.4300   47.8380 C.ar  246  TYR246      0.0417
    138  CZ        45.3420    4.9120   46.8470 C.ar  246  TYR246      0.1957
    139  OH        45.4110    3.5660   46.5520 O.3   246  TYR246     -0.2866
    140  N         42.2480    9.7160   47.3480 N.am  247  THR247     -0.1951
    141  CA        41.0070    9.3530   46.6880 C.3   247  THR247      0.1897
    142  C         41.3250    9.1050   45.2120 C.2   247  THR247      0.2313
    143  O         42.2210    9.7300   44.6570 O.2   247  THR247     -0.2863
    144  CB        39.9370   10.4520   46.8350 C.3   247  THR247      0.1794
    145  OG1       40.3010   11.5890   46.0440 O.3   247  THR247     -0.2208
    146  CG2       39.8180   10.8800   48.2820 C.3   247  THR247      0.0378
@<TRIPOS>BOND
     1     4     3    2
     2     3     2    1
     3     6     5    1
     4     2     5    1
     5     2     1    1
     6     5     7    1
     7    36    37    1
     8    28    29    1
     9    37    40    1
    10    37    38    1
    11    40    41    1
    12    29    30    1
    13    29    32    1
    14    42    41    1
    15    31    30    2
    16    38    44   am
    17    38    39    2
    18    41    43    1
    19    44    45    1
    20    67    68    1
    21    67    64    1
    22    34    33    2
    23    51    49   ar
    24    68    69   ar
    25    68    70   ar
    26    69    71   ar
    27    32    33    1
    28    33    35   am
    29    63    64    1
    30   143   142    2
    31    46    45    1
    32    46    47    2
    33    70    72   ar
    34    71    72   ar
    35    64    65    1
    36    45    48    1
    37    52    53    1
    38   142   141    1
    39    48    49    1
    40    49    50   ar
    41   145   144    1
    42   136   134   ar
    43   136   138   ar
    44     8     9    1
    45    65    66    2
    46    65    73   am
    47   134   133   ar
    48   139   138    1
    49    53    54    1
    50    53    56    1
    51   141   144    1
    52   141   140    1
    53    18    16    1
    54   144   146    1
    55   138   137   ar
    56    57    56    1
    57    57    58    1
    58    73    74    1
    59    54    55    2
    60    15    16    2
    61    15    14    1
    62    13    14    1
    63    13    12    1
    64   140   130   am
    65   133   132    1
    66   133   135   ar
    67    16    17    1
    68     9    12    1
    69     9    10    1
    70    61    60    1
    71    60    62    1
    72    60    59    2
    73    59    58    1
    74   132   129    1
    75   137   135   ar
    76   130   131    2
    77   130   129    1
    78    74    75    1
    79    10    11    2
    80    10    19   am
    81   129   128    1
    82    19    20    1
    83    90    89    1
    84    75    76    2
    85    75    77   am
    86    91    89    1
    87   128   126   am
    88    20    23    1
    89    20    21    1
    90   123   121    1
    91    89    86    1
    92    23    24    1
    93    77    78    1
    94   127   126    2
    95   126   125    1
    96   103   100    1
    97    88    87    2
    98    21    22    2
    99    26    25    2
   100   121   120    1
   101    24    25    1
   102   100    99    1
   103   100   101    1
   104    86    87    1
   105    86    85    1
   106    79    78    1
   107    79    80    2
   108    25    27   am
   109    87    92   am
   110    78    81    1
   111   125   124    1
   112   102   101    2
   113   101   104   am
   114    98    96    1
   115    92    93    1
   116    81    82    1
   117   116   117    1
   118   120   117    1
   119   120   122    1
   120   117   118    1
   121    93    96    1
   122    93    94    1
   123    83    82   ar
   124    82    84   ar
   125   115   114    1
   126    96    97    1
   127   104   105    1
   128    95    94    2
   129   114   113   ar
   130   114   112   ar
   131   119   118    2
   132   113   111   ar
   133   112   110   ar
   134   105   106    1
   135   105   108    1
   136   111   109   ar
   137   110   109   ar
   138   109   108    1
   139   106   107    2
