@<TRIPOS>MOLECULE
tmp/4qo9B01.pdb
 191 179 0 0 0
SMALL
GASTEIGER

@<TRIPOS>ATOM
      1  N         19.5710  -16.5270   16.4270 N.3    18  ILE18      -0.1245
      2  CA        20.2240  -15.5760   15.5320 C.3    18  ILE18       0.1561
      3  C         20.9550  -14.4890   16.3040 C.2    18  ILE18       0.2260
      4  O         21.5800  -13.6040   15.7110 O.2    18  ILE18      -0.2867
      5  CB        19.2150  -14.8850   14.5980 C.3    18  ILE18       0.0252
      6  CG1       18.1280  -14.2040   15.4210 C.3    18  ILE18       0.0019
      7  CG2       18.5860  -15.8780   13.6340 C.3    18  ILE18       0.0019
      8  CD1       17.2610  -13.2810   14.6150 C.3    18  ILE18       0.0001
      9  N         21.5150   -9.1930   27.4350 N.3    23  PHE23      -0.1241
     10  CA        20.0720   -9.1960   27.6440 C.3    23  PHE23       0.1605
     11  C         19.5870  -10.6450   27.8180 C.2    23  PHE23       0.2264
     12  O         19.1970  -11.0790   28.9140 O.2    23  PHE23      -0.2867
     13  CB        19.3440   -8.4590   26.4850 C.3    23  PHE23       0.0534
     14  CG        19.6360   -8.9990   25.0900 C.ar   23  PHE23      -0.0203
     15  CD1       20.7880   -8.6250   24.4130 C.ar   23  PHE23      -0.0042
     16  CD2       18.7550   -9.8700   24.4560 C.ar   23  PHE23      -0.0042
     17  CE1       21.0620   -9.1190   23.1310 C.ar   23  PHE23      -0.0003
     18  CE2       19.0230  -10.3640   23.1810 C.ar   23  PHE23      -0.0003
     19  CZ        20.1770   -9.9910   22.5190 C.ar   23  PHE23      -0.0000
     20  N         17.9690  -13.9400   20.9010 N.3    26  VAL26      -0.1245
     21  CA        17.0070  -13.6190   19.8560 C.3    26  VAL26       0.1561
     22  C         16.9090  -14.7930   18.9110 C.2    26  VAL26       0.2260
     23  O         17.9180  -15.3650   18.5010 O.2    26  VAL26      -0.2867
     24  CB        17.3950  -12.3560   19.0570 C.3    26  VAL26       0.0252
     25  CG1       16.2380  -11.9000   18.1910 C.3    26  VAL26       0.0019
     26  CG2       17.8200  -11.2330   19.9940 C.3    26  VAL26       0.0019
     27  N         10.6160  -12.2230   14.8000 N.3    39  ALA39      -0.1245
     28  CA        11.7530  -12.2600   15.6960 C.3    39  ALA39       0.1562
     29  C         11.2670  -12.4730   17.1380 C.2    39  ALA39       0.2260
     30  O         10.2680  -11.8930   17.5630 O.2    39  ALA39      -0.2867
     31  CB        12.5710  -10.9730   15.5830 C.3    39  ALA39       0.0290
     32  N         12.6530  -12.1830   20.9400 N.3    41  LYS41      -0.1245
     33  CA        13.6950  -11.8000   21.8740 C.3    41  LYS41       0.1561
     34  C         13.2920  -12.3260   23.2330 C.2    41  LYS41       0.2260
     35  O         12.2550  -11.9470   23.7710 O.2    41  LYS41      -0.2867
     36  CB        13.8960  -10.2820   21.8920 C.3    41  LYS41       0.0271
     37  CG        15.0900   -9.8290   22.7220 C.3    41  LYS41       0.0035
     38  CD        15.6250   -8.4510   22.3070 C.3    41  LYS41       0.0206
     39  CE        14.6450   -7.3290   22.6200 C.3    41  LYS41       0.1093
     40  NZ        15.1650   -5.9950   22.1900 N.3    41  LYS41      -0.1314
     41  N         11.7340    0.0310   26.1920 N.3    58  GLU58      -0.1245
     42  CA        11.6580   -0.2600   24.7720 C.3    58  GLU58       0.1567
     43  C         10.2640   -0.7400   24.4610 C.2    58  GLU58       0.2260
     44  O          9.6510   -0.2990   23.4850 O.2    58  GLU58      -0.2867
     45  CB        12.6910   -1.3130   24.3350 C.3    58  GLU58       0.0388
     46  CG        12.3650   -1.9160   22.9580 C.3    58  GLU58       0.1160
     47  CD        13.5330   -2.6570   22.3170 C.2    58  GLU58       0.3649
     48  OE1       13.6330   -3.8940   22.5160 O.co2  58  GLU58      -0.2457
     49  OE2       14.3440   -2.0050   21.6070 O.co2  58  GLU58      -0.2457
     50  N         11.1180   -0.7440   13.9260 N.3    71  THR71      -0.1218
     51  CA        10.8790   -2.1760   14.1060 C.3    71  THR71       0.1862
     52  C          9.5670   -2.3740   14.8610 C.2    71  THR71       0.2287
     53  O          9.3850   -1.7940   15.9260 O.2    71  THR71      -0.2866
     54  CB        12.0170   -2.8410   14.8640 C.3    71  THR71       0.1770
     55  OG1       12.1290   -2.2300   16.1560 O.3    71  THR71      -0.2211
     56  CG2       13.3290   -2.6450   14.1190 C.3    71  THR71       0.0375
     57  N          8.6750   -9.5920   17.8520 N.3    87  MET87      -0.1230
     58  CA         8.9270   -8.4160   17.0320 C.3    87  MET87       0.1702
     59  C          8.9770   -8.7450   15.5590 C.2    87  MET87       0.2592
     60  O          8.9810   -9.9150   15.1540 O.2    87  MET87      -0.2718
     61  CB        10.2340   -7.7550   17.4550 C.3    87  MET87       0.0401
     62  CG        10.2080   -7.2780   18.8830 C.3    87  MET87       0.0596
     63  SD        11.7580   -6.5110   19.3370 S.3    87  MET87      -0.1393
     64  CE        12.7990   -7.9390   19.3840 C.3    87  MET87       0.0692
     65  N          9.0040   -7.6920   14.7630 N.am   88  GLU88      -0.1966
     66  CA         9.2140   -7.8010   13.3350 C.3    88  GLU88       0.1733
     67  C         10.5650   -8.4680   13.0990 C.2    88  GLU88       0.2616
     68  O         11.5310   -8.1340   13.7600 O.2    88  GLU88      -0.2715
     69  CB         9.1590   -6.4040   12.6980 C.3    88  GLU88       0.0429
     70  CG         9.4410   -6.3690   11.2170 C.3    88  GLU88       0.1163
     71  CD         9.3740   -4.9620   10.6410 C.2    88  GLU88       0.3649
     72  OE1        9.2010   -4.0150   11.4320 O.co2  88  GLU88      -0.2457
     73  OE2        9.4930   -4.8060    9.4030 O.co2  88  GLU88      -0.2457
     74  N         10.6160   -9.4270   12.1880 N.am   89  TYR89      -0.1960
     75  CA        11.8740  -10.0330   11.7620 C.3    89  TYR89       0.1771
     76  C         12.4860   -9.2690   10.5930 C.2    89  TYR89       0.2619
     77  O         11.8110   -8.9850    9.6040 O.2    89  TYR89      -0.2715
     78  CB        11.6690  -11.4940   11.3430 C.3    89  TYR89       0.0574
     79  CG        12.9530  -12.1810   10.9440 C.ar   89  TYR89      -0.0198
     80  CD1       13.8410  -12.6440   11.9170 C.ar   89  TYR89      -0.0009
     81  CD2       13.2830  -12.3700    9.6020 C.ar   89  TYR89      -0.0009
     82  CE1       15.0100  -13.2610   11.5740 C.ar   89  TYR89       0.0417
     83  CE2       14.4570  -12.9970    9.2490 C.ar   89  TYR89       0.0417
     84  CZ        15.3130  -13.4450   10.2430 C.ar   89  TYR89       0.1957
     85  OH        16.4860  -14.0670    9.9180 O.3    89  TYR89      -0.2866
     86  N         13.7670   -8.9650   10.7090 N.am   90  LEU90      -0.1963
     87  CA        14.5150   -8.2890    9.6630 C.3    90  LEU90       0.1728
     88  C         15.7730   -9.0970    9.4090 C.2    90  LEU90       0.2617
     89  O         16.6630   -9.1360   10.2560 O.2    90  LEU90      -0.2715
     90  CB        14.8530   -6.8570   10.0790 C.3    90  LEU90       0.0311
     91  CG        13.6300   -5.9870   10.3550 C.3    90  LEU90       0.0022
     92  CD1       14.0460   -4.7750   11.1490 C.3    90  LEU90       0.0001
     93  CD2       12.9920   -5.5690    9.0470 C.3    90  LEU90       0.0001
     94  N         15.8360   -9.7570    8.2570 N.am   91  GLY91      -0.1940
     95  CA        16.8760  -10.7390    8.0040 C.3    91  GLY91       0.2014
     96  C         18.1290  -10.2370    7.3110 C.2    91  GLY91       0.2639
     97  O         19.0050  -11.0260    7.0020 O.2    91  GLY91      -0.2714
     98  N         18.2380   -8.9290    7.0960 N.am   92  GLY92      -0.1939
     99  CA        19.3350   -8.3920    6.3120 C.3    92  GLY92       0.2014
    100  C         20.6360   -8.1270    7.0460 C.2    92  GLY92       0.2639
    101  O         21.6870   -8.0270    6.4160 O.2    92  GLY92      -0.2714
    102  N         20.5700   -8.0200    8.3690 N.am   93  GLY93      -0.1939
    103  CA        21.7130   -7.6140    9.1740 C.3    93  GLY93       0.2014
    104  C         21.6250   -6.1230    9.4800 C.2    93  GLY93       0.2639
    105  O         20.7930   -5.4160    8.9150 O.2    93  GLY93      -0.2714
    106  N         22.4690   -5.6350   10.3750 N.am   94  SER94      -0.1949
    107  CA        22.5130   -4.2040   10.6430 C.3    94  SER94       0.1924
    108  C         23.3900   -3.4840    9.6190 C.2    94  SER94       0.2314
    109  O         24.1580   -4.1120    8.8920 O.2    94  SER94      -0.2863
    110  CB        23.0300   -3.9290   12.0500 C.3    94  SER94       0.2116
    111  OG        24.4130   -4.2150   12.1380 O.3    94  SER94      -0.2180
    112  N         27.0270   -4.4130   10.3380 N.3    97  ASP97      -0.1239
    113  CA        27.3130   -5.7000    9.6850 C.3    97  ASP97       0.1674
    114  C         27.6830   -5.5510    8.2040 C.2    97  ASP97       0.2266
    115  O         28.6560   -6.1230    7.7320 O.2    97  ASP97      -0.2867
    116  CB        26.1040   -6.6350    9.7780 C.3    97  ASP97       0.1410
    117  CG        25.7420   -6.9760   11.1950 C.2    97  ASP97       0.3668
    118  OD1       26.6220   -6.8630   12.0630 O.co2  97  ASP97      -0.2456
    119  OD2       24.5860   -7.3800   11.4380 O.co2  97  ASP97      -0.2456
    120  N         24.9260    0.2540   14.1690 N.3   136  ALA136     -0.1231
    121  CA        24.6180   -1.0610   14.7420 C.3   136  ALA136      0.1694
    122  C         23.1440   -1.1820   15.0660 C.2   136  ALA136      0.2592
    123  O         22.6260   -2.2810   15.2370 O.2   136  ALA136     -0.2718
    124  CB        25.4620   -1.3210   16.0090 C.3   136  ALA136      0.0304
    125  N         22.4670   -0.0450   15.1550 N.am  137  ASN137     -0.1974
    126  CA        21.0540   -0.0310   15.4950 C.3   137  ASN137      0.1688
    127  C         20.1770    0.2530   14.2840 C.2   137  ASN137      0.2292
    128  O         19.0000    0.5670   14.4060 O.2   137  ASN137     -0.2864
    129  CB        20.7990    0.9890   16.6060 C.3   137  ASN137      0.1181
    130  CG        21.3000    0.4950   17.9650 C.2   137  ASN137      0.2629
    131  OD1       21.5140   -0.6960   18.1430 O.2   137  ASN137     -0.2716
    132  ND2       21.4770    1.4080   18.9230 N.am  137  ASN137     -0.0877
    133  N         18.6810   -1.6580   11.2030 N.3   139  LEU139     -0.1245
    134  CA        18.4800   -3.0440   10.7630 C.3   139  LEU139      0.1561
    135  C         17.8370   -3.0660    9.3910 C.2   139  LEU139      0.2260
    136  O         16.9580   -2.2480    9.0810 O.2   139  LEU139     -0.2867
    137  CB        17.6030   -3.8420   11.7580 C.3   139  LEU139      0.0270
    138  CG        18.1270   -3.9370   13.1960 C.3   139  LEU139      0.0019
    139  CD1       17.3560   -4.9560   14.0590 C.3   139  LEU139      0.0001
    140  CD2       19.6170   -4.2600   13.2000 C.3   139  LEU139      0.0001
    141  N         16.1670    0.3380   15.3910 N.3   149  ALA149     -0.1231
    142  CA        15.9460   -0.6350   16.4430 C.3   149  ALA149      0.1694
    143  C         16.6780   -0.1880   17.7030 C.2   149  ALA149      0.2592
    144  O         17.3550    0.8350   17.6940 O.2   149  ALA149     -0.2718
    145  CB        16.4200   -2.0270   16.0060 C.3   149  ALA149      0.0304
    146  N         16.5580   -0.9900   18.7580 N.am  150  ASP150     -0.1974
    147  CA        17.1150   -0.7150   20.0900 C.3   150  ASP150      0.1709
    148  C         16.5850    0.5730   20.7010 C.2   150  ASP150      0.2293
    149  O         17.2660    1.5940   20.7190 O.2   150  ASP150     -0.2864
    150  CB        18.6410   -0.6530   20.0690 C.3   150  ASP150      0.1436
    151  CG        19.2490   -0.8150   21.4700 C.2   150  ASP150      0.3671
    152  OD1       18.4900   -0.7820   22.4700 O.co2 150  ASP150     -0.2456
    153  OD2       20.4850   -0.9670   21.5730 O.co2 150  ASP150     -0.2456
    154  N         23.3640   -6.7740    1.0230 N.3   275  ILE275     -0.1245
    155  CA        23.0630   -7.9920    1.7550 C.3   275  ILE275      0.1561
    156  C         23.6600   -9.1850    1.0300 C.2   275  ILE275      0.2260
    157  O         24.2530  -10.0570    1.6550 O.2   275  ILE275     -0.2867
    158  CB        21.5430   -8.1460    1.9400 C.3   275  ILE275      0.0252
    159  CG1       21.0140   -6.9110    2.6760 C.3   275  ILE275      0.0019
    160  CG2       21.2220   -9.4130    2.7130 C.3   275  ILE275      0.0019
    161  CD1       19.5420   -6.7490    2.6140 C.3   275  ILE275      0.0001
    162  N         27.3430   -9.3010    1.8090 N.3   278  TYR278     -0.1227
    163  CA        27.6130   -9.8060    3.1510 C.3   278  TYR278      0.1736
    164  C         27.5570  -11.3400    3.1850 C.2   278  TYR278      0.2595
    165  O         28.4360  -11.9930    3.7570 O.2   278  TYR278     -0.2718
    166  CB        26.6280   -9.2120    4.1620 C.3   278  TYR278      0.0548
    167  CG        26.9130   -9.6290    5.5910 C.ar  278  TYR278     -0.0200
    168  CD1       27.8510   -8.9570    6.3540 C.ar  278  TYR278     -0.0009
    169  CD2       26.2570  -10.7090    6.1630 C.ar  278  TYR278     -0.0009
    170  CE1       28.1260   -9.3400    7.6490 C.ar  278  TYR278      0.0417
    171  CE2       26.5280  -11.1020    7.4590 C.ar  278  TYR278      0.0417
    172  CZ        27.4630  -10.4140    8.1960 C.ar  278  TYR278      0.1957
    173  OH        27.7290  -10.8090    9.4860 O.3   278  TYR278     -0.2866
    174  N         26.5180  -11.9060    2.5730 N.am  279  LYS279     -0.1980
    175  CA        26.3680  -13.3580    2.4790 C.3   279  LYS279      0.1596
    176  C         27.6130  -14.0100    1.8830 C.2   279  LYS279      0.2287
    177  O         28.2280  -14.8710    2.5000 O.2   279  LYS279     -0.2864
    178  CB        25.1410  -13.7170    1.6340 C.3   279  LYS279      0.0298
    179  CG        23.7980  -13.4210    2.3100 C.3   279  LYS279      0.0038
    180  CD        22.6500  -13.5200    1.3080 C.3   279  LYS279      0.0206
    181  CE        21.2910  -13.6200    1.9930 C.3   279  LYS279      0.1093
    182  NZ        20.1950  -13.9140    1.0120 N.3   279  LYS279     -0.1314
    183  N         30.6450  -13.7450    4.1280 N.3   282  LYS282     -0.1245
    184  CA        30.7140  -14.5400    5.2970 C.3   282  LYS282      0.1561
    185  C         30.8760  -16.0170    4.9560 C.2   282  LYS282      0.2260
    186  O         31.3600  -16.7650    5.7050 O.2   282  LYS282     -0.2867
    187  CB        29.5670  -14.2260    6.2360 C.3   282  LYS282      0.0271
    188  CG        28.3640  -15.0880    6.1100 C.3   282  LYS282      0.0035
    189  CD        27.7980  -15.3710    7.4730 C.3   282  LYS282      0.0206
    190  CE        26.2800  -15.2380    7.4960 C.3   282  LYS282      0.1093
    191  NZ        25.6510  -16.0760    8.5410 N.3   282  LYS282     -0.1314
@<TRIPOS>BOND
     1   182   181    1
     2   154   155    1
     3   156   157    2
     4   156   155    1
     5   180   181    1
     6   180   179    1
     7   178   179    1
     8   178   175    1
     9   155   158    1
    10   162   163    1
    11   176   175    1
    12   176   177    2
    13   158   159    1
    14   158   160    1
    15   175   174    1
    16   174   164   am
    17   161   159    1
    18   163   164    1
    19   163   166    1
    20   164   165    2
    21   183   184    1
    22   166   167    1
    23   185   184    1
    24   185   186    2
    25   184   187    1
    26   167   169   ar
    27   167   168   ar
    28   188   187    1
    29   188   189    1
    30   169   171   ar
    31    99   100    1
    32    99    98    1
    33   168   170   ar
    34   101   100    2
    35    97    96    2
    36   100   102   am
    37    98    96   am
    38    96    95    1
    39   171   172   ar
    40   189   190    1
    41   190   191    1
    42   170   172   ar
    43   115   114    2
    44    95    94    1
    45   172   173    1
    46   114   113    1
    47    94    88   am
    48   102   103    1
    49   109   108    2
    50   105   104    2
    51    93    91    1
    52   136   135    2
    53   103   104    1
    54    83    81   ar
    55    83    84   ar
    56   135   134    1
    57    73    71   ar
    58    88    87    1
    59    88    89    2
    60   104   106   am
    61    81    79   ar
    62    77    76    2
    63   108   107    1
    64    87    90    1
    65    87    86    1
    66   113   116    1
    67   113   112    1
    68   116   117    1
    69    85    84    1
    70    90    91    1
    71    84    82   ar
    72    91    92    1
    73   106   107    1
    74    76    86   am
    75    76    75    1
    76    71    70    1
    77    71    72   ar
    78   107   110    1
    79   134   133    1
    80   134   137    1
    81    79    78    1
    82    79    80   ar
    83   117   119   ar
    84   117   118   ar
    85    70    69    1
    86    78    75    1
    87    82    80   ar
    88   137   138    1
    89    75    74    1
    90   110   111    1
    91    74    67   am
    92    69    66    1
    93    67    66    1
    94    67    68    2
    95   138   140    1
    96   138   139    1
    97    66    65    1
    98     7     5    1
    99    50    51    1
   100    51    52    1
   101    51    54    1
   102    56    54    1
   103   120   121    1
   104   127   128    2
   105   127   126    1
   106     5     6    1
   107     5     2    1
   108     8     6    1
   109   121   122    1
   110   121   124    1
   111    65    59   am
   112    27    28    1
   113    52    53    2
   114    54    55    1
   115   122   125   am
   116   122   123    2
   117    60    59    2
   118   125   126    1
   119   141   142    1
   120   126   129    1
   121     2     3    1
   122     2     1    1
   123    59    58    1
   124    31    28    1
   125    28    29    1
   126     4     3    2
   127   145   142    1
   128   142   143    1
   129   129   130    1
   130    58    61    1
   131    58    57    1
   132    29    30    2
   133    61    62    1
   134   144   143    2
   135   143   146   am
   136   130   131    2
   137   130   132   am
   138    25    24    1
   139    23    22    2
   140   146   147    1
   141    62    63    1
   142    22    21    1
   143    24    21    1
   144    24    26    1
   145    63    64    1
   146    21    20    1
   147   150   147    1
   148   150   151    1
   149   147   148    1
   150   148   149    2
   151    32    33    1
   152   151   153   ar
   153   151   152   ar
   154    49    47   ar
   155    33    36    1
   156    33    34    1
   157    36    37    1
   158    40    39    1
   159    38    39    1
   160    38    37    1
   161    47    48   ar
   162    47    46    1
   163    19    17   ar
   164    19    18   ar
   165    46    45    1
   166    17    15   ar
   167    18    16   ar
   168    34    35    2
   169    44    43    2
   170    45    42    1
   171    15    14   ar
   172    16    14   ar
   173    43    42    1
   174    42    41    1
   175    14    13    1
   176    13    10    1
   177     9    10    1
   178    10    11    1
   179    11    12    2
