@<TRIPOS>MOLECULE
tmp/4qocB00.pdb
 178 171 0 0 0
SMALL
GASTEIGER

@<TRIPOS>ATOM
      1  N         -8.9290   -4.8750  -41.9890 N.3     1  ILE1       -0.1245
      2  CA        -9.5460   -5.8470  -41.0080 C.3     1  ILE1        0.1561
      3  C        -11.0680   -5.5810  -40.6460 C.2     1  ILE1        0.2260
      4  O        -11.3690   -4.4610  -40.3220 O.2     1  ILE1       -0.2867
      5  CB        -8.8600   -5.6910  -39.6340 C.3     1  ILE1        0.0252
      6  CG1       -7.3430   -5.7850  -39.7270 C.3     1  ILE1        0.0019
      7  CG2       -9.4920   -6.6630  -38.6180 C.3     1  ILE1        0.0019
      8  CD1       -6.7610   -6.9560  -39.0790 C.3     1  ILE1        0.0001
      9  N         -3.8680   -7.5810  -29.5830 N.3    36  LEU36      -0.1231
     10  CA        -3.2170   -6.5340  -30.3740 C.3    36  LEU36       0.1693
     11  C         -2.8390   -5.3210  -29.5360 C.2    36  LEU36       0.2592
     12  O         -1.8110   -4.7010  -29.7720 O.2    36  LEU36      -0.2718
     13  CB        -4.1030   -6.1060  -31.5450 C.3    36  LEU36       0.0284
     14  CG        -3.9630   -6.9490  -32.8190 C.3    36  LEU36       0.0019
     15  CD1       -2.6060   -6.6720  -33.4430 C.3    36  LEU36       0.0001
     16  CD2       -4.0980   -8.4340  -32.5050 C.3    36  LEU36       0.0001
     17  N         -3.6700   -4.9720  -28.5650 N.am   37  PHE37      -0.1976
     18  CA        -3.3260   -3.8430  -27.7110 C.3    37  PHE37       0.1639
     19  C         -2.0470   -4.1640  -26.9430 C.2    37  PHE37       0.2290
     20  O         -1.0940   -3.3870  -26.9610 O.2    37  PHE37      -0.2864
     21  CB        -4.4270   -3.5610  -26.6930 C.3    37  PHE37       0.0560
     22  CG        -4.0010   -2.6070  -25.6160 C.ar   37  PHE37      -0.0200
     23  CD1       -3.8740   -1.2450  -25.8740 C.ar   37  PHE37      -0.0042
     24  CD2       -3.7350   -3.0710  -24.3340 C.ar   37  PHE37      -0.0042
     25  CE1       -3.4610   -0.3640  -24.8690 C.ar   37  PHE37      -0.0003
     26  CE2       -3.3240   -2.2000  -23.3310 C.ar   37  PHE37      -0.0003
     27  CZ        -3.2020   -0.8400  -23.6010 C.ar   37  PHE37      -0.0000
     28  N          0.2760   -6.4580  -27.4720 N.3    39  LEU39      -0.1231
     29  CA         1.4310   -6.5820  -28.3570 C.3    39  LEU39       0.1693
     30  C          1.9400   -5.2040  -28.7410 C.2    39  LEU39       0.2593
     31  O          3.1460   -4.9690  -28.8030 O.2    39  LEU39      -0.2718
     32  CB         1.0760   -7.3560  -29.6320 C.3    39  LEU39       0.0284
     33  CG         1.0850   -8.9110  -29.4430 C.3    39  LEU39       0.0019
     34  CD1        0.5590   -9.5290  -30.7080 C.3    39  LEU39       0.0001
     35  CD2        2.4280   -9.5850  -29.1040 C.3    39  LEU39       0.0001
     36  N          1.0060   -4.3010  -29.0190 N.am   40  GLY40      -0.1942
     37  CA         1.3700   -2.9460  -29.3940 C.3    40  GLY40       0.2014
     38  C          2.1410   -2.2600  -28.2880 C.2    40  GLY40       0.2638
     39  O          3.1470   -1.5960  -28.5460 O.2    40  GLY40      -0.2714
     40  N          1.6680   -2.4170  -27.0530 N.am   41  GLN41      -0.1977
     41  CA         2.3310   -1.8150  -25.8990 C.3    41  GLN41       0.1601
     42  C          3.6750   -2.4760  -25.6230 C.2    41  GLN41       0.2287
     43  O          4.6330   -1.7940  -25.2740 O.2    41  GLN41      -0.2864
     44  CB         1.4380   -1.9080  -24.6650 C.3    41  GLN41       0.0394
     45  CG         0.2110   -1.0070  -24.7260 C.3    41  GLN41       0.0908
     46  CD         0.5750    0.4720  -24.8670 C.2    41  GLN41       0.2608
     47  OE1        1.4410    0.9780  -24.1640 O.2    41  GLN41      -0.2717
     48  NE2       -0.1010    1.1640  -25.7800 N.am   41  GLN41      -0.0878
     49  N          5.7000   -3.9340  -27.7990 N.3    43  ILE43      -0.1231
     50  CA         6.6220   -3.4780  -28.8220 C.3    43  ILE43       0.1692
     51  C          7.2160   -2.1100  -28.4900 C.2    43  ILE43       0.2591
     52  O          8.4240   -1.9040  -28.6230 O.2    43  ILE43      -0.2718
     53  CB         5.9140   -3.4110  -30.1850 C.3    43  ILE43       0.0266
     54  CG1        5.6970   -4.8300  -30.7160 C.3    43  ILE43       0.0019
     55  CG2        6.7280   -2.5920  -31.1640 C.3    43  ILE43       0.0020
     56  CD1        4.7830   -4.8910  -31.9280 C.3    43  ILE43       0.0001
     57  N          6.3760   -1.1770  -28.0570 N.am   44  MET44      -0.1979
     58  CA         6.8590    0.1650  -27.7090 C.3    44  MET44       0.1605
     59  C          7.7800    0.1460  -26.5010 C.2    44  MET44       0.2287
     60  O          8.7620    0.8970  -26.4480 O.2    44  MET44      -0.2864
     61  CB         5.7060    1.1150  -27.3800 C.3    44  MET44       0.0413
     62  CG         4.7960    1.4630  -28.5250 C.3    44  MET44       0.0598
     63  SD         5.6860    1.8430  -30.0420 S.3    44  MET44      -0.1393
     64  CE         6.2110    3.5060  -29.7630 C.3    44  MET44       0.0692
     65  N          9.9860   -0.6660  -32.1030 N.3    49  TYR49      -0.1241
     66  CA         9.3870    0.2250  -33.0950 C.3    49  TYR49       0.1605
     67  C          9.6290    1.6850  -32.7290 C.2    49  TYR49       0.2264
     68  O          9.5080    2.0740  -31.5700 O.2    49  TYR49      -0.2867
     69  CB         7.8700   -0.0110  -33.1900 C.3    49  TYR49       0.0534
     70  CG         7.1850    0.8870  -34.1920 C.ar   49  TYR49      -0.0201
     71  CD1        6.1660    1.7550  -33.8050 C.ar   49  TYR49      -0.0009
     72  CD2        7.5840    0.8900  -35.5250 C.ar   49  TYR49      -0.0009
     73  CE1        5.5640    2.6070  -34.7210 C.ar   49  TYR49       0.0417
     74  CE2        6.9920    1.7320  -36.4450 C.ar   49  TYR49       0.0417
     75  CZ         5.9870    2.5840  -36.0400 C.ar   49  TYR49       0.1957
     76  OH         5.4080    3.4000  -36.9750 O.3    49  TYR49      -0.2866
     77  N          8.4420    5.3660  -34.2800 N.3    51  GLU51      -0.1245
     78  CA         7.6370    6.0720  -35.2570 C.3    51  GLU51       0.1567
     79  C          8.4610    6.8740  -36.2760 C.2    51  GLU51       0.2260
     80  O          7.9690    7.1750  -37.3660 O.2    51  GLU51      -0.2867
     81  CB         6.6200    6.9740  -34.5360 C.3    51  GLU51       0.0388
     82  CG         5.7710    6.2070  -33.5180 C.3    51  GLU51       0.1160
     83  CD         4.9830    7.1300  -32.6030 C.2    51  GLU51       0.3649
     84  OE1        4.9750    8.3590  -32.8750 O.co2  51  GLU51      -0.2457
     85  OE2        4.3730    6.5980  -31.6520 O.co2  51  GLU51      -0.2457
     86  N          7.5910    3.0490  -40.1710 N.3    55  HIS55      -0.1241
     87  CA         6.6520    1.9490  -40.0200 C.3    55  HIS55       0.1621
     88  C          7.1770    0.5180  -39.9210 C.2    55  HIS55       0.2264
     89  O          6.3900   -0.4190  -40.0440 O.2    55  HIS55      -0.2867
     90  CB         5.6410    2.0130  -41.1720 C.3    55  HIS55       0.0745
     91  CG         4.9090    3.3170  -41.2550 C.ar   55  HIS55       0.0817
     92  ND1        4.6420    3.9490  -42.4560 N.ar   55  HIS55      -0.2268
     93  CD2        4.3940    4.1090  -40.2910 C.ar   55  HIS55       0.1154
     94  CE1        3.9980    5.0740  -42.2200 C.ar   55  HIS55       0.1986
     95  NE2        3.8330    5.1990  -40.9130 N.ar   55  HIS55      -0.2212
     96  N          8.9150   -2.5960  -37.7350 N.3    57  VAL57      -0.1245
     97  CA         9.1950   -3.1080  -36.3920 C.3    57  VAL57       0.1561
     98  C         10.4030   -4.0190  -36.5560 C.2    57  VAL57       0.2260
     99  O         10.4050   -4.9020  -37.4090 O.2    57  VAL57      -0.2867
    100  CB         8.0140   -3.9700  -35.8170 C.3    57  VAL57       0.0252
    101  CG1        8.3910   -4.5540  -34.4490 C.3    57  VAL57       0.0019
    102  CG2        6.7630   -3.1310  -35.6780 C.3    57  VAL57       0.0019
    103  N          9.7780  -11.6290  -29.5100 N.3    64  LEU64      -0.1245
    104  CA         8.7410  -11.4350  -30.5340 C.3    64  LEU64       0.1561
    105  C          9.2190  -11.9050  -31.8980 C.2    64  LEU64       0.2260
    106  O          8.4540  -12.4850  -32.6650 O.2    64  LEU64      -0.2867
    107  CB         8.3220   -9.9620  -30.6490 C.3    64  LEU64       0.0270
    108  CG         7.3590   -9.6480  -31.8090 C.3    64  LEU64       0.0019
    109  CD1        6.0490  -10.4010  -31.5900 C.3    64  LEU64       0.0001
    110  CD2        7.0910   -8.1540  -31.9040 C.3    64  LEU64       0.0001
    111  N          7.1480  -14.5340  -34.0920 N.3    68  PHE68      -0.1241
    112  CA         6.6240  -14.1990  -35.3990 C.3    68  PHE68       0.1605
    113  C          7.3960  -14.8720  -36.5160 C.2    68  PHE68       0.2264
    114  O          6.8980  -14.9670  -37.6340 O.2    68  PHE68      -0.2867
    115  CB         6.6290  -12.6830  -35.5950 C.3    68  PHE68       0.0534
    116  CG         5.4360  -11.9810  -34.9950 C.ar   68  PHE68      -0.0203
    117  CD1        4.4680  -12.6790  -34.2760 C.ar   68  PHE68      -0.0042
    118  CD2        5.2970  -10.6060  -35.1300 C.ar   68  PHE68      -0.0042
    119  CE1        3.3820  -12.0100  -33.6990 C.ar   68  PHE68      -0.0003
    120  CE2        4.2150   -9.9250  -34.5590 C.ar   68  PHE68      -0.0003
    121  CZ         3.2560  -10.6250  -33.8410 C.ar   68  PHE68      -0.0000
    122  N          8.9580   -6.4690  -39.7290 N.3    73  PHE73      -0.1241
    123  CA         7.6710   -6.4240  -40.4080 C.3    73  PHE73       0.1605
    124  C          7.1090   -5.0060  -40.3120 C.2    73  PHE73       0.2264
    125  O          7.5020   -4.2340  -39.4330 O.2    73  PHE73      -0.2867
    126  CB         6.7040   -7.4540  -39.8090 C.3    73  PHE73       0.0534
    127  CG         6.3100   -7.1860  -38.3780 C.ar   73  PHE73      -0.0203
    128  CD1        5.1770   -6.4350  -38.0790 C.ar   73  PHE73      -0.0042
    129  CD2        7.0570   -7.7100  -37.3330 C.ar   73  PHE73      -0.0042
    130  CE1        4.7860   -6.2220  -36.7550 C.ar   73  PHE73      -0.0003
    131  CE2        6.6770   -7.5030  -36.0020 C.ar   73  PHE73      -0.0003
    132  CZ         5.5350   -6.7510  -35.7180 C.ar   73  PHE73      -0.0000
    133  N          4.1830   -2.2020  -39.6600 N.3    75  VAL75      -0.1231
    134  CA         3.0160   -2.0390  -38.7970 C.3    75  VAL75       0.1692
    135  C          1.7560   -1.7060  -39.6020 C.2    75  VAL75       0.2591
    136  O          0.6480   -1.7140  -39.0630 O.2    75  VAL75      -0.2718
    137  CB         3.2380   -0.9290  -37.7270 C.3    75  VAL75       0.0266
    138  CG1        4.4300   -1.2650  -36.8460 C.3    75  VAL75       0.0020
    139  CG2        3.4340    0.4190  -38.3990 C.3    75  VAL75       0.0020
    140  N          1.9320   -1.4260  -40.8920 N.am   76  LYS76      -0.1980
    141  CA         0.8280   -1.0790  -41.7940 C.3    76  LYS76       0.1596
    142  C          0.1980   -2.2720  -42.5140 C.2    76  LYS76       0.2287
    143  O         -0.8710   -2.1470  -43.1080 O.2    76  LYS76      -0.2864
    144  CB         1.3170   -0.0900  -42.8500 C.3    76  LYS76       0.0298
    145  CG         1.5150    1.3080  -42.3440 C.3    76  LYS76       0.0038
    146  CD         0.1600    1.8830  -42.0350 C.3    76  LYS76       0.0206
    147  CE         0.2590    3.3280  -41.6490 C.3    76  LYS76       0.1093
    148  NZ        -1.0660    3.8840  -41.2830 N.3    76  LYS76      -0.1314
    149  N         -1.5650   -5.1080  -41.7560 N.3    78  HIS78      -0.1241
    150  CA        -2.3320   -5.7810  -40.7120 C.3    78  HIS78       0.1621
    151  C         -2.7630   -7.2330  -40.9160 C.2    78  HIS78       0.2264
    152  O         -2.8610   -7.9780  -39.9410 O.2    78  HIS78      -0.2867
    153  CB        -3.5500   -4.9280  -40.3330 C.3    78  HIS78       0.0745
    154  CG        -3.1910   -3.5690  -39.8060 C.ar   78  HIS78       0.0817
    155  ND1       -4.0990   -2.7570  -39.1560 N.ar   78  HIS78      -0.2268
    156  CD2       -2.0340   -2.8690  -39.8580 C.ar   78  HIS78       0.1154
    157  CE1       -3.5140   -1.6170  -38.8350 C.ar   78  HIS78       0.1986
    158  NE2       -2.2620   -1.6580  -39.2490 N.ar   78  HIS78      -0.2212
    159  N          0.1480   -9.3620  -40.0820 N.3    81  ILE81      -0.1231
    160  CA         0.3340   -9.3530  -38.6450 C.3    81  ILE81       0.1692
    161  C         -0.6040  -10.3620  -38.0050 C.2    81  ILE81       0.2592
    162  O         -0.1860  -11.1700  -37.1760 O.2    81  ILE81      -0.2718
    163  CB         0.0720   -7.9700  -38.0680 C.3    81  ILE81       0.0266
    164  CG1        1.2450   -7.0580  -38.4290 C.3    81  ILE81       0.0019
    165  CG2       -0.1290   -8.0620  -36.5600 C.3    81  ILE81       0.0020
    166  CD1        1.1200   -5.6550  -37.9030 C.3    81  ILE81       0.0001
    167  N         -1.8720  -10.3300  -38.3980 N.am   82  TYR82      -0.1976
    168  CA        -2.8110  -11.2810  -37.8380 C.3    82  TYR82       0.1639
    169  C         -2.3720  -12.7040  -38.1360 C.2    82  TYR82       0.2290
    170  O         -2.4920  -13.5700  -37.2760 O.2    82  TYR82      -0.2864
    171  CB        -4.2260  -11.0490  -38.3610 C.3    82  TYR82       0.0560
    172  CG        -5.0100  -10.0610  -37.5320 C.ar   82  TYR82      -0.0198
    173  CD1       -5.0760   -8.7320  -37.8850 C.ar   82  TYR82      -0.0009
    174  CD2       -5.6700  -10.4630  -36.3700 C.ar   82  TYR82      -0.0009
    175  CE1       -5.7950   -7.8230  -37.1020 C.ar   82  TYR82       0.0417
    176  CE2       -6.3900   -9.5620  -35.6030 C.ar   82  TYR82       0.0417
    177  CZ        -6.4480   -8.2420  -35.9770 C.ar   82  TYR82       0.1957
    178  OH        -7.2080   -7.3670  -35.2340 O.3    82  TYR82      -0.2866
@<TRIPOS>BOND
     1   143   142    2
     2   144   145    1
     3   144   141    1
     4   142   141    1
     5    92    94   ar
     6    92    91   ar
     7   145   146    1
     8    94    95   ar
     9   146   147    1
    10     1     2    1
    11   141   140    1
    12   149   150    1
    13   147   148    1
    14    91    90    1
    15    91    93   ar
    16    90    87    1
    17     2     3    1
    18     2     5    1
    19   151   150    1
    20   151   152    2
    21    95    93   ar
    22   140   135   am
    23   150   153    1
    24     3     4    2
    25   123   124    1
    26   123   126    1
    27   123   122    1
    28   153   154    1
    29   124   125    2
    30    86    87    1
    31   159   160    1
    32    89    88    2
    33    87    88    1
    34   156   154   ar
    35   156   158   ar
    36   126   127    1
    37   154   155   ar
    38     6     5    1
    39     6     8    1
    40   133   134    1
    41     5     7    1
    42   135   136    2
    43   135   134    1
    44   158   157   ar
    45   155   157   ar
    46   134   137    1
    47   160   163    1
    48   160   161    1
    49   164   163    1
    50   164   166    1
    51   139   137    1
    52   167   161   am
    53   167   168    1
    54   127   128   ar
    55   127   129   ar
    56   171   168    1
    57   171   172    1
    58   169   168    1
    59   169   170    2
    60   128   130   ar
    61   163   165    1
    62   161   162    2
    63   173   172   ar
    64   173   175   ar
    65    96    97    1
    66   137   138    1
    67   114   113    2
    68   172   174   ar
    69    99    98    2
    70    80    79    2
    71   129   131   ar
    72   175   177   ar
    73    76    75    1
    74   130   132   ar
    75    98    97    1
    76   113   112    1
    77    74    75   ar
    78    74    72   ar
    79    97   100    1
    80   174   176   ar
    81    79    78    1
    82    75    73   ar
    83   131   132   ar
    84   177   176   ar
    85   177   178    1
    86   100   102    1
    87   100   101    1
    88   115   112    1
    89   115   116    1
    90    72    70   ar
    91   112   111    1
    92    78    81    1
    93    78    77    1
    94   118   116   ar
    95   118   120   ar
    96   116   117   ar
    97    73    71   ar
    98   120   121   ar
    99    81    82    1
   100   117   119   ar
   101    70    71   ar
   102    70    69    1
   103   121   119   ar
   104    82    83    1
   105    15    14    1
   106    69    66    1
   107    66    67    1
   108    66    65    1
   109    84    83   ar
   110    14    16    1
   111    14    13    1
   112    67    68    2
   113   106   105    2
   114    83    85   ar
   115    56    54    1
   116   110   108    1
   117   105   104    1
   118   108   109    1
   119   108   107    1
   120    13    10    1
   121    55    53    1
   122    54    53    1
   123    34    33    1
   124   107   104    1
   125   104   103    1
   126    10     9    1
   127    10    11    1
   128    53    50    1
   129    63    64    1
   130    63    62    1
   131    12    11    2
   132    32    33    1
   133    32    29    1
   134    11    17   am
   135    33    35    1
   136    37    36    1
   137    37    38    1
   138    36    30   am
   139    50    51    1
   140    50    49    1
   141    31    30    2
   142    30    29    1
   143    52    51    2
   144    17    18    1
   145    39    38    2
   146    62    61    1
   147    51    57   am
   148    29    28    1
   149    38    40   am
   150    57    58    1
   151    18    19    1
   152    18    21    1
   153    58    61    1
   154    58    59    1
   155    40    41    1
   156    20    19    2
   157    21    22    1
   158    59    60    2
   159    41    42    1
   160    41    44    1
   161    23    22   ar
   162    23    25   ar
   163    48    46   am
   164    42    43    2
   165    22    24   ar
   166    25    27   ar
   167    46    45    1
   168    46    47    2
   169    45    44    1
   170    24    26   ar
   171    27    26   ar
