@<TRIPOS>MOLECULE
tmp/4qofA00.pdb
 145 147 0 0 0
SMALL
GASTEIGER

@<TRIPOS>ATOM
      1  N         20.6450    3.7990   25.2290 N.3     9  HIS9       -0.1241
      2  CA        22.0320    4.1340   24.9290 C.3     9  HIS9        0.1621
      3  C         22.8740    2.8800   24.9730 C.2     9  HIS9        0.2264
      4  O         22.6920    2.0280   25.8590 O.2     9  HIS9       -0.2867
      5  CB        22.6220    5.2320   25.8240 C.3     9  HIS9        0.0745
      6  CG        23.8040    5.9170   25.1900 C.ar    9  HIS9        0.0817
      7  ND1       25.0410    5.2790   25.0600 N.ar    9  HIS9       -0.2268
      8  CD2       23.8840    7.1460   24.6200 C.ar    9  HIS9        0.1154
      9  CE1       25.8210    6.1380   24.4190 C.ar    9  HIS9        0.1986
     10  NE2       25.1830    7.2850   24.1560 N.ar    9  HIS9       -0.2212
     11  N         28.6060    6.3530   28.9750 N.3    14  SER14      -0.1202
     12  CA        28.1900    7.5920   28.3060 C.3    14  SER14       0.2020
     13  C         27.5410    8.5930   29.2510 C.2    14  SER14       0.2619
     14  O         27.1530    8.2470   30.3710 O.2    14  SER14      -0.2717
     15  CB        27.2060    7.2800   27.1820 C.3    14  SER14       0.2103
     16  OG        25.9450    6.8500   27.6820 O.3    14  SER14      -0.2182
     17  N         27.3700    9.8280   28.7550 N.am   15  PHE15      -0.1961
     18  CA        26.6750   10.8950   29.4640 C.3    15  PHE15       0.1771
     19  C         25.2040   10.4520   29.7040 C.2    15  PHE15       0.2619
     20  O         24.6880   10.6320   30.8080 O.2    15  PHE15      -0.2715
     21  CB        26.7520   12.1880   28.6440 C.3    15  PHE15       0.0574
     22  CG        26.0400   13.3680   29.2480 C.ar   15  PHE15      -0.0200
     23  CD1       26.5960   14.0650   30.3170 C.ar   15  PHE15      -0.0042
     24  CD2       24.8200   13.7910   28.7500 C.ar   15  PHE15      -0.0042
     25  CE1       25.9290   15.1560   30.8830 C.ar   15  PHE15      -0.0003
     26  CE2       24.1700   14.8980   29.2990 C.ar   15  PHE15      -0.0003
     27  CZ        24.7230   15.5710   30.3650 C.ar   15  PHE15      -0.0000
     28  N         24.5740    9.7860   28.6960 N.am   16  ASN16      -0.1972
     29  CA        23.2240    9.2290   28.8590 C.3    16  ASN16       0.1688
     30  C         23.2230    8.2070   30.0060 C.2    16  ASN16       0.2292
     31  O         22.3380    8.2480   30.8570 O.2    16  ASN16      -0.2864
     32  CB        22.7280    8.5790   27.5760 C.3    16  ASN16       0.1181
     33  CG        21.9480    9.5580   26.7440 C.2    16  ASN16       0.2629
     34  OD1       20.7180    9.6550   26.8480 O.2    16  ASN16      -0.2716
     35  ND2       22.6620   10.3300   25.9300 N.am   16  ASN16      -0.0877
     36  N         19.5990    9.7960   23.6760 N.3   100  PRO100     -0.2102
     37  CA        20.2190   10.8310   22.8220 C.3   100  PRO100      0.1504
     38  C         19.2570   11.1210   21.6520 C.2   100  PRO100      0.2576
     39  O         18.6100   10.1930   21.1290 O.2   100  PRO100     -0.2718
     40  CB        21.4890   10.1440   22.3000 C.3   100  PRO100      0.0282
     41  CG        21.1550    8.6720   22.2790 C.3   100  PRO100      0.0208
     42  CD        20.1040    8.4430   23.3550 C.3   100  PRO100      0.0893
     43  N         19.1790   12.3920   21.2300 N.am  101  LEU101     -0.1966
     44  CA        18.3280   12.7820   20.1140 C.3   101  LEU101      0.1728
     45  C         18.9340   12.2280   18.8210 C.2   101  LEU101      0.2616
     46  O         20.1200   12.4750   18.5230 O.2   101  LEU101     -0.2715
     47  CB        18.2150   14.3190   20.0430 C.3   101  LEU101      0.0311
     48  CG        17.1120   14.9070   19.1470 C.3   101  LEU101      0.0022
     49  CD1       15.7270   14.6550   19.7160 C.3   101  LEU101      0.0001
     50  CD2       17.3100   16.4140   18.9570 C.3   101  LEU101      0.0001
     51  N         18.1410   11.4240   18.0920 N.am  102  TYR102     -0.1960
     52  CA        18.5530   10.8790   16.7870 C.3   102  TYR102      0.1771
     53  C         17.5690   11.4330   15.7580 C.2   102  TYR102      0.2620
     54  O         16.3680   11.1340   15.8300 O.2   102  TYR102     -0.2715
     55  CB        18.4660    9.3390   16.7610 C.3   102  TYR102      0.0574
     56  CG        19.6600    8.5440   17.2570 C.ar  102  TYR102     -0.0198
     57  CD1       20.6040    9.1110   18.1160 C.ar  102  TYR102     -0.0009
     58  CD2       19.7890    7.1900   16.9500 C.ar  102  TYR102     -0.0009
     59  CE1       21.6710    8.3520   18.6210 C.ar  102  TYR102      0.0417
     60  CE2       20.8420    6.4290   17.4480 C.ar  102  TYR102      0.0417
     61  CZ        21.7730    7.0060   18.2930 C.ar  102  TYR102      0.1957
     62  OH        22.7920    6.2040   18.7510 O.3   102  TYR102     -0.2866
     63  N         18.0670   12.2600   14.8230 N.am  103  TRP103     -0.1960
     64  CA        17.2470   12.8310   13.7630 C.3   103  TRP103      0.1771
     65  C         15.9860   13.5070   14.3080 C.2   103  TRP103      0.2619
     66  O         14.8690   13.1780   13.8840 O.2   103  TRP103     -0.2715
     67  CB        16.9410   11.7790   12.6670 C.3   103  TRP103      0.0590
     68  CG        18.1860   11.3530   11.9470 C.ar  103  TRP103      0.0006
     69  CD1       18.6730   10.0840   11.8130 C.ar  103  TRP103      0.0946
     70  CD2       19.0930   12.2120   11.2430 C.ar  103  TRP103      0.0152
     71  NE1       19.8350   10.1000   11.0720 N.ar  103  TRP103     -0.2442
     72  CE2       20.1290   11.4000   10.7310 C.ar  103  TRP103      0.0810
     73  CE3       19.1510   13.6030   11.0320 C.ar  103  TRP103      0.0012
     74  CZ2       21.2120   11.9330   10.0150 C.ar  103  TRP103      0.0191
     75  CZ3       20.2320   14.1340   10.3370 C.ar  103  TRP103      0.0001
     76  CH2       21.2320   13.2990    9.8140 C.ar  103  TRP103      0.0015
     77  N         16.1720   14.4240   15.2850 N.am  104  PHE104     -0.1974
     78  CA        15.1010   15.2010   15.9330 C.3   104  PHE104      0.1639
     79  C         14.0360   14.3040   16.5850 C.2   104  PHE104      0.2290
     80  O         12.8950   14.7340   16.7840 O.2   104  PHE104     -0.2864
     81  CB        14.4440   16.1500   14.9090 C.3   104  PHE104      0.0560
     82  CG        15.0880   17.5000   14.6770 C.ar  104  PHE104     -0.0200
     83  CD1       16.4640   17.6680   14.8070 C.ar  104  PHE104     -0.0042
     84  CD2       14.3200   18.6000   14.3100 C.ar  104  PHE104     -0.0042
     85  CE1       17.0570   18.9220   14.5880 C.ar  104  PHE104     -0.0003
     86  CE2       14.9150   19.8460   14.0730 C.ar  104  PHE104     -0.0003
     87  CZ        16.2770   20.0010   14.2200 C.ar  104  PHE104     -0.0000
     88  N         19.3230   14.2320   25.2730 N.3   145  THR145     -0.1203
     89  CA        20.6540   14.8160   25.1090 C.3   145  THR145      0.1994
     90  C         20.8130   15.1480   23.6210 C.2   145  THR145      0.2619
     91  O         20.2850   14.4250   22.7750 O.2   145  THR145     -0.2717
     92  CB        21.7660   13.8990   25.6290 C.3   145  THR145      0.1784
     93  OG1       21.8890   12.7630   24.7940 O.3   145  THR145     -0.2211
     94  CG2       21.5440   13.4640   27.0630 C.3   145  THR145      0.0376
     95  N         21.5410   16.2300   23.2980 N.am  146  THR146     -0.1938
     96  CA        21.6900   16.6110   21.8830 C.3   146  THR146      0.2028
     97  C         23.1500   16.7790   21.4420 C.2   146  THR146      0.2643
     98  O         24.0260   16.9940   22.2840 O.2   146  THR146     -0.2714
     99  CB        20.9820   17.9660   21.6310 C.3   146  THR146      0.1808
    100  OG1       21.6600   18.9950   22.3560 O.3   146  THR146     -0.2208
    101  CG2       19.5000   17.9560   21.9940 C.3   146  THR146      0.0379
    102  N         23.3710   16.7610   20.1230 N.am  147  GLY147     -0.1939
    103  CA        24.6640   17.1210   19.5470 C.3   147  GLY147      0.2014
    104  C         24.7220   18.6360   19.3930 C.2   147  GLY147      0.2639
    105  O         25.7450   19.2680   19.7020 O.2   147  GLY147     -0.2714
    106  N         23.5960   19.2190   18.9580 N.am  148  GLY148     -0.1954
    107  CA        23.4480   20.6620   18.7590 C.3   148  GLY148      0.1869
    108  C         23.3950   21.4660   20.0450 C.2   148  GLY148      0.2309
    109  O         22.9650   20.9620   21.0880 O.2   148  GLY148     -0.2863
    110  N         19.1450   25.4230   18.8990 N.3   153  TYR153     -0.1241
    111  CA        17.7710   25.0490   19.2150 C.3   153  TYR153      0.1605
    112  C         16.9090   26.2140   19.7190 C.2   153  TYR153      0.2264
    113  O         16.1630   26.0700   20.6860 O.2   153  TYR153     -0.2867
    114  CB        17.7190   23.8480   20.1760 C.3   153  TYR153      0.0534
    115  CG        18.0400   22.5550   19.4700 C.ar  153  TYR153     -0.0201
    116  CD1       17.1190   21.9600   18.6120 C.ar  153  TYR153     -0.0009
    117  CD2       19.2810   21.9450   19.6240 C.ar  153  TYR153     -0.0009
    118  CE1       17.4140   20.7680   17.9420 C.ar  153  TYR153      0.0417
    119  CE2       19.5900   20.7550   18.9610 C.ar  153  TYR153      0.0417
    120  CZ        18.6480   20.1650   18.1280 C.ar  153  TYR153      0.1957
    121  OH        18.9250   18.9930   17.4630 O.3   153  TYR153     -0.2866
    122  N         18.3170   24.9760   13.8130 N.3   159  ASN159     -0.1240
    123  CA        17.4790   23.8210   14.1380 C.3   159  ASN159      0.1653
    124  C         16.0580   24.1780   14.5590 C.2   159  ASN159      0.2266
    125  O         15.2280   23.2760   14.6980 O.2   159  ASN159     -0.2867
    126  CB        18.1450   22.9900   15.2370 C.3   159  ASN159      0.1155
    127  CG        19.4120   22.2800   14.8390 C.2   159  ASN159      0.2627
    128  OD1       19.6770   22.0170   13.6640 O.2   159  ASN159     -0.2716
    129  ND2       20.2040   21.9120   15.8310 N.am  159  ASN159     -0.0877
    130  N         26.5000   17.6810   25.3420 N.3   190  PRO190     -0.2102
    131  CA        27.4800   17.2280   26.3570 C.3   190  PRO190      0.1504
    132  C         28.8790   16.8970   25.8210 C.2   190  PRO190      0.2575
    133  O         29.8570   17.1050   26.5500 O.2   190  PRO190     -0.2718
    134  CB        26.8210   15.9770   26.9440 C.3   190  PRO190      0.0282
    135  CG        25.8850   15.4990   25.8620 C.3   190  PRO190      0.0208
    136  CD        25.3290   16.7730   25.3140 C.3   190  PRO190      0.0893
    137  N         28.9800   16.3740   24.5730 N.am  191  GLU191     -0.1980
    138  CA        30.2620   16.0050   23.9590 C.3   191  GLU191      0.1602
    139  C         31.1830   17.2150   23.7740 C.2   191  GLU191      0.2287
    140  O         32.4000   17.0780   23.8980 O.2   191  GLU191     -0.2864
    141  CB        30.0590   15.3230   22.5950 C.3   191  GLU191      0.0415
    142  CG        29.2430   14.0460   22.6490 C.3   191  GLU191      0.1163
    143  CD        28.9290   13.5530   21.2520 C.2   191  GLU191      0.3649
    144  OE1       27.9110   14.0010   20.6720 O.co2 191  GLU191     -0.2457
    145  OE2       29.7760   12.8200   20.6920 O.co2 191  GLU191     -0.2457
@<TRIPOS>BOND
     1    76    74   ar
     2    76    75   ar
     3    74    72   ar
     4    75    73   ar
     5    72    71   ar
     6    72    70   ar
     7    73    70   ar
     8    71    69   ar
     9    70    68   ar
    10    69    68   ar
    11    68    67    1
    12    67    64    1
    13   128   127    2
    14    64    65    1
    15    64    63    1
    16   122   123    1
    17    66    65    2
    18    86    87   ar
    19    86    84   ar
    20   123   124    1
    21   123   126    1
    22    87    85   ar
    23    65    77   am
    24    84    82   ar
    25   124   125    2
    26    85    83   ar
    27    82    83   ar
    28    82    81    1
    29    63    53   am
    30   127   126    1
    31   127   129   am
    32    81    78    1
    33    77    78    1
    34    53    54    2
    35    53    52    1
    36    78    79    1
    37    79    80    2
    38    55    52    1
    39    55    56    1
    40    52    51    1
    41    58    56   ar
    42    58    60   ar
    43    56    57   ar
    44    60    61   ar
    45   121   120    1
    46   118   120   ar
    47   118   116   ar
    48    51    45   am
    49    57    59   ar
    50   120   119   ar
    51    61    59   ar
    52    61    62    1
    53    46    45    2
    54   116   115   ar
    55   107   106    1
    56   107   108    1
    57    45    44    1
    58   110   111    1
    59    50    48    1
    60   106   104   am
    61   119   117   ar
    62    48    49    1
    63    48    47    1
    64   111   112    1
    65   111   114    1
    66   104   103    1
    67   104   105    2
    68   115   117   ar
    69   115   114    1
    70   103   102    1
    71   112   113    2
    72    47    44    1
    73   108   109    2
    74    44    43    1
    75   102    97   am
    76   144   143   ar
    77   145   143   ar
    78    39    38    2
    79    43    38   am
    80   143   142    1
    81    97    96    1
    82    97    98    2
    83    99    96    1
    84    99   101    1
    85    99   100    1
    86    38    37    1
    87    96    95    1
    88    41    40    1
    89    41    42    1
    90    40    37    1
    91   141   142    1
    92   141   138    1
    93    91    90    2
    94    37    36    1
    95    95    90   am
    96    42    36    1
    97    90    89    1
    98   139   140    2
    99   139   138    1
   100   138   137    1
   101    10     9   ar
   102    10     8   ar
   103     9     7   ar
   104   137   132   am
   105     8     6   ar
   106    93    92    1
   107     2     3    1
   108     2     1    1
   109     2     5    1
   110     3     4    2
   111     7     6   ar
   112    89    88    1
   113    89    92    1
   114     6     5    1
   115   136   130    1
   116   136   135    1
   117   130   131    1
   118    92    94    1
   119   132   131    1
   120   132   133    2
   121   135   134    1
   122    35    33   am
   123   131   134    1
   124    33    34    2
   125    33    32    1
   126    15    16    1
   127    15    12    1
   128    32    29    1
   129    12    11    1
   130    12    13    1
   131    21    22    1
   132    21    18    1
   133    28    29    1
   134    28    19   am
   135    24    22   ar
   136    24    26   ar
   137    17    13   am
   138    17    18    1
   139    29    30    1
   140    22    23   ar
   141    13    14    2
   142    26    27   ar
   143    18    19    1
   144    19    20    2
   145    30    31    2
   146    23    25   ar
   147    27    25   ar
