@<TRIPOS>MOLECULE
tmp/4qomD01.pdb
 134 129 0 0 0
SMALL
GASTEIGER

@<TRIPOS>ATOM
      1  N         68.2870   -3.8440   10.6590 N.3    93  VAL93      -0.1231
      2  CA        68.8210   -4.2090   11.9720 C.3    93  VAL93       0.1692
      3  C         68.0450   -3.7700   13.1490 C.2    93  VAL93       0.2592
      4  O         67.6600   -4.6090   13.9640 O.2    93  VAL93      -0.2718
      5  CB        70.2740   -3.6970   12.2050 C.3    93  VAL93       0.0266
      6  CG1       70.7100   -4.1000   13.6130 C.3    93  VAL93       0.0020
      7  CG2       71.1890   -4.2530   11.1280 C.3    93  VAL93       0.0020
      8  N         67.8160   -2.4560   13.2770 N.am   94  ILE94      -0.1966
      9  CA        67.3710   -1.8960   14.5720 C.3    94  ILE94       0.1727
     10  C         65.8710   -1.9130   14.8050 C.2    94  ILE94       0.2616
     11  O         65.4050   -2.3130   15.8810 O.2    94  ILE94      -0.2715
     12  CB        67.9770   -0.5160   14.8260 C.3    94  ILE94       0.0290
     13  CG1       69.5060   -0.6660   15.0340 C.3    94  ILE94       0.0022
     14  CG2       67.2890    0.1870   15.9770 C.3    94  ILE94       0.0023
     15  CD1       69.9860   -1.3800   16.2910 C.3    94  ILE94       0.0001
     16  N         65.0900   -1.4980   13.8380 N.am   95  HIS95      -0.1973
     17  CA        63.6390   -1.3250   14.1020 C.3    95  HIS95       0.1656
     18  C         62.8620   -2.6270   14.0020 C.2    95  HIS95       0.2291
     19  O         63.3750   -3.6060   13.4290 O.2    95  HIS95      -0.2864
     20  CB        63.0670   -0.1780   13.2460 C.3    95  HIS95       0.0771
     21  CG        63.6230    1.1580   13.6330 C.ar   95  HIS95       0.0820
     22  ND1       63.0000    2.0140   14.5120 N.ar   95  HIS95      -0.2267
     23  CD2       64.7970    1.7520   13.2970 C.ar   95  HIS95       0.1154
     24  CE1       63.7690    3.0830   14.6950 C.ar   95  HIS95       0.1986
     25  NE2       64.8580    2.9420   13.9650 N.ar   95  HIS95      -0.2212
     26  N         68.5860    4.1740    7.6030 N.3   104  ARG104     -0.1231
     27  CA        69.9850    3.9110    7.7290 C.3   104  ARG104      0.1694
     28  C         70.2300    2.7440    8.6750 C.2   104  ARG104      0.2592
     29  O         69.6380    2.6890    9.7840 O.2   104  ARG104     -0.2718
     30  CB        70.7450    5.1800    8.1880 C.3   104  ARG104      0.0321
     31  CG        72.2740    5.0010    8.2370 C.3   104  ARG104      0.0489
     32  CD        73.0610    6.3100    8.5060 C.3   104  ARG104      0.2205
     33  NE        72.5650    7.3680    7.6500 N.pl3 104  ARG104     -0.0865
     34  CZ        72.9350    7.5300    6.3630 C.cat 104  ARG104      0.5346
     35  NH1       73.8200    6.7460    5.7700 N.pl3 104  ARG104      0.1354
     36  NH2       72.3260    8.4430    5.6350 N.pl3 104  ARG104      0.1354
     37  N         71.0650    1.8030    8.2600 N.am  105  ASP105     -0.1960
     38  CA        71.3400    0.6030    9.0610 C.3   105  ASP105      0.1825
     39  C         72.3010   -0.2590    8.2410 C.2   105  ASP105      0.2464
     40  O         72.2590   -0.2480    6.9970 O.2   105  ASP105     -0.2730
     41  CB        70.0450   -0.2080    9.2790 C.3   105  ASP105      0.1450
     42  CG        69.5840   -0.2990   10.7520 C.2   105  ASP105      0.3671
     43  OD1       70.3020    0.1040   11.6990 O.co2 105  ASP105     -0.2456
     44  OD2       68.4840   -0.8790   10.9390 O.co2 105  ASP105     -0.2456
     45  N         73.1770   -1.0460    8.9090 N.am  106  PRO106     -0.2727
     46  CA        73.7380   -2.1980    8.1750 C.3   106  PRO106      0.1402
     47  C         72.5780   -3.0580    7.6980 C.2   106  PRO106      0.2269
     48  O         71.4840   -2.9370    8.2200 O.2   106  PRO106     -0.2865
     49  CB        74.5670   -2.9360    9.2450 C.3   106  PRO106      0.0296
     50  CG        74.7360   -1.9190   10.3020 C.3   106  PRO106      0.0237
     51  CD        73.4780   -1.1370   10.3370 C.3   106  PRO106      0.0939
     52  N         80.9570   -2.2810   14.7850 N.3   131  PHE131     -0.1241
     53  CA        81.1030   -1.1550   15.7050 C.3   131  PHE131      0.1605
     54  C         81.9870   -1.4920   16.9110 C.2   131  PHE131      0.2264
     55  O         82.4880   -0.5960   17.5560 O.2   131  PHE131     -0.2867
     56  CB        79.7390   -0.7930   16.3330 C.3   131  PHE131      0.0534
     57  CG        78.6500   -0.4310   15.3410 C.ar  131  PHE131     -0.0203
     58  CD1       78.4980    0.8540   14.8730 C.ar  131  PHE131     -0.0042
     59  CD2       77.7650   -1.4150   14.9150 C.ar  131  PHE131     -0.0042
     60  CE1       77.4640    1.1530   13.9790 C.ar  131  PHE131     -0.0003
     61  CE2       76.7590   -1.1250   14.0200 C.ar  131  PHE131     -0.0003
     62  CZ        76.6200    0.1540   13.5550 C.ar  131  PHE131     -0.0000
     63  N         71.2280    2.0930   20.2730 N.3   145  LEU145     -0.1245
     64  CA        70.7310    2.3070   18.9120 C.3   145  LEU145      0.1561
     65  C         69.2010    2.1890   18.8290 C.2   145  LEU145      0.2260
     66  O         68.5730    2.8090   17.9750 O.2   145  LEU145     -0.2867
     67  CB        71.3890    1.2730   17.9730 C.3   145  LEU145      0.0270
     68  CG        72.8750    1.5470   17.6570 C.3   145  LEU145      0.0019
     69  CD1       73.5290    0.3050   17.1020 C.3   145  LEU145      0.0001
     70  CD2       72.9400    2.6670   16.6420 C.3   145  LEU145      0.0001
     71  N         63.9300    6.2670   18.2030 N.3   154  GLN154     -0.1245
     72  CA        65.3670    6.2240   18.1310 C.3   154  GLN154      0.1566
     73  C         65.8750    7.6400   18.4000 C.2   154  GLN154      0.2260
     74  O         65.3300    8.6060   17.8650 O.2   154  GLN154     -0.2867
     75  CB        65.8590    5.6850   16.7940 C.3   154  GLN154      0.0367
     76  CG        67.3850    5.5670   16.7080 C.3   154  GLN154      0.0905
     77  CD        67.8200    5.0110   15.3920 C.2   154  GLN154      0.2608
     78  OE1       67.5320    5.5760   14.3440 O.2   154  GLN154     -0.2717
     79  NE2       68.4570    3.8970   15.4250 N.am  154  GLN154     -0.0878
     80  N         72.7330    6.8590   20.9740 N.3   159  TYR159     -0.1241
     81  CA        73.7300    5.9870   20.3520 C.3   159  TYR159      0.1605
     82  C         75.0380    6.7150   20.0870 C.2   159  TYR159      0.2264
     83  O         76.1000    6.1340   20.2020 O.2   159  TYR159     -0.2867
     84  CB        73.2100    5.2590   19.1330 C.3   159  TYR159      0.0534
     85  CG        72.7210    6.0410   17.9370 C.ar  159  TYR159     -0.0201
     86  CD1       73.6140    6.6490   17.0080 C.ar  159  TYR159     -0.0009
     87  CD2       71.3490    6.1510   17.6920 C.ar  159  TYR159     -0.0009
     88  CE1       73.1390    7.3320   15.8890 C.ar  159  TYR159      0.0417
     89  CE2       70.8810    6.7620   16.5440 C.ar  159  TYR159      0.0417
     90  CZ        71.7550    7.4130   15.6780 C.ar  159  TYR159      0.1957
     91  OH        71.2620    8.0310   14.5550 O.3   159  TYR159     -0.2866
     92  N         78.6000    5.3800   21.1800 N.3   163  MET163     -0.1245
     93  CA        79.6340    5.2390   20.1130 C.3   163  MET163      0.1570
     94  C         80.8870    6.1170   20.3520 C.2   163  MET163      0.2261
     95  O         81.9930    5.6400   20.2010 O.2   163  MET163     -0.2867
     96  CB        79.0790    5.5580   18.7400 C.3   163  MET163      0.0387
     97  CG        78.0310    4.6080   18.2650 C.3   163  MET163      0.0595
     98  SD        78.5550    2.9130   18.0030 S.3   163  MET163     -0.1393
     99  CE        76.9460    2.2430   17.7230 C.3   163  MET163      0.0692
    100  N         81.4700    3.6160   11.6360 N.3   173  LEU173     -0.1245
    101  CA        80.6220    4.7960   11.4220 C.3   173  LEU173      0.1561
    102  C         81.0160    5.5290   10.1390 C.2   173  LEU173      0.2260
    103  O         80.1720    6.1140    9.4760 O.2   173  LEU173     -0.2867
    104  CB        80.6690    5.7230   12.5980 C.3   173  LEU173      0.0270
    105  CG        80.1190    5.0820   13.8540 C.3   173  LEU173      0.0019
    106  CD1       80.5380    5.8180   15.1070 C.3   173  LEU173      0.0001
    107  CD2       78.6030    5.0210   13.8020 C.3   173  LEU173      0.0001
    108  N         79.1200    3.5170    7.5710 N.3   176  LEU176     -0.1231
    109  CA        77.6320    3.5360    7.7370 C.3   176  LEU176      0.1693
    110  C         77.0620    4.8950    7.4280 C.2   176  LEU176      0.2592
    111  O         75.9360    4.9910    6.9620 O.2   176  LEU176     -0.2718
    112  CB        77.3290    3.1730    9.1770 C.3   176  LEU176      0.0284
    113  CG        75.8000    3.1530    9.4940 C.3   176  LEU176      0.0019
    114  CD1       75.1540    2.0240    8.7630 C.3   176  LEU176      0.0001
    115  CD2       75.6590    2.9660   10.9840 C.3   176  LEU176      0.0001
    116  N         77.8490    5.9710    7.6280 N.am  177  PHE177     -0.1976
    117  CA        77.3520    7.2910    7.2840 C.3   177  PHE177      0.1639
    118  C         77.7730    7.8070    5.8670 C.2   177  PHE177      0.2290
    119  O         77.3580    8.9080    5.4790 O.2   177  PHE177     -0.2864
    120  CB        77.6500    8.3190    8.3810 C.3   177  PHE177      0.0560
    121  CG        76.7500    8.1820    9.5690 C.ar  177  PHE177     -0.0200
    122  CD1       75.5040    8.8290    9.5850 C.ar  177  PHE177     -0.0042
    123  CD2       77.0470    7.3140   10.5880 C.ar  177  PHE177     -0.0042
    124  CE1       74.6530    8.6710   10.6240 C.ar  177  PHE177     -0.0003
    125  CE2       76.1560    7.1260   11.6280 C.ar  177  PHE177     -0.0003
    126  CZ        74.9680    7.8400   11.6720 C.ar  177  PHE177     -0.0000
    127  N         72.8710   13.9040   11.5230 N.3   442  ASP442     -0.1239
    128  CA        72.7440   13.0110   12.6760 C.3   442  ASP442      0.1674
    129  C         73.2230   13.5440   14.0010 C.2   442  ASP442      0.2266
    130  O         72.6290   13.2330   15.0320 O.2   442  ASP442     -0.2867
    131  CB        73.4490   11.6900   12.4030 C.3   442  ASP442      0.1410
    132  CG        72.6190   10.5060   12.7680 C.2   442  ASP442      0.3668
    133  OD1       71.5080   10.3400   12.2000 O.co2 442  ASP442     -0.2456
    134  OD2       73.0550    9.7700   13.6500 O.co2 442  ASP442     -0.2456
@<TRIPOS>BOND
     1   119   118    2
     2    36    34    1
     3    35    34    1
     4   118   117    1
     5    34    33    2
     6   111   110    2
     7    40    39    2
     8   117   116    1
     9   117   120    1
    10   110   116   am
    11   110   109    1
    12   108   109    1
    13    26    27    1
    14    33    32    1
    15    47    46    1
    16    47    48    2
    17    27    30    1
    18    27    28    1
    19   109   112    1
    20    46    45    1
    21    46    49    1
    22    30    31    1
    23    31    32    1
    24    39    45   am
    25    39    38    1
    26    37    28   am
    27    37    38    1
    28   120   121    1
    29    28    29    2
    30   114   113    1
    31    45    51    1
    32    38    41    1
    33   112   113    1
    34    49    50    1
    35    41    42    1
    36   103   102    2
    37   113   115    1
    38   121   122   ar
    39   121   123   ar
    40   122   124   ar
    41   102   101    1
    42    50    51    1
    43   123   125   ar
    44   124   126   ar
    45     1     2    1
    46    42    44   ar
    47    42    43   ar
    48     7     5    1
    49   101   100    1
    50   101   104    1
    51   127   128    1
    52   125   126   ar
    53     2     5    1
    54     2     3    1
    55   133   132   ar
    56     5     6    1
    57   131   128    1
    58   131   132    1
    59   104   105    1
    60   128   129    1
    61   132   134   ar
    62     3     8   am
    63     3     4    2
    64    20    21    1
    65    20    17    1
    66     8     9    1
    67    23    21   ar
    68    23    25   ar
    69    19    18    2
    70    62    60   ar
    71    62    61   ar
    72    21    22   ar
    73   107   105    1
    74    16    17    1
    75    16    10   am
    76   105   106    1
    77    25    24   ar
    78    60    58   ar
    79   129   130    2
    80    18    17    1
    81    61    59   ar
    82    78    77    2
    83    22    24   ar
    84    91    90    1
    85     9    10    1
    86     9    12    1
    87    52    53    1
    88    10    11    2
    89    12    13    1
    90    12    14    1
    91    58    57   ar
    92    59    57   ar
    93    13    15    1
    94    57    56    1
    95    77    79   am
    96    77    76    1
    97    90    88   ar
    98    90    89   ar
    99    53    56    1
   100    53    54    1
   101    88    86   ar
   102    89    87   ar
   103    70    68    1
   104    76    75    1
   105    75    72    1
   106    54    55    2
   107    86    85   ar
   108    69    68    1
   109    68    67    1
   110    87    85   ar
   111    99    98    1
   112    74    73    2
   113    85    84    1
   114    67    64    1
   115    66    65    2
   116    98    97    1
   117    72    71    1
   118    72    73    1
   119    97    96    1
   120    96    93    1
   121    65    64    1
   122    64    63    1
   123    84    81    1
   124    82    83    2
   125    82    81    1
   126    93    94    1
   127    93    92    1
   128    95    94    2
   129    81    80    1
