@<TRIPOS>MOLECULE
tmp/4qomD02.pdb
 115 112 0 0 0
SMALL
GASTEIGER

@<TRIPOS>ATOM
      1  N         67.2320   -8.4190   17.0700 N.3    51  VAL51      -0.1231
      2  CA        67.7400   -7.4990   16.0700 C.3    51  VAL51       0.1692
      3  C         67.4660   -8.1570   14.6880 C.2    51  VAL51       0.2592
      4  O         67.2140   -9.3640   14.5970 O.2    51  VAL51      -0.2718
      5  CB        69.2380   -7.1430   16.2620 C.3    51  VAL51       0.0266
      6  CG1       69.3950   -6.2170   17.4370 C.3    51  VAL51       0.0020
      7  CG2       70.0670   -8.3920   16.4210 C.3    51  VAL51       0.0020
      8  N         67.4960   -7.3630   13.6460 N.am   52  HIS52      -0.1976
      9  CA        67.2450   -7.8450   12.2730 C.3    52  HIS52       0.1656
     10  C         65.8080   -8.4300   12.1280 C.2    52  HIS52       0.2291
     11  O         65.5570   -9.3430   11.3440 O.2    52  HIS52      -0.2864
     12  CB        68.2710   -8.8880   11.8050 C.3    52  HIS52       0.0771
     13  CG        69.6910   -8.3720   11.6910 C.ar   52  HIS52       0.0820
     14  ND1       70.2710   -8.1310   10.4720 N.ar   52  HIS52      -0.2267
     15  CD2       70.6410   -8.1210   12.6230 C.ar   52  HIS52       0.1154
     16  CE1       71.5220   -7.7120   10.6600 C.ar   52  HIS52       0.1986
     17  NE2       71.7560   -7.6560   11.9650 N.ar   52  HIS52      -0.2212
     18  N         68.2870   -3.8440   10.6590 N.3    93  VAL93      -0.1231
     19  CA        68.8210   -4.2090   11.9720 C.3    93  VAL93       0.1692
     20  C         68.0450   -3.7700   13.1490 C.2    93  VAL93       0.2591
     21  O         67.6600   -4.6090   13.9640 O.2    93  VAL93      -0.2718
     22  CB        70.2740   -3.6970   12.2050 C.3    93  VAL93       0.0266
     23  CG1       70.7100   -4.1000   13.6130 C.3    93  VAL93       0.0020
     24  CG2       71.1890   -4.2530   11.1280 C.3    93  VAL93       0.0020
     25  N         67.8160   -2.4560   13.2770 N.am   94  ILE94      -0.1980
     26  CA        67.3710   -1.8960   14.5720 C.3    94  ILE94       0.1595
     27  C         65.8710   -1.9130   14.8050 C.2    94  ILE94       0.2287
     28  O         65.4050   -2.3130   15.8810 O.2    94  ILE94      -0.2864
     29  CB        67.9770   -0.5160   14.8260 C.3    94  ILE94       0.0276
     30  CG1       69.5060   -0.6660   15.0340 C.3    94  ILE94       0.0022
     31  CG2       67.2890    0.1870   15.9770 C.3    94  ILE94       0.0022
     32  CD1       69.9860   -1.3800   16.2910 C.3    94  ILE94       0.0001
     33  N         73.1770   -1.0460    8.9090 N.3   106  PRO106     -0.2116
     34  CA        73.7380   -2.1980    8.1750 C.3   106  PRO106      0.1372
     35  C         72.5780   -3.0580    7.6980 C.2   106  PRO106      0.2244
     36  O         71.4840   -2.9370    8.2200 O.2   106  PRO106     -0.2868
     37  CB        74.5670   -2.9360    9.2450 C.3   106  PRO106      0.0268
     38  CG        74.7360   -1.9190   10.3020 C.3   106  PRO106      0.0207
     39  CD        73.4780   -1.1370   10.3370 C.3   106  PRO106      0.0892
     40  N         76.7760   -9.3650    7.0370 N.3   125  ASN125     -0.1240
     41  CA        76.0830   -8.0820    6.7990 C.3   125  ASN125      0.1653
     42  C         76.5940   -7.5650    5.4520 C.2   125  ASN125      0.2266
     43  O         77.5990   -8.0380    4.9640 O.2   125  ASN125     -0.2867
     44  CB        76.4080   -7.0530    7.8960 C.3   125  ASN125      0.1155
     45  CG        75.5540   -7.1500    9.1300 C.2   125  ASN125      0.2627
     46  OD1       74.4410   -7.7140    9.1240 O.2   125  ASN125     -0.2716
     47  ND2       76.0410   -6.5210   10.2100 N.am  125  ASN125     -0.0877
     48  N         82.5220   -4.0710   12.0520 N.3   130  PHE130     -0.1227
     49  CA        81.4900   -3.8460   13.0170 C.3   130  PHE130      0.1736
     50  C         81.8900   -2.6920   13.9540 C.2   130  PHE130      0.2595
     51  O         83.0520   -2.2520   13.9740 O.2   130  PHE130     -0.2718
     52  CB        81.2330   -5.1450   13.8000 C.3   130  PHE130      0.0547
     53  CG        79.8110   -5.2950   14.2820 C.ar  130  PHE130     -0.0202
     54  CD1       78.8000   -5.3740   13.3850 C.ar  130  PHE130     -0.0042
     55  CD2       79.5030   -5.3090   15.6360 C.ar  130  PHE130     -0.0042
     56  CE1       77.5040   -5.4940   13.7930 C.ar  130  PHE130     -0.0003
     57  CE2       78.1910   -5.4250   16.0760 C.ar  130  PHE130     -0.0003
     58  CZ        77.2040   -5.5080   15.1530 C.ar  130  PHE130     -0.0000
     59  N         80.9570   -2.2810   14.7850 N.am  131  PHE131     -0.1976
     60  CA        81.1030   -1.1550   15.7050 C.3   131  PHE131      0.1639
     61  C         81.9870   -1.4920   16.9110 C.2   131  PHE131      0.2290
     62  O         82.4880   -0.5960   17.5560 O.2   131  PHE131     -0.2864
     63  CB        79.7390   -0.7930   16.3330 C.3   131  PHE131      0.0560
     64  CG        78.6500   -0.4310   15.3410 C.ar  131  PHE131     -0.0200
     65  CD1       78.4980    0.8540   14.8730 C.ar  131  PHE131     -0.0042
     66  CD2       77.7650   -1.4150   14.9150 C.ar  131  PHE131     -0.0042
     67  CE1       77.4640    1.1530   13.9790 C.ar  131  PHE131     -0.0003
     68  CE2       76.7590   -1.1250   14.0200 C.ar  131  PHE131     -0.0003
     69  CZ        76.6200    0.1540   13.5550 C.ar  131  PHE131     -0.0000
     70  N         77.5220   -6.0570   23.2490 N.3   138  PHE138     -0.1241
     71  CA        76.4830   -6.0560   22.2280 C.3   138  PHE138      0.1605
     72  C         75.1240   -5.5570   22.7730 C.2   138  PHE138      0.2264
     73  O         74.5010   -4.7330   22.1400 O.2   138  PHE138     -0.2867
     74  CB        76.3420   -7.3940   21.5600 C.3   138  PHE138      0.0534
     75  CG        75.4430   -7.4070   20.3860 C.ar  138  PHE138     -0.0203
     76  CD1       75.8690   -6.8440   19.1720 C.ar  138  PHE138     -0.0042
     77  CD2       74.2080   -8.0410   20.4490 C.ar  138  PHE138     -0.0042
     78  CE1       75.0360   -6.8480   18.0670 C.ar  138  PHE138     -0.0003
     79  CE2       73.4290   -8.0840   19.3610 C.ar  138  PHE138     -0.0003
     80  CZ        73.8150   -7.4930   18.1930 C.ar  138  PHE138     -0.0000
     81  N         75.3440   -1.7120   23.0010 N.3   141  MET141     -0.1230
     82  CA        75.3730   -1.0830   21.6880 C.3   141  MET141      0.1702
     83  C         73.9370   -1.0490   21.1470 C.2   141  MET141      0.2592
     84  O         73.4340    0.0040   20.7250 O.2   141  MET141     -0.2718
     85  CB        76.2860   -1.8140   20.7540 C.3   141  MET141      0.0401
     86  CG        76.3680   -1.1530   19.4180 C.3   141  MET141      0.0596
     87  SD        77.0770   -2.2710   18.1750 S.3   141  MET141     -0.1393
     88  CE        75.6460   -3.2190   17.8330 C.3   141  MET141      0.0692
     89  N         73.3250   -2.2350   21.1190 N.am  142  VAL142     -0.1980
     90  CA        71.9850   -2.3680   20.6250 C.3   142  VAL142      0.1595
     91  C         71.0120   -1.4730   21.3860 C.2   142  VAL142      0.2287
     92  O         70.1460   -0.8180   20.7920 O.2   142  VAL142     -0.2864
     93  CB        71.4760   -3.8400   20.6180 C.3   142  VAL142      0.0276
     94  CG1       69.9770   -3.9460   20.3010 C.3   142  VAL142      0.0022
     95  CG2       72.2910   -4.6300   19.5960 C.3   142  VAL142      0.0022
     96  N         71.2280    2.0930   20.2730 N.3   145  LEU145     -0.1245
     97  CA        70.7310    2.3070   18.9120 C.3   145  LEU145      0.1561
     98  C         69.2010    2.1890   18.8290 C.2   145  LEU145      0.2260
     99  O         68.5730    2.8090   17.9750 O.2   145  LEU145     -0.2867
    100  CB        71.3890    1.2730   17.9730 C.3   145  LEU145      0.0270
    101  CG        72.8750    1.5470   17.6570 C.3   145  LEU145      0.0019
    102  CD1       73.5290    0.3050   17.1020 C.3   145  LEU145      0.0001
    103  CD2       72.9400    2.6670   16.6420 C.3   145  LEU145      0.0001
    104  N         73.0710  -16.9660   19.1800 N.3   335  TYR335     -0.1241
    105  CA        72.0560  -17.2680   18.2010 C.3   335  TYR335      0.1605
    106  C         71.1760  -18.4810   18.5470 C.2   335  TYR335      0.2264
    107  O         69.9740  -18.3980   18.5700 O.2   335  TYR335     -0.2867
    108  CB        72.6400  -17.3220   16.7790 C.3   335  TYR335      0.0534
    109  CG        73.1160  -15.9810   16.2050 C.ar  335  TYR335     -0.0201
    110  CD1       74.2310  -15.2880   16.7450 C.ar  335  TYR335     -0.0009
    111  CD2       72.5260  -15.4500   15.0520 C.ar  335  TYR335     -0.0009
    112  CE1       74.6800  -14.1090   16.2170 C.ar  335  TYR335      0.0417
    113  CE2       72.9780  -14.2110   14.5250 C.ar  335  TYR335      0.0417
    114  CZ        74.1050  -13.5940   15.0720 C.ar  335  TYR335      0.1957
    115  OH        74.5440  -12.4260   14.5460 O.3   335  TYR335     -0.2866
@<TRIPOS>BOND
     1    43    42    2
     2    42    41    1
     3    41    40    1
     4    41    44    1
     5    35    34    1
     6    35    36    2
     7    44    45    1
     8    34    33    1
     9    34    37    1
    10    33    39    1
    11    46    45    2
    12    45    47   am
    13    37    38    1
    14    38    39    1
    15    14    16   ar
    16    14    13   ar
    17    18    19    1
    18    16    17   ar
    19    24    22    1
    20    11    10    2
    21    13    12    1
    22    13    15   ar
    23    12     9    1
    24    17    15   ar
    25    19    22    1
    26    19    20    1
    27    48    49    1
    28    10     9    1
    29    22    23    1
    30     9     8    1
    31    49    52    1
    32    49    50    1
    33    20    25   am
    34    20    21    2
    35    25    26    1
    36    54    56   ar
    37    54    53   ar
    38    69    67   ar
    39    69    68   ar
    40     8     3   am
    41    56    58   ar
    42    52    53    1
    43    50    51    2
    44    50    59   am
    45    67    65   ar
    46    68    66   ar
    47    53    55   ar
    48   113   111   ar
    49   113   114   ar
    50   115   114    1
    51    26    27    1
    52    26    29    1
    53     4     3    2
    54     3     2    1
    55    59    60    1
    56    27    28    2
    57    29    30    1
    58    29    31    1
    59    65    64   ar
    60    66    64   ar
    61    30    32    1
    62   111   109   ar
    63   114   112   ar
    64    58    57   ar
    65    64    63    1
    66    55    57   ar
    67    60    63    1
    68    60    61    1
    69     2     5    1
    70     2     1    1
    71   109   110   ar
    72   109   108    1
    73   112   110   ar
    74     5     7    1
    75     5     6    1
    76   103   101    1
    77   108   105    1
    78    61    62    2
    79   102   101    1
    80   101   100    1
    81    88    87    1
    82   100    97    1
    83    99    98    2
    84    78    80   ar
    85    78    76   ar
    86    87    86    1
    87    80    79   ar
    88   105   106    1
    89   105   104    1
    90   106   107    2
    91    98    97    1
    92    97    96    1
    93    76    75   ar
    94    79    77   ar
    95    86    85    1
    96    95    93    1
    97    94    93    1
    98    75    77   ar
    99    75    74    1
   100    93    90    1
   101    90    89    1
   102    90    91    1
   103    84    83    2
   104    85    82    1
   105    92    91    2
   106    89    83   am
   107    83    82    1
   108    74    71    1
   109    82    81    1
   110    73    72    2
   111    71    72    1
   112    71    70    1
