@<TRIPOS>MOLECULE
tmp/4qonC01.pdb
 126 122 0 0 0
SMALL
GASTEIGER

@<TRIPOS>ATOM
      1  N         66.8350  -37.4300   42.9250 N.3    93  VAL93      -0.1231
      2  CA        67.4300  -37.0770   41.6460 C.3    93  VAL93       0.1692
      3  C         66.6410  -37.4710   40.4010 C.2    93  VAL93       0.2592
      4  O         66.3700  -36.6280   39.5290 O.2    93  VAL93      -0.2718
      5  CB        68.8070  -37.6680   41.5060 C.3    93  VAL93       0.0266
      6  CG1       69.3660  -37.2820   40.1300 C.3    93  VAL93       0.0020
      7  CG2       69.7200  -37.1460   42.5950 C.3    93  VAL93       0.0020
      8  N         66.3370  -38.7850   40.2360 N.am   94  ILE94      -0.1966
      9  CA        65.9800  -39.2870   38.9190 C.3    94  ILE94       0.1727
     10  C         64.4780  -39.1910   38.6130 C.2    94  ILE94       0.2616
     11  O         64.1130  -38.8960   37.4780 O.2    94  ILE94      -0.2715
     12  CB        66.5260  -40.7180   38.7090 C.3    94  ILE94       0.0290
     13  CG1       68.0630  -40.6570   38.5990 C.3    94  ILE94       0.0022
     14  CG2       65.9230  -41.3870   37.5030 C.3    94  ILE94       0.0023
     15  CD1       68.6420  -39.9450   37.3720 C.3    94  ILE94       0.0001
     16  N         63.6050  -39.5530   39.5580 N.am   95  HIS95      -0.1973
     17  CA        62.2020  -39.7300   39.2050 C.3    95  HIS95       0.1656
     18  C         61.4530  -38.4150   39.2590 C.2    95  HIS95       0.2291
     19  O         61.9860  -37.4110   39.7960 O.2    95  HIS95      -0.2864
     20  CB        61.5490  -40.8510   40.0070 C.3    95  HIS95       0.0771
     21  CG        62.0740  -42.1810   39.6320 C.ar   95  HIS95       0.0820
     22  ND1       61.4630  -42.9980   38.7020 N.ar   95  HIS95      -0.2267
     23  CD2       63.1820  -42.8360   40.0420 C.ar   95  HIS95       0.1154
     24  CE1       62.1840  -44.1010   38.5470 C.ar   95  HIS95       0.1986
     25  NE2       63.2200  -44.0260   39.3620 N.ar   95  HIS95      -0.2212
     26  N         66.5820  -45.4840   45.9430 N.3   104  ARG104     -0.1182
     27  CA        68.0340  -45.2710   45.9170 C.3   104  ARG104      0.1910
     28  C         68.4040  -44.1360   44.9690 C.2   104  ARG104      0.2634
     29  O         67.8370  -44.0320   43.8490 O.2   104  ARG104     -0.2714
     30  CB        68.7920  -46.5810   45.5640 C.2   104  ARG104      0.0007
     31  CG        70.3290  -46.4900   45.5760 C.2   104  ARG104      0.0176
     32  CD        71.0690  -47.8410   45.4330 C.3   104  ARG104      0.2464
     33  NE        70.4760  -48.8230   46.3000 N.pl3 104  ARG104     -0.0815
     34  CZ        70.7750  -48.9740   47.6040 C.cat 104  ARG104      0.5349
     35  NH1       71.6660  -48.1980   48.1900 N.pl3 104  ARG104      0.1354
     36  NH2       70.1250  -49.8650   48.3230 N.pl3 104  ARG104      0.1354
     37  N         69.2720  -43.2430   45.4000 N.am  105  ASP105     -0.1957
     38  CA        69.5890  -42.0250   44.6520 C.3   105  ASP105      0.1825
     39  C         70.5370  -41.1770   45.5200 C.2   105  ASP105      0.2464
     40  O         70.3870  -41.1490   46.7400 O.2   105  ASP105     -0.2730
     41  CB        68.2770  -41.2030   44.3470 C.3   105  ASP105      0.1450
     42  CG        67.8870  -41.1100   42.8490 C.2   105  ASP105      0.3671
     43  OD1       68.6670  -41.5680   41.9470 O.co2 105  ASP105     -0.2456
     44  OD2       66.8130  -40.4450   42.5830 O.co2 105  ASP105     -0.2456
     45  N         71.4800  -40.4520   44.9300 N.am  106  PRO106     -0.2727
     46  CA        72.0750  -39.3090   45.6570 C.3   106  PRO106      0.1402
     47  C         70.9500  -38.4170   46.1100 C.2   106  PRO106      0.2269
     48  O         69.8430  -38.5090   45.5610 O.2   106  PRO106     -0.2865
     49  CB        72.9460  -38.6260   44.6020 C.3   106  PRO106      0.0296
     50  CG        73.1330  -39.6870   43.5700 C.3   106  PRO106      0.0237
     51  CD        71.8770  -40.4280   43.5090 C.3   106  PRO106      0.0939
     52  N         79.7160  -39.5930   39.3780 N.3   131  PHE131     -0.1241
     53  CA        79.8240  -40.7490   38.5020 C.3   131  PHE131      0.1605
     54  C         80.7290  -40.4850   37.3030 C.2   131  PHE131      0.2264
     55  O         81.3080  -41.4170   36.7490 O.2   131  PHE131     -0.2867
     56  CB        78.4810  -41.0540   37.8850 C.3   131  PHE131      0.0534
     57  CG        77.3760  -41.3730   38.8750 C.ar  131  PHE131     -0.0203
     58  CD1       76.5290  -40.3360   39.2910 C.ar  131  PHE131     -0.0042
     59  CD2       77.1070  -42.6640   39.2670 C.ar  131  PHE131     -0.0042
     60  CE1       75.4900  -40.5960   40.1620 C.ar  131  PHE131     -0.0003
     61  CE2       76.0470  -42.9590   40.1430 C.ar  131  PHE131     -0.0003
     62  CZ        75.2440  -41.9100   40.5830 C.ar  131  PHE131     -0.0000
     63  N         69.9380  -43.5380   33.4210 N.3   145  LEU145     -0.1245
     64  CA        69.3660  -43.6950   34.7470 C.3   145  LEU145      0.1561
     65  C         67.8690  -43.4480   34.7790 C.2   145  LEU145      0.2260
     66  O         67.1320  -44.1310   35.5310 O.2   145  LEU145     -0.2867
     67  CB        70.0210  -42.7670   35.7480 C.3   145  LEU145      0.0270
     68  CG        71.4610  -43.0380   36.1600 C.3   145  LEU145      0.0019
     69  CD1       72.0310  -41.7600   36.7800 C.3   145  LEU145      0.0001
     70  CD2       71.4910  -44.1860   37.1110 C.3   145  LEU145      0.0001
     71  N         62.3040  -47.4530   35.1990 N.3   154  GLN154     -0.1245
     72  CA        63.7610  -47.3670   35.2680 C.3   154  GLN154      0.1566
     73  C         64.2510  -48.7830   35.0280 C.2   154  GLN154      0.2260
     74  O         63.5830  -49.7290   35.4190 O.2   154  GLN154     -0.2867
     75  CB        64.2360  -46.8690   36.6280 C.3   154  GLN154      0.0367
     76  CG        65.7510  -46.7930   36.7370 C.3   154  GLN154      0.0905
     77  CD        66.1650  -46.2990   38.0850 C.2   154  GLN154      0.2608
     78  OE1       65.8690  -46.9120   39.0960 O.2   154  GLN154     -0.2717
     79  NE2       66.7360  -45.1200   38.1190 N.am  154  GLN154     -0.0878
     80  N         71.2670  -48.4660   32.8440 N.3   159  TYR159     -0.1241
     81  CA        72.2640  -47.6400   33.5260 C.3   159  TYR159      0.1605
     82  C         73.5060  -48.4030   33.8650 C.2   159  TYR159      0.2264
     83  O         74.5800  -47.8240   33.8640 O.2   159  TYR159     -0.2867
     84  CB        71.7130  -46.8560   34.7350 C.3   159  TYR159      0.0534
     85  CG        71.0810  -47.5730   35.9210 C.ar  159  TYR159     -0.0201
     86  CD1       71.8820  -48.2580   36.8850 C.ar  159  TYR159     -0.0009
     87  CD2       69.6920  -47.5500   36.1330 C.ar  159  TYR159     -0.0009
     88  CE1       71.3180  -48.8680   38.0050 C.ar  159  TYR159      0.0417
     89  CE2       69.1180  -48.2090   37.2240 C.ar  159  TYR159      0.0417
     90  CZ        69.9410  -48.8810   38.1440 C.ar  159  TYR159      0.1957
     91  OH        69.3520  -49.5280   39.2270 O.3   159  TYR159     -0.2866
     92  N         77.2120  -47.2540   33.0530 N.3   163  MET163     -0.1245
     93  CA        78.2080  -47.1320   34.0760 C.3   163  MET163      0.1570
     94  C         79.3970  -48.0130   33.8730 C.2   163  MET163      0.2261
     95  O         80.4990  -47.6480   34.1320 O.2   163  MET163     -0.2867
     96  CB        77.6090  -47.3490   35.4650 C.3   163  MET163      0.0387
     97  CG        76.5380  -46.3790   35.8850 C.3   163  MET163      0.0595
     98  SD        77.1340  -44.7010   36.1770 S.3   163  MET163     -0.1393
     99  CE        75.5560  -43.8950   36.3160 C.3   163  MET163      0.0692
    100  N         79.7780  -45.4930   42.6140 N.3   173  LEU173     -0.1245
    101  CA        78.9030  -46.6820   42.8440 C.3   173  LEU173      0.1561
    102  C         79.2020  -47.4100   44.1730 C.2   173  LEU173      0.2260
    103  O         78.2910  -47.9490   44.8320 O.2   173  LEU173     -0.2867
    104  CB        78.9400  -47.6080   41.6400 C.3   173  LEU173      0.0270
    105  CG        78.3900  -46.9930   40.3620 C.3   173  LEU173      0.0019
    106  CD1       78.8910  -47.7570   39.1470 C.3   173  LEU173      0.0001
    107  CD2       76.8710  -47.0300   40.3210 C.3   173  LEU173      0.0001
    108  N         77.2400  -45.1950   46.6380 N.3   176  LEU176     -0.1231
    109  CA        75.7700  -45.2220   46.4150 C.3   176  LEU176      0.1693
    110  C         75.1510  -46.5650   46.7420 C.2   176  LEU176      0.2592
    111  O         73.9790  -46.6480   47.0630 O.2   176  LEU176     -0.2718
    112  CB        75.4680  -44.8720   44.9410 C.3   176  LEU176      0.0284
    113  CG        74.0040  -44.7570   44.5350 C.3   176  LEU176      0.0019
    114  CD1       73.3610  -43.6040   45.2270 C.3   176  LEU176      0.0001
    115  CD2       73.9820  -44.5570   43.0190 C.3   176  LEU176      0.0001
    116  N         75.9170  -47.6410   46.6310 N.am  177  PHE177     -0.1976
    117  CA        75.3450  -48.9240   46.9270 C.3   177  PHE177      0.1639
    118  C         75.6550  -49.4410   48.3750 C.2   177  PHE177      0.2290
    119  O         75.2230  -50.5430   48.7070 O.2   177  PHE177     -0.2864
    120  CB        75.6440  -50.0000   45.8410 C.3   177  PHE177      0.0560
    121  CG        74.7730  -49.8500   44.5890 C.ar  177  PHE177     -0.0200
    122  CD1       73.4900  -50.3830   44.5630 C.ar  177  PHE177     -0.0042
    123  CD2       75.1380  -48.9590   43.5740 C.ar  177  PHE177     -0.0042
    124  CE1       72.7000  -50.2610   43.4380 C.ar  177  PHE177     -0.0003
    125  CE2       74.3220  -48.7540   42.4900 C.ar  177  PHE177     -0.0003
    126  CZ        73.1170  -49.4350   42.3970 C.ar  177  PHE177     -0.0000
@<TRIPOS>BOND
     1    80    81    1
     2    92    93    1
     3    63    64    1
     4    81    82    1
     5    81    84    1
     6    83    82    2
     7    94    93    1
     8    94    95    2
     9    93    96    1
    10    84    85    1
    11    64    65    1
    12    64    67    1
    13    65    66    2
    14    73    72    1
    15    73    74    2
    16    71    72    1
    17    72    75    1
    18    96    97    1
    19    67    68    1
    20    97    98    1
    21    85    87   ar
    22    85    86   ar
    23    87    89   ar
    24    68    69    1
    25    68    70    1
    26    98    99    1
    27    75    76    1
    28    76    77    1
    29    55    54    2
    30    86    88   ar
    31    89    90   ar
    32    54    53    1
    33    15    13    1
    34    11    10    2
    35    14    12    1
    36    56    53    1
    37    56    57    1
    38    88    90   ar
    39    77    79   am
    40    77    78    2
    41    90    91    1
    42    53    52    1
    43    24    22   ar
    44    24    25   ar
    45    13    12    1
    46    10     9    1
    47    10    16   am
    48    22    21   ar
    49    12     9    1
    50    57    59   ar
    51    57    58   ar
    52     9     8    1
    53   106   105    1
    54    17    18    1
    55    17    16    1
    56    17    20    1
    57    18    19    2
    58    59    61   ar
    59    58    60   ar
    60    25    23   ar
    61     4     3    2
    62    21    20    1
    63    21    23   ar
    64     6     5    1
    65    61    62   ar
    66    60    62   ar
    67     8     3   am
    68   107   105    1
    69   105   104    1
    70     3     2    1
    71     5     2    1
    72     5     7    1
    73   104   101    1
    74     2     1    1
    75    43    42   ar
    76   126   125   ar
    77   126   124   ar
    78   125   123   ar
    79    44    42   ar
    80   100   101    1
    81   101   102    1
    82    42    41    1
    83   115   113    1
    84   124   122   ar
    85    51    50    1
    86    51    45    1
    87    50    49    1
    88   123   121   ar
    89    29    28    2
    90   102   103    2
    91    41    38    1
    92   113   112    1
    93   113   114    1
    94   122   121   ar
    95   121   120    1
    96    49    46    1
    97    38    37    1
    98    38    39    1
    99    45    39   am
   100    45    46    1
   101   112   109    1
   102    28    37   am
   103    28    27    1
   104    32    31    1
   105    32    33    1
   106    39    40    2
   107    48    47    2
   108    30    31    2
   109    30    27    1
   110    46    47    1
   111   120   117    1
   112    27    26    1
   113    33    34    2
   114   109   108    1
   115   109   110    1
   116   116   110   am
   117   116   117    1
   118   110   111    2
   119   117   118    1
   120    34    35    1
   121    34    36    1
   122   118   119    2
