@<TRIPOS>MOLECULE
tmp/4qonC02.pdb
 115 112 0 0 0
SMALL
GASTEIGER

@<TRIPOS>ATOM
      1  N         66.4250  -32.7800   36.3210 N.3    51  VAL51      -0.1231
      2  CA        66.7220  -33.7160   37.4100 C.3    51  VAL51       0.1692
      3  C         66.4360  -33.0560   38.7650 C.2    51  VAL51       0.2592
      4  O         66.2300  -31.8790   38.8550 O.2    51  VAL51      -0.2718
      5  CB        68.2120  -34.1720   37.3270 C.3    51  VAL51       0.0266
      6  CG1       68.3750  -35.1040   36.1190 C.3    51  VAL51       0.0020
      7  CG2       69.1110  -32.9510   37.1430 C.3    51  VAL51       0.0020
      8  N         66.3830  -33.8510   39.8090 N.am   52  HIS52      -0.1976
      9  CA        66.0730  -33.3650   41.1690 C.3    52  HIS52       0.1656
     10  C         64.6740  -32.7240   41.2690 C.2    52  HIS52       0.2291
     11  O         64.4900  -31.7520   42.0120 O.2    52  HIS52      -0.2864
     12  CB        67.0700  -32.4050   41.6740 C.3    52  HIS52       0.0771
     13  CG        68.4590  -32.9570   41.8680 C.ar   52  HIS52       0.0820
     14  ND1       68.9690  -33.2510   43.1320 N.ar   52  HIS52      -0.2267
     15  CD2       69.4290  -33.3050   40.9920 C.ar   52  HIS52       0.1154
     16  CE1       70.2080  -33.6820   43.0150 C.ar   52  HIS52       0.1986
     17  NE2       70.5090  -33.7330   41.7290 N.ar   52  HIS52      -0.2212
     18  N         66.8350  -37.4300   42.9250 N.3    93  VAL93      -0.1231
     19  CA        67.4300  -37.0770   41.6460 C.3    93  VAL93       0.1692
     20  C         66.6410  -37.4710   40.4010 C.2    93  VAL93       0.2591
     21  O         66.3700  -36.6280   39.5290 O.2    93  VAL93      -0.2718
     22  CB        68.8070  -37.6680   41.5060 C.3    93  VAL93       0.0266
     23  CG1       69.3660  -37.2820   40.1300 C.3    93  VAL93       0.0020
     24  CG2       69.7200  -37.1460   42.5950 C.3    93  VAL93       0.0020
     25  N         66.3370  -38.7850   40.2360 N.am   94  ILE94      -0.1980
     26  CA        65.9800  -39.2870   38.9190 C.3    94  ILE94       0.1595
     27  C         64.4780  -39.1910   38.6130 C.2    94  ILE94       0.2287
     28  O         64.1130  -38.8960   37.4780 O.2    94  ILE94      -0.2864
     29  CB        66.5260  -40.7180   38.7090 C.3    94  ILE94       0.0276
     30  CG1       68.0630  -40.6570   38.5990 C.3    94  ILE94       0.0022
     31  CG2       65.9230  -41.3870   37.5030 C.3    94  ILE94       0.0022
     32  CD1       68.6420  -39.9450   37.3720 C.3    94  ILE94       0.0001
     33  N         71.4800  -40.4520   44.9300 N.3   106  PRO106     -0.2116
     34  CA        72.0750  -39.3090   45.6570 C.3   106  PRO106      0.1372
     35  C         70.9500  -38.4170   46.1100 C.2   106  PRO106      0.2244
     36  O         69.8430  -38.5090   45.5610 O.2   106  PRO106     -0.2868
     37  CB        72.9460  -38.6260   44.6020 C.3   106  PRO106      0.0268
     38  CG        73.1330  -39.6870   43.5700 C.3   106  PRO106      0.0207
     39  CD        71.8770  -40.4280   43.5090 C.3   106  PRO106      0.0892
     40  N         75.4740  -32.2730   46.8220 N.3   125  ASN125     -0.1240
     41  CA        74.7390  -33.5200   47.1130 C.3   125  ASN125      0.1653
     42  C         75.1250  -34.0700   48.4890 C.2   125  ASN125      0.2266
     43  O         76.1120  -33.6470   49.0280 O.2   125  ASN125     -0.2867
     44  CB        75.0390  -34.5930   46.0830 C.3   125  ASN125      0.1155
     45  CG        74.2340  -34.4630   44.8010 C.2   125  ASN125      0.2627
     46  OD1       73.1580  -33.8160   44.7420 O.2   125  ASN125     -0.2716
     47  ND2       74.7270  -35.1340   43.7590 N.am  125  ASN125     -0.0877
     48  N         81.2240  -37.8950   42.2490 N.3   130  PHE130     -0.1227
     49  CA        80.2530  -38.0760   41.1870 C.3   130  PHE130      0.1736
     50  C         80.6500  -39.2140   40.2500 C.2   130  PHE130      0.2595
     51  O         81.7630  -39.7670   40.3540 O.2   130  PHE130     -0.2718
     52  CB        80.1140  -36.8090   40.3480 C.3   130  PHE130      0.0547
     53  CG        78.7190  -36.6020   39.8250 C.ar  130  PHE130     -0.0202
     54  CD1       77.7010  -36.4750   40.7190 C.ar  130  PHE130     -0.0042
     55  CD2       78.4160  -36.5250   38.4530 C.ar  130  PHE130     -0.0042
     56  CE1       76.3980  -36.2930   40.2740 C.ar  130  PHE130     -0.0003
     57  CE2       77.1130  -36.3430   37.9950 C.ar  130  PHE130     -0.0003
     58  CZ        76.1000  -36.2160   38.9080 C.ar  130  PHE130     -0.0000
     59  N         79.7160  -39.5930   39.3780 N.am  131  PHE131     -0.1976
     60  CA        79.8240  -40.7490   38.5020 C.3   131  PHE131      0.1639
     61  C         80.7290  -40.4850   37.3030 C.2   131  PHE131      0.2290
     62  O         81.3080  -41.4170   36.7490 O.2   131  PHE131     -0.2864
     63  CB        78.4810  -41.0540   37.8850 C.3   131  PHE131      0.0560
     64  CG        77.3760  -41.3730   38.8750 C.ar  131  PHE131     -0.0200
     65  CD1       76.5290  -40.3360   39.2910 C.ar  131  PHE131     -0.0042
     66  CD2       77.1070  -42.6640   39.2670 C.ar  131  PHE131     -0.0042
     67  CE1       75.4900  -40.5960   40.1620 C.ar  131  PHE131     -0.0003
     68  CE2       76.0470  -42.9590   40.1430 C.ar  131  PHE131     -0.0003
     69  CZ        75.2440  -41.9100   40.5830 C.ar  131  PHE131     -0.0000
     70  N         76.8570  -35.7680   30.7610 N.3   138  PHE138     -0.1241
     71  CA        75.7690  -35.6940   31.7580 C.3   138  PHE138      0.1605
     72  C         74.4160  -36.0740   31.1450 C.2   138  PHE138      0.2264
     73  O         73.7120  -36.8630   31.7370 O.2   138  PHE138     -0.2867
     74  CB        75.6640  -34.2830   32.3650 C.3   138  PHE138      0.0534
     75  CG        74.6880  -34.2040   33.4940 C.ar  138  PHE138     -0.0203
     76  CD1       74.9740  -34.7700   34.7040 C.ar  138  PHE138     -0.0042
     77  CD2       73.4700  -33.6040   33.3290 C.ar  138  PHE138     -0.0042
     78  CE1       74.0970  -34.6770   35.7350 C.ar  138  PHE138     -0.0003
     79  CE2       72.6010  -33.4970   34.3650 C.ar  138  PHE138     -0.0003
     80  CZ        72.8910  -34.0610   35.5680 C.ar  138  PHE138     -0.0000
     81  N         74.4540  -39.9560   30.8270 N.3   141  MET141     -0.1230
     82  CA        74.2830  -40.5470   32.1450 C.3   141  MET141      0.1702
     83  C         72.8320  -40.5200   32.6180 C.2   141  MET141      0.2592
     84  O         72.2800  -41.5460   33.0220 O.2   141  MET141     -0.2718
     85  CB        75.2010  -39.9480   33.1820 C.3   141  MET141      0.0401
     86  CG        75.1910  -40.6400   34.5400 C.3   141  MET141      0.0596
     87  SD        75.9440  -39.5790   35.8130 S.3   141  MET141     -0.1393
     88  CE        74.6450  -38.4320   36.0690 C.3   141  MET141      0.0692
     89  N         72.2590  -39.3280   32.6410 N.am  142  VAL142     -0.1980
     90  CA        70.8930  -39.1390   33.0830 C.3   142  VAL142      0.1595
     91  C         69.9280  -39.9720   32.2560 C.2   142  VAL142      0.2287
     92  O         69.0190  -40.5910   32.8350 O.2   142  VAL142     -0.2864
     93  CB        70.5440  -37.6260   33.0720 C.3   142  VAL142      0.0276
     94  CG1       69.0430  -37.3860   33.2800 C.3   142  VAL142      0.0022
     95  CG2       71.2980  -36.8790   34.1610 C.3   142  VAL142      0.0022
     96  N         69.9380  -43.5380   33.4210 N.3   145  LEU145     -0.1245
     97  CA        69.3660  -43.6950   34.7470 C.3   145  LEU145      0.1561
     98  C         67.8690  -43.4480   34.7790 C.2   145  LEU145      0.2260
     99  O         67.1320  -44.1310   35.5310 O.2   145  LEU145     -0.2867
    100  CB        70.0210  -42.7670   35.7480 C.3   145  LEU145      0.0270
    101  CG        71.4610  -43.0380   36.1600 C.3   145  LEU145      0.0019
    102  CD1       72.0310  -41.7600   36.7800 C.3   145  LEU145      0.0001
    103  CD2       71.4910  -44.1860   37.1110 C.3   145  LEU145      0.0001
    104  N         72.7300  -24.5960   34.5830 N.3   335  TYR335     -0.1241
    105  CA        71.6610  -24.2060   35.5270 C.3   335  TYR335      0.1605
    106  C         70.8510  -22.9510   35.1270 C.2   335  TYR335      0.2264
    107  O         69.6390  -22.9910   35.0010 O.2   335  TYR335     -0.2867
    108  CB        72.1730  -24.1390   37.0020 C.3   335  TYR335      0.0534
    109  CG        72.5330  -25.5140   37.5780 C.ar  335  TYR335     -0.0201
    110  CD1       73.6530  -26.2420   37.0890 C.ar  335  TYR335     -0.0009
    111  CD2       71.8990  -25.9860   38.7150 C.ar  335  TYR335     -0.0009
    112  CE1       73.9660  -27.4480   37.5930 C.ar  335  TYR335      0.0417
    113  CE2       72.2450  -27.1990   39.2590 C.ar  335  TYR335      0.0417
    114  CZ        73.2840  -27.8970   38.7220 C.ar  335  TYR335      0.1957
    115  OH        73.6200  -29.1290   39.2590 O.3   335  TYR335     -0.2866
@<TRIPOS>BOND
     1    70    71    1
     2    81    82    1
     3    72    73    2
     4    72    71    1
     5    71    74    1
     6    82    83    1
     7    82    85    1
     8    91    92    2
     9    91    90    1
    10    74    75    1
    11    83    89   am
    12    83    84    2
    13    89    90    1
    14    93    90    1
    15    93    94    1
    16    93    95    1
    17    85    86    1
    18    77    75   ar
    19    77    79   ar
    20    96    97    1
    21    75    76   ar
    22    79    80   ar
    23    86    87    1
    24   104   105    1
    25    76    78   ar
    26    97    98    1
    27    97   100    1
    28    98    99    2
    29   107   106    2
    30   106   105    1
    31   105   108    1
    32    80    78   ar
    33   100   101    1
    34    87    88    1
    35     6     5    1
    36   101   102    1
    37   101   103    1
    38     1     2    1
    39    62    61    2
    40   108   109    1
    41   110   109   ar
    42   110   112   ar
    43     7     5    1
    44    61    60    1
    45     5     2    1
    46    32    30    1
    47     2     3    1
    48    28    27    2
    49    31    29    1
    50   109   111   ar
    51   112   114   ar
    52    63    60    1
    53    63    64    1
    54    57    55   ar
    55    57    58   ar
    56    55    53   ar
    57    60    59    1
    58    30    29    1
    59    27    26    1
    60    29    26    1
    61   111   113   ar
    62   114   115    1
    63   114   113   ar
    64     3     4    2
    65     3     8   am
    66    64    66   ar
    67    64    65   ar
    68    58    56   ar
    69    26    25    1
    70    66    68   ar
    71    65    67   ar
    72    59    50   am
    73    21    20    2
    74     8     9    1
    75    53    52    1
    76    53    54   ar
    77    23    22    1
    78    68    69   ar
    79    67    69   ar
    80    25    20   am
    81    50    51    2
    82    50    49    1
    83    56    54   ar
    84    52    49    1
    85    20    19    1
    86    15    17   ar
    87    15    13   ar
    88     9    10    1
    89     9    12    1
    90    49    48    1
    91    10    11    2
    92    22    19    1
    93    22    24    1
    94    19    18    1
    95    12    13    1
    96    17    16   ar
    97    13    14   ar
    98    16    14   ar
    99    39    38    1
   100    39    33    1
   101    38    37    1
   102    47    45   am
   103    37    34    1
   104    46    45    2
   105    45    44    1
   106    33    34    1
   107    36    35    2
   108    34    35    1
   109    44    41    1
   110    40    41    1
   111    41    42    1
   112    42    43    2
