@<TRIPOS>MOLECULE
tmp/4qooB01.pdb
 124 118 0 0 0
SMALL
GASTEIGER

@<TRIPOS>ATOM
      1  N         44.4460  -39.2710   39.0330 N.3    93  VAL93      -0.1231
      2  CA        43.9030  -37.8760   38.9510 C.3    93  VAL93       0.1692
      3  C         44.7440  -36.7990   39.6270 C.2    93  VAL93       0.2591
      4  O         45.1420  -35.8460   38.9600 O.2    93  VAL93      -0.2718
      5  CB        42.4600  -37.8100   39.4690 C.3    93  VAL93       0.0266
      6  CG1       41.9730  -36.3490   39.3880 C.3    93  VAL93       0.0020
      7  CG2       41.5320  -38.7120   38.6640 C.3    93  VAL93       0.0020
      8  N         45.0640  -36.9350   40.9210 N.am   94  ILE94      -0.1980
      9  CA        45.4610  -35.8050   41.7050 C.3    94  ILE94       0.1595
     10  C         46.9660  -35.6050   41.7420 C.2    94  ILE94       0.2287
     11  O         47.4540  -34.4580   41.7010 O.2    94  ILE94      -0.2864
     12  CB        44.8240  -35.9020   43.1000 C.3    94  ILE94       0.0276
     13  CG1       43.2890  -35.6950   43.0070 C.3    94  ILE94       0.0022
     14  CG2       45.4360  -34.9140   44.0700 C.3    94  ILE94       0.0022
     15  CD1       42.7730  -34.3190   42.4960 C.3    94  ILE94       0.0001
     16  N         44.2280  -44.1040   46.1290 N.3   104  ARG104     -0.1182
     17  CA        42.8130  -43.9150   45.8740 C.3   104  ARG104      0.1910
     18  C         42.6050  -42.7000   44.9320 C.2   104  ARG104      0.2634
     19  O         43.2290  -41.6360   45.0900 O.2   104  ARG104     -0.2714
     20  CB        42.0310  -43.7400   47.2140 C.2   104  ARG104      0.0007
     21  CG        40.5230  -43.5110   47.0670 C.2   104  ARG104      0.0176
     22  CD        39.7070  -43.6420   48.3640 C.3   104  ARG104      0.2464
     23  NE        40.1260  -44.7660   49.1960 N.pl3 104  ARG104     -0.0815
     24  CZ        39.8070  -46.0450   49.0280 C.cat 104  ARG104      0.5349
     25  NH1       38.9560  -46.4800   48.0670 N.pl3 104  ARG104      0.1354
     26  NH2       40.3320  -46.9390   49.8630 N.pl3 104  ARG104      0.1354
     27  N         41.7410  -42.8510   43.9420 N.am  105  ASP105     -0.1957
     28  CA        41.4420  -41.7780   42.9840 C.3   105  ASP105      0.1825
     29  C         40.4800  -42.4470   41.9410 C.2   105  ASP105      0.2464
     30  O         40.5950  -43.6400   41.6630 O.2   105  ASP105     -0.2730
     31  CB        42.7200  -41.3380   42.2030 C.3   105  ASP105      0.1450
     32  CG        43.1820  -39.8890   42.4640 C.2   105  ASP105      0.3671
     33  OD1       42.5710  -39.1360   43.2690 O.co2 105  ASP105     -0.2456
     34  OD2       44.3350  -39.5870   41.9510 O.co2 105  ASP105     -0.2456
     35  N         39.6340  -41.6550   41.2900 N.am  106  PRO106     -0.2727
     36  CA        39.1310  -42.0850   40.0270 C.3   106  PRO106      0.1402
     37  C         40.2580  -42.3820   39.0800 C.2   106  PRO106      0.2269
     38  O         41.3530  -41.8570   39.2220 O.2   106  PRO106     -0.2865
     39  CB        38.3290  -40.8590   39.5200 C.3   106  PRO106      0.0296
     40  CG        38.1250  -40.0270   40.6830 C.3   106  PRO106      0.0237
     41  CD        39.3260  -40.2120   41.5100 C.3   106  PRO106      0.0939
     42  N         31.8650  -35.7280   41.2480 N.3   131  PHE131     -0.1241
     43  CA        31.7260  -35.1240   42.5740 C.3   131  PHE131      0.1605
     44  C         30.8700  -33.8570   42.5160 C.2   131  PHE131      0.2264
     45  O         30.2980  -33.4700   43.5470 O.2   131  PHE131     -0.2867
     46  CB        33.0360  -34.6310   43.1130 C.3   131  PHE131      0.0534
     47  CG        34.1390  -35.6780   43.2090 C.ar  131  PHE131     -0.0203
     48  CD1       35.0030  -35.8420   42.1590 C.ar  131  PHE131     -0.0042
     49  CD2       34.3360  -36.4010   44.3930 C.ar  131  PHE131     -0.0042
     50  CE1       36.0350  -36.7440   42.1970 C.ar  131  PHE131     -0.0003
     51  CE2       35.3980  -37.2840   44.4720 C.ar  131  PHE131     -0.0003
     52  CZ        36.2480  -37.4600   43.3820 C.ar  131  PHE131     -0.0000
     53  N         41.6250  -31.1580   46.8530 N.3   145  LEU145     -0.1245
     54  CA        42.1380  -32.5500   46.8090 C.3   145  LEU145      0.1561
     55  C         43.6110  -32.6280   46.6010 C.2   145  LEU145      0.2260
     56  O         44.2710  -33.5430   47.1440 O.2   145  LEU145     -0.2867
     57  CB        41.5140  -33.2500   45.6150 C.3   145  LEU145      0.0270
     58  CG        40.0330  -33.6210   45.8200 C.3   145  LEU145      0.0019
     59  CD1       39.4250  -33.9460   44.4700 C.3   145  LEU145      0.0001
     60  CD2       39.9570  -34.8650   46.7330 C.3   145  LEU145      0.0001
     61  N         48.8670  -34.0370   50.5430 N.3   154  GLN154     -0.1245
     62  CA        47.4160  -34.1040   50.5220 C.3   154  GLN154      0.1566
     63  C         46.8350  -34.1660   51.9160 C.2   154  GLN154      0.2260
     64  O         47.3690  -34.8620   52.7720 O.2   154  GLN154     -0.2867
     65  CB        46.9660  -35.3100   49.6910 C.3   154  GLN154      0.0367
     66  CG        45.4310  -35.4480   49.6430 C.3   154  GLN154      0.0905
     67  CD        45.0500  -36.5840   48.7310 C.2   154  GLN154      0.2608
     68  OE1       45.3750  -37.7420   49.0570 O.2   154  GLN154     -0.2717
     69  NE2       44.5600  -36.2960   47.5640 N.am  154  GLN154     -0.0878
     70  N         39.9920  -31.5710   51.6770 N.3   159  TYR159     -0.1241
     71  CA        39.0290  -31.9950   50.6450 C.3   159  TYR159      0.1605
     72  C         37.7110  -32.3830   51.2780 C.2   159  TYR159      0.2264
     73  O         36.6390  -32.1780   50.6860 O.2   159  TYR159     -0.2867
     74  CB        39.5560  -33.0530   49.7510 C.3   159  TYR159      0.0534
     75  CG        40.0550  -34.3570   50.3160 C.ar  159  TYR159     -0.0201
     76  CD1       39.1860  -35.3970   50.6980 C.ar  159  TYR159     -0.0009
     77  CD2       41.4330  -34.6560   50.2880 C.ar  159  TYR159     -0.0009
     78  CE1       39.7000  -36.6390   51.1290 C.ar  159  TYR159      0.0417
     79  CE2       41.9360  -35.8690   50.7420 C.ar  159  TYR159      0.0417
     80  CZ        41.0410  -36.8850   51.1450 C.ar  159  TYR159      0.1957
     81  OH        41.5320  -38.1030   51.5760 O.3   159  TYR159     -0.2866
     82  N         34.1540  -31.1090   50.2070 N.3   163  MET163     -0.1245
     83  CA        33.1070  -32.1100   49.8180 C.3   163  MET163      0.1570
     84  C         31.9020  -32.0380   50.6850 C.2   163  MET163      0.2261
     85  O         30.7370  -32.1190   50.1910 O.2   163  MET163     -0.2867
     86  CB        33.6380  -33.5300   49.8330 C.3   163  MET163      0.0387
     87  CG        34.7330  -33.8110   48.8020 C.3   163  MET163      0.0595
     88  SD        34.2480  -33.7090   47.0780 S.3   163  MET163     -0.1393
     89  CE        35.8740  -33.8840   46.3060 C.3   163  MET163      0.0692
     90  N         31.3430  -40.0740   46.3610 N.3   173  LEU173     -0.1245
     91  CA        32.1330  -40.5860   47.4890 C.3   173  LEU173      0.1561
     92  C         31.7110  -42.0080   47.8660 C.2   173  LEU173      0.2260
     93  O         32.4960  -42.8180   48.2890 O.2   173  LEU173     -0.2867
     94  CB        32.0380  -39.6050   48.6540 C.3   173  LEU173      0.0270
     95  CG        32.5990  -38.2140   48.3260 C.3   173  LEU173      0.0019
     96  CD1       32.2000  -37.2910   49.4400 C.3   173  LEU173      0.0001
     97  CD2       34.1260  -38.2710   48.1800 C.3   173  LEU173      0.0001
     98  N         33.6210  -44.0320   45.2800 N.3   176  LEU176     -0.1231
     99  CA        35.0690  -43.8880   45.4390 C.3   176  LEU176      0.1693
    100  C         35.6380  -44.5090   46.7020 C.2   176  LEU176      0.2592
    101  O         36.8010  -44.9500   46.7070 O.2   176  LEU176     -0.2718
    102  CB        35.4570  -42.3780   45.4050 C.3   176  LEU176      0.0284
    103  CG        36.9130  -42.0420   45.4400 C.3   176  LEU176      0.0019
    104  CD1       37.5760  -42.5240   44.1830 C.3   176  LEU176      0.0001
    105  CD2       37.0480  -40.5420   45.5840 C.3   176  LEU176      0.0001
    106  N         34.8520  -44.5490   47.7750 N.am  177  PHE177     -0.1976
    107  CA        35.3470  -45.1690   48.9950 C.3   177  PHE177      0.1639
    108  C         34.9440  -46.6260   49.1870 C.2   177  PHE177      0.2290
    109  O         35.3030  -47.2180   50.2090 O.2   177  PHE177     -0.2864
    110  CB        34.9710  -44.3430   50.2130 C.3   177  PHE177      0.0560
    111  CG        35.9250  -43.1690   50.4090 C.ar  177  PHE177     -0.0200
    112  CD1       37.0960  -43.3220   51.0970 C.ar  177  PHE177     -0.0042
    113  CD2       35.6420  -41.9690   49.8070 C.ar  177  PHE177     -0.0042
    114  CE1       37.9860  -42.2730   51.2160 C.ar  177  PHE177     -0.0003
    115  CE2       36.4950  -40.8880   49.9220 C.ar  177  PHE177     -0.0003
    116  CZ        37.7060  -41.0530   50.6440 C.ar  177  PHE177     -0.0000
    117  N         39.8000  -42.2920   56.5220 N.3   442  ASP442     -0.1239
    118  CA        39.9410  -40.9820   55.8910 C.3   442  ASP442      0.1674
    119  C         39.4330  -39.8720   56.7470 C.2   442  ASP442      0.2266
    120  O         39.9620  -38.7660   56.6560 O.2   442  ASP442     -0.2867
    121  CB        39.2150  -40.9490   54.5730 C.3   442  ASP442      0.1410
    122  CG        40.0550  -40.3540   53.4680 C.2   442  ASP442      0.3668
    123  OD1       41.0620  -40.9920   53.1250 O.co2 442  ASP442     -0.2456
    124  OD2       39.6870  -39.2830   52.9610 O.co2 442  ASP442     -0.2456
@<TRIPOS>BOND
     1     7     5    1
     2     2     1    1
     3     2     5    1
     4     2     3    1
     5     4     3    2
     6    37    38    2
     7    37    36    1
     8     6     5    1
     9    39    36    1
    10    39    40    1
    11     3     8   am
    12    36    35    1
    13    40    41    1
    14     8     9    1
    15    42    43    1
    16    35    41    1
    17    35    29   am
    18    30    29    2
    19    11    10    2
    20     9    10    1
    21     9    12    1
    22    29    28    1
    23    34    32   ar
    24    48    50   ar
    25    48    47   ar
    26    50    52   ar
    27    31    32    1
    28    31    28    1
    29    32    33   ar
    30    15    13    1
    31    44    43    1
    32    44    45    2
    33    43    46    1
    34    28    27    1
    35    13    12    1
    36    12    14    1
    37    46    47    1
    38    47    49   ar
    39    52    51   ar
    40    27    18   am
    41   104   103    1
    42    49    51   ar
    43    59    58    1
    44    18    19    2
    45    18    17    1
    46    98    99    1
    47   102    99    1
    48   102   103    1
    49    99   100    1
    50   103   105    1
    51    57    58    1
    52    57    54    1
    53    58    60    1
    54    17    16    1
    55    17    20    1
    56    89    88    1
    57    90    91    1
    58    55    54    1
    59    55    56    2
    60   100   101    2
    61   100   106   am
    62    54    53    1
    63    21    20    2
    64    21    22    1
    65    88    87    1
    66    91    92    1
    67    91    94    1
    68    69    67   am
    69   106   107    1
    70    92    93    2
    71    25    24    1
    72    97    95    1
    73    95    94    1
    74    95    96    1
    75    22    23    1
    76    67    68    2
    77    67    66    1
    78    87    86    1
    79   107   108    1
    80   107   110    1
    81    24    23    2
    82    24    26    1
    83   108   109    2
    84    66    65    1
    85    65    62    1
    86    74    75    1
    87    74    71    1
    88   113   115   ar
    89   113   111   ar
    90    83    86    1
    91    83    82    1
    92    83    84    1
    93   115   116   ar
    94    85    84    2
    95   110   111    1
    96    77    75   ar
    97    77    79   ar
    98    75    76   ar
    99   111   112   ar
   100    62    61    1
   101    62    63    1
   102   116   114   ar
   103    71    72    1
   104    71    70    1
   105    73    72    2
   106    76    78   ar
   107    79    80   ar
   108   112   114   ar
   109    78    80   ar
   110    80    81    1
   111    63    64    2
   112   124   122   ar
   113   123   122   ar
   114   122   121    1
   115   121   118    1
   116   118   117    1
   117   118   119    1
   118   120   119    2
