@<TRIPOS>MOLECULE
tmp/4qopA01.pdb
 124 118 0 0 0
SMALL
GASTEIGER

@<TRIPOS>ATOM
      1  N         46.1760   -0.7540   13.2240 N.3    93  VAL93      -0.1231
      2  CA        45.6100   -2.0930   13.2910 C.3    93  VAL93       0.1692
      3  C         46.4450   -3.2020   12.6480 C.2    93  VAL93       0.2591
      4  O         46.7230   -4.2200   13.3000 O.2    93  VAL93      -0.2718
      5  CB        44.1860   -2.1220   12.6700 C.3    93  VAL93       0.0266
      6  CG1       43.5940   -3.5410   12.7160 C.3    93  VAL93       0.0020
      7  CG2       43.2330   -1.1820   13.4180 C.3    93  VAL93       0.0020
      8  N         46.7420   -3.0770   11.3570 N.am   94  ILE94      -0.1980
      9  CA        47.1040   -4.2250   10.5470 C.3    94  ILE94       0.1595
     10  C         48.6210   -4.5010   10.5610 C.2    94  ILE94       0.2287
     11  O         49.0340   -5.6490   10.7770 O.2    94  ILE94      -0.2864
     12  CB        46.5540   -4.1140    9.1260 C.3    94  ILE94       0.0276
     13  CG1       45.0210   -4.2640    9.1430 C.3    94  ILE94       0.0022
     14  CG2       47.1500   -5.1530    8.2070 C.3    94  ILE94       0.0022
     15  CD1       44.4660   -5.6300    9.5640 C.3    94  ILE94       0.0001
     16  N         46.5620    4.0410    6.1070 N.3   104  ARG104     -0.1231
     17  CA        45.1360    3.9480    6.2860 C.3   104  ARG104      0.1694
     18  C         44.7590    2.7680    7.2090 C.2   104  ARG104      0.2592
     19  O         45.2400    1.6780    7.0170 O.2   104  ARG104     -0.2718
     20  CB        44.4500    3.7430    4.9220 C.3   104  ARG104      0.0321
     21  CG        42.9170    3.8270    4.9730 C.3   104  ARG104      0.0489
     22  CD        42.3070    3.8250    3.5750 C.3   104  ARG104      0.2205
     23  NE        42.8560    4.9210    2.7570 N.pl3 104  ARG104     -0.0865
     24  CZ        42.5700    6.2120    2.9120 C.cat 104  ARG104      0.5346
     25  NH1       41.6540    6.6140    3.7930 N.pl3 104  ARG104      0.1354
     26  NH2       43.1500    7.1140    2.1320 N.pl3 104  ARG104      0.1354
     27  N         43.8630    3.0010    8.1630 N.am  105  ASP105     -0.1960
     28  CA        43.5090    2.0090    9.1780 C.3   105  ASP105      0.1825
     29  C         42.5390    2.6930   10.1080 C.2   105  ASP105      0.2464
     30  O         42.6710    3.8680   10.3750 O.2   105  ASP105     -0.2730
     31  CB        44.7650    1.5330    9.9820 C.3   105  ASP105      0.1450
     32  CG        45.1420    0.0310    9.7640 C.2   105  ASP105      0.3671
     33  OD1       44.4010   -0.7580    9.1220 O.co2 105  ASP105     -0.2456
     34  OD2       46.2420   -0.3810   10.2390 O.co2 105  ASP105     -0.2456
     35  N         41.6360    1.9300   10.7080 N.am  106  PRO106     -0.2727
     36  CA        41.0720    2.4010   12.0000 C.3   106  PRO106      0.1402
     37  C         42.1590    2.6320   13.0110 C.2   106  PRO106      0.2269
     38  O         43.2450    2.0470   12.9060 O.2   106  PRO106     -0.2865
     39  CB        40.1650    1.2320   12.4710 C.3   106  PRO106      0.0296
     40  CG        40.0300    0.3470   11.2960 C.3   106  PRO106      0.0237
     41  CD        41.2740    0.5290   10.4530 C.3   106  PRO106      0.0939
     42  N         33.6060   -3.6510   10.2040 N.3   131  PHE131     -0.1241
     43  CA        33.5120   -4.3250    8.9050 C.3   131  PHE131      0.1605
     44  C         32.5010   -5.4900    8.9280 C.2   131  PHE131      0.2264
     45  O         31.9640   -5.8570    7.8910 O.2   131  PHE131     -0.2867
     46  CB        34.8650   -4.9480    8.4960 C.3   131  PHE131      0.0534
     47  CG        36.0240   -3.9920    8.4500 C.ar  131  PHE131     -0.0203
     48  CD1       36.3050   -3.2580    7.3090 C.ar  131  PHE131     -0.0042
     49  CD2       36.8410   -3.8330    9.5480 C.ar  131  PHE131     -0.0042
     50  CE1       37.3940   -2.4030    7.2750 C.ar  131  PHE131     -0.0003
     51  CE2       37.9380   -2.9720    9.5340 C.ar  131  PHE131     -0.0003
     52  CZ        38.2250   -2.2730    8.3850 C.ar  131  PHE131     -0.0000
     53  N         43.4130   -8.7650    5.1690 N.3   145  LEU145     -0.1245
     54  CA        43.9580   -7.4180    5.2740 C.3   145  LEU145      0.1561
     55  C         45.4810   -7.4050    5.4710 C.2   145  LEU145      0.2260
     56  O         46.1860   -6.4790    5.0330 O.2   145  LEU145     -0.2867
     57  CB        43.2610   -6.6700    6.4360 C.3   145  LEU145      0.0270
     58  CG        41.8250   -6.1860    6.1840 C.3   145  LEU145      0.0019
     59  CD1       41.1530   -5.8590    7.4890 C.3   145  LEU145      0.0001
     60  CD2       41.8420   -4.9440    5.3030 C.3   145  LEU145      0.0001
     61  N         50.9710   -6.2080    1.8450 N.3   154  GLN154     -0.1245
     62  CA        49.5240   -6.1110    1.8000 C.3   154  GLN154      0.1566
     63  C         49.0620   -6.0070    0.3680 C.2   154  GLN154      0.2260
     64  O         49.6930   -5.3110   -0.4360 O.2   154  GLN154     -0.2867
     65  CB        49.0350   -4.8930    2.5950 C.3   154  GLN154      0.0367
     66  CG        47.5360   -4.6910    2.5770 C.3   154  GLN154      0.0905
     67  CD        47.1230   -3.5030    3.4210 C.2   154  GLN154      0.2608
     68  OE1       47.3900   -2.3580    3.0510 O.2   154  GLN154     -0.2717
     69  NE2       46.4090   -3.7490    4.5130 N.am  154  GLN154     -0.0878
     70  N         42.0870   -8.2360    0.3010 N.3   159  TYR159     -0.1241
     71  CA        41.0690   -7.7760    1.2270 C.3   159  TYR159      0.1605
     72  C         39.8020   -7.3230    0.5310 C.2   159  TYR159      0.2264
     73  O         38.7060   -7.5470    1.0730 O.2   159  TYR159     -0.2867
     74  CB        41.5640   -6.7010    2.2120 C.3   159  TYR159      0.0534
     75  CG        42.1550   -5.4170    1.6670 C.ar  159  TYR159     -0.0201
     76  CD1       41.3510   -4.3620    1.3040 C.ar  159  TYR159     -0.0009
     77  CD2       43.5290   -5.2040    1.7030 C.ar  159  TYR159     -0.0009
     78  CE1       41.9010   -3.1440    0.8990 C.ar  159  TYR159      0.0417
     79  CE2       44.0970   -4.0060    1.3160 C.ar  159  TYR159      0.0417
     80  CZ        43.2760   -2.9740    0.9000 C.ar  159  TYR159      0.1957
     81  OH        43.8530   -1.7940    0.5250 O.3   159  TYR159     -0.2866
     82  N         36.0600   -8.3980    1.4050 N.3   163  MET163     -0.1245
     83  CA        35.0960   -7.3740    1.7370 C.3   163  MET163      0.1570
     84  C         33.9050   -7.3980    0.7690 C.2   163  MET163      0.2261
     85  O         32.7510   -7.2680    1.2200 O.2   163  MET163     -0.2867
     86  CB        35.6990   -5.9750    1.7280 C.3   163  MET163      0.0387
     87  CG        36.7380   -5.7330    2.8360 C.3   163  MET163      0.0595
     88  SD        36.0970   -5.8900    4.5170 S.3   163  MET163     -0.1393
     89  CE        37.6420   -6.0550    5.4050 C.3   163  MET163      0.0692
     90  N         33.4950    0.7320    5.1240 N.3   173  LEU173     -0.1245
     91  CA        34.4160    1.1680    4.0420 C.3   173  LEU173      0.1561
     92  C         34.1520    2.5890    3.5690 C.2   173  LEU173      0.2260
     93  O         35.0500    3.3170    3.1790 O.2   173  LEU173     -0.2867
     94  CB        34.3690    0.1720    2.8810 C.3   173  LEU173      0.0270
     95  CG        34.7560   -1.2640    3.2830 C.3   173  LEU173      0.0019
     96  CD1       34.4410   -2.2750    2.1830 C.3   173  LEU173      0.0001
     97  CD2       36.2420   -1.3650    3.6340 C.3   173  LEU173      0.0001
     98  N         36.0370    4.5110    6.2260 N.3   176  LEU176     -0.1231
     99  CA        37.4670    4.2530    6.2290 C.3   176  LEU176      0.1693
    100  C         38.1550    4.9010    5.0360 C.2   176  LEU176      0.2592
    101  O         39.3440    5.2630    5.1330 O.2   176  LEU176     -0.2718
    102  CB        37.7440    2.7300    6.2480 C.3   176  LEU176      0.0284
    103  CG        39.2020    2.2930    6.2420 C.3   176  LEU176      0.0019
    104  CD1       39.9110    2.7340    7.5060 C.3   176  LEU176      0.0001
    105  CD2       39.2850    0.7930    6.1050 C.3   176  LEU176      0.0001
    106  N         37.4500    5.0020    3.8980 N.am  177  PHE177     -0.1976
    107  CA        38.0640    5.5980    2.6890 C.3   177  PHE177      0.1639
    108  C         37.7450    7.0540    2.5020 C.2   177  PHE177      0.2290
    109  O         38.1440    7.6440    1.4880 O.2   177  PHE177     -0.2864
    110  CB        37.7540    4.7610    1.4290 C.3   177  PHE177      0.0560
    111  CG        38.6400    3.5490    1.2960 C.ar  177  PHE177     -0.0200
    112  CD1       38.2860    2.3600    1.8880 C.ar  177  PHE177     -0.0042
    113  CD2       39.8200    3.6200    0.5950 C.ar  177  PHE177     -0.0042
    114  CE1       39.0970    1.2460    1.7780 C.ar  177  PHE177     -0.0003
    115  CE2       40.6500    2.5290    0.4810 C.ar  177  PHE177     -0.0003
    116  CZ        40.2810    1.3230    1.0610 C.ar  177  PHE177     -0.0000
    117  N         42.8440    2.5660   -4.5190 N.3   442  ASP442     -0.1239
    118  CA        42.8790    1.2410   -3.9100 C.3   442  ASP442      0.1674
    119  C         42.3260    0.1310   -4.7980 C.2   442  ASP442      0.2266
    120  O         42.7310   -1.0500   -4.6600 O.2   442  ASP442     -0.2867
    121  CB        42.0770    1.2330   -2.5930 C.3   442  ASP442      0.1410
    122  CG        42.7940    0.4800   -1.4870 C.2   442  ASP442      0.3668
    123  OD1       43.8820    0.9370   -1.1060 O.co2 442  ASP442     -0.2456
    124  OD2       42.2660   -0.5360   -1.0180 O.co2 442  ASP442     -0.2456
@<TRIPOS>BOND
     1   119   120    2
     2   119   118    1
     3   117   118    1
     4   118   121    1
     5   121   122    1
     6   122   123   ar
     7   122   124   ar
     8    64    63    2
     9    70    71    1
    10    63    62    1
    11   115   113   ar
    12   115   116   ar
    13    81    80    1
    14    72    73    2
    15    72    71    1
    16   113   111   ar
    17    84    85    2
    18    84    83    1
    19    78    80   ar
    20    78    76   ar
    21    80    79   ar
    22   116   114   ar
    23    71    74    1
    24   111   110    1
    25   111   112   ar
    26    76    75   ar
    27    79    77   ar
    28    82    83    1
    29   110   107    1
    30   109   108    2
    31    75    77   ar
    32    75    74    1
    33    86    83    1
    34    86    87    1
    35   114   112   ar
    36    62    61    1
    37    62    65    1
    38    26    24    1
    39    96    95    1
    40   108   107    1
    41    66    65    1
    42    66    67    1
    43   107   106    1
    44    23    24    2
    45    23    22    1
    46    87    88    1
    47    94    95    1
    48    94    91    1
    49    24    25    1
    50    68    67    2
    51    93    92    2
    52    95    97    1
    53    67    69   am
    54    92    91    1
    55    22    21    1
    56   106   100   am
    57    91    90    1
    58    88    89    1
    59    20    21    1
    60    20    17    1
    61    56    55    2
    62   100   101    2
    63   100    99    1
    64    53    54    1
    65    54    55    1
    66    54    57    1
    67    60    58    1
    68   105   103    1
    69    16    17    1
    70    58    57    1
    71    58    59    1
    72    98    99    1
    73    99   102    1
    74   103   102    1
    75   103   104    1
    76    17    18    1
    77    19    18    2
    78    18    27   am
    79    50    48   ar
    80    50    52   ar
    81    48    47   ar
    82    45    44    2
    83    27    28    1
    84    14    12    1
    85    52    51   ar
    86    47    46    1
    87    47    49   ar
    88    46    43    1
    89    43    44    1
    90    43    42    1
    91    33    32   ar
    92    12    13    1
    93    12     9    1
    94    13    15    1
    95    28    31    1
    96    28    29    1
    97    51    49   ar
    98    32    31    1
    99    32    34   ar
   100    29    30    2
   101    29    35   am
   102    41    35    1
   103    41    40    1
   104     9    10    1
   105     9     8    1
   106    10    11    2
   107    35    36    1
   108    40    39    1
   109     8     3   am
   110    36    39    1
   111    36    37    1
   112     3     2    1
   113     3     4    2
   114     5     6    1
   115     5     2    1
   116     5     7    1
   117    38    37    2
   118     1     2    1
