@<TRIPOS>MOLECULE
tmp/4qoqA01.pdb
 142 137 0 0 0
SMALL
GASTEIGER

@<TRIPOS>ATOM
      1  N         45.9840   -0.7150   12.8220 N.3    93  VAL93      -0.1231
      2  CA        45.4130   -2.0430   12.9200 C.3    93  VAL93       0.1692
      3  C         46.2340   -3.1890   12.2910 C.2    93  VAL93       0.2592
      4  O         46.5120   -4.1940   12.9480 O.2    93  VAL93      -0.2718
      5  CB        43.9780   -2.0960   12.3340 C.3    93  VAL93       0.0266
      6  CG1       43.4230   -3.5140   12.4490 C.3    93  VAL93       0.0020
      7  CG2       43.0500   -1.1420   13.0600 C.3    93  VAL93       0.0020
      8  N         46.5310   -3.0850   11.0240 N.am   94  ILE94      -0.1966
      9  CA        46.9050   -4.2440   10.2700 C.3    94  ILE94       0.1727
     10  C         48.4320   -4.5060   10.3070 C.2    94  ILE94       0.2616
     11  O         48.8360   -5.6660   10.4140 O.2    94  ILE94      -0.2715
     12  CB        46.3800   -4.1400    8.8190 C.3    94  ILE94       0.0290
     13  CG1       44.8580   -4.3390    8.8490 C.3    94  ILE94       0.0022
     14  CG2       46.9990   -5.1280    7.9020 C.3    94  ILE94       0.0023
     15  CD1       44.2960   -5.6860    9.3070 C.3    94  ILE94       0.0001
     16  N         49.2100   -3.4710   10.1230 N.am   95  HIS95      -0.1973
     17  CA        50.6520   -3.7490    9.9070 C.3    95  HIS95       0.1656
     18  C         51.3710   -3.8980   11.2150 C.2    95  HIS95       0.2291
     19  O         50.8280   -3.5650   12.3160 O.2    95  HIS95      -0.2864
     20  CB        51.2820   -2.7170    8.9700 C.3    95  HIS95       0.0771
     21  CG        50.7920   -2.8280    7.5600 C.ar   95  HIS95       0.0820
     22  ND1       51.4030   -3.6350    6.6170 N.ar   95  HIS95      -0.2267
     23  CD2       49.6860   -2.3310    6.9720 C.ar   95  HIS95       0.1154
     24  CE1       50.7390   -3.5370    5.4750 C.ar   95  HIS95       0.1986
     25  NE2       49.6860   -2.7860    5.6740 N.ar   95  HIS95      -0.2212
     26  N         49.4000    5.1270    7.2420 N.3   103  LEU103     -0.1231
     27  CA        48.6310    4.1760    6.4650 C.3   103  LEU103      0.1693
     28  C         47.1400    4.3130    6.6950 C.2   103  LEU103      0.2595
     29  O         46.7120    4.7560    7.7590 O.2   103  LEU103     -0.2718
     30  CB        49.0610    2.7480    6.8170 C.3   103  LEU103      0.0284
     31  CG        50.5770    2.4390    6.7260 C.3   103  LEU103      0.0019
     32  CD1       50.8400    0.9400    6.8990 C.3   103  LEU103      0.0001
     33  CD2       51.1100    2.8440    5.3640 C.3   103  LEU103      0.0001
     34  N         46.3490    3.9250    5.7210 N.am  104  ARG104     -0.1920
     35  CA        44.9080    3.8770    5.9020 C.3   104  ARG104      0.1945
     36  C         44.5130    2.6900    6.8300 C.2   104  ARG104      0.2659
     37  O         44.9830    1.5890    6.6290 O.2   104  ARG104     -0.2711
     38  CB        44.2330    3.7130    4.5400 C.2   104  ARG104      0.0033
     39  CG        42.7050    3.7040    4.5710 C.2   104  ARG104      0.0179
     40  CD        42.0080    3.7180    3.2050 C.3   104  ARG104      0.2464
     41  NE        42.5690    4.7990    2.3680 N.pl3 104  ARG104     -0.0815
     42  CZ        42.3090    6.0980    2.5060 C.cat 104  ARG104      0.5349
     43  NH1       41.3610    6.5600    3.3060 N.pl3 104  ARG104      0.1354
     44  NH2       42.9410    6.9480    1.7460 N.pl3 104  ARG104      0.1354
     45  N         43.6260    2.9290    7.8060 N.am  105  ASP105     -0.1955
     46  CA        43.2270    1.9170    8.7740 C.3   105  ASP105      0.1825
     47  C         42.2730    2.6190    9.7050 C.2   105  ASP105      0.2464
     48  O         42.4550    3.7970    9.9850 O.2   105  ASP105     -0.2730
     49  CB        44.4760    1.4370    9.6170 C.3   105  ASP105      0.1450
     50  CG        44.8720   -0.0390    9.4030 C.2   105  ASP105      0.3671
     51  OD1       44.1360   -0.8150    8.7230 O.co2 105  ASP105     -0.2456
     52  OD2       46.0200   -0.4430    9.8830 O.co2 105  ASP105     -0.2456
     53  N         41.3840    1.8410   10.3470 N.am  106  PRO106     -0.2727
     54  CA        40.8200    2.3540   11.6140 C.3   106  PRO106      0.1402
     55  C         41.9580    2.6230   12.5800 C.2   106  PRO106      0.2269
     56  O         43.0560    2.0740   12.4090 O.2   106  PRO106     -0.2865
     57  CB        39.8920    1.2270   12.0890 C.3   106  PRO106      0.0296
     58  CG        39.6700    0.4030   10.8590 C.3   106  PRO106      0.0237
     59  CD        40.9330    0.4630   10.0910 C.3   106  PRO106      0.0939
     60  N         33.3380   -3.6560    9.8500 N.3   131  PHE131     -0.1241
     61  CA        33.2490   -4.3100    8.5560 C.3   131  PHE131      0.1605
     62  C         32.2790   -5.5150    8.5910 C.2   131  PHE131      0.2264
     63  O         31.7260   -5.8990    7.5930 O.2   131  PHE131     -0.2867
     64  CB        34.5950   -4.9310    8.1470 C.3   131  PHE131      0.0534
     65  CG        35.7600   -3.9830    8.1050 C.ar  131  PHE131     -0.0203
     66  CD1       36.5490   -3.7550    9.2390 C.ar  131  PHE131     -0.0042
     67  CD2       36.0800   -3.3320    6.9410 C.ar  131  PHE131     -0.0042
     68  CE1       37.6350   -2.8990    9.2000 C.ar  131  PHE131     -0.0003
     69  CE2       37.1880   -2.4710    6.8830 C.ar  131  PHE131     -0.0003
     70  CZ        37.9560   -2.2520    8.0160 C.ar  131  PHE131     -0.0000
     71  N         38.5870  -11.8900    7.8670 N.3   141  MET141     -0.1245
     72  CA        38.7150  -10.4990    7.5400 C.3   141  MET141      0.1570
     73  C         40.1670  -10.0540    7.7070 C.2   141  MET141      0.2261
     74  O         40.7550   -9.4410    6.8230 O.2   141  MET141     -0.2867
     75  CB        37.8000   -9.6480    8.4410 C.3   141  MET141      0.0387
     76  CG        37.7440   -8.2110    8.0360 C.3   141  MET141      0.0595
     77  SD        37.1450   -7.1980    9.4180 S.3   141  MET141     -0.1393
     78  CE        38.6730   -6.9590   10.3000 C.3   141  MET141      0.0692
     79  N         43.1640   -8.7550    4.8930 N.3   145  LEU145     -0.1245
     80  CA        43.7080   -7.4310    4.9910 C.3   145  LEU145      0.1561
     81  C         45.1860   -7.4190    5.2750 C.2   145  LEU145      0.2260
     82  O         45.9240   -6.5410    4.8030 O.2   145  LEU145     -0.2867
     83  CB        43.0230   -6.6830    6.1360 C.3   145  LEU145      0.0270
     84  CG        41.5800   -6.2070    5.8810 C.3   145  LEU145      0.0019
     85  CD1       40.8930   -5.8970    7.1810 C.3   145  LEU145      0.0001
     86  CD2       41.6690   -4.9280    5.0030 C.3   145  LEU145      0.0001
     87  N         50.7360   -6.2920    1.6540 N.3   154  GLN154     -0.1245
     88  CA        49.2650   -6.1900    1.5580 C.3   154  GLN154      0.1566
     89  C         48.8000   -6.1160    0.0980 C.2   154  GLN154      0.2260
     90  O         49.4240   -5.4370   -0.7180 O.2   154  GLN154     -0.2867
     91  CB        48.7980   -4.9710    2.3590 C.3   154  GLN154      0.0367
     92  CG        47.2940   -4.7550    2.3050 C.3   154  GLN154      0.0905
     93  CD        46.8930   -3.5810    3.1470 C.2   154  GLN154      0.2608
     94  OE1       47.1870   -2.4280    2.7880 O.2   154  GLN154     -0.2717
     95  NE2       46.2520   -3.8280    4.2700 N.am  154  GLN154     -0.0878
     96  N         41.8180   -8.3920    0.0730 N.3   159  TYR159     -0.1241
     97  CA        40.8390   -7.9100    0.9260 C.3   159  TYR159      0.1605
     98  C         39.6160   -7.4940    0.1940 C.2   159  TYR159      0.2264
     99  O         38.4920   -7.6290    0.7690 O.2   159  TYR159     -0.2867
    100  CB        41.3690   -6.8630    1.8950 C.3   159  TYR159      0.0534
    101  CG        41.9790   -5.5590    1.3870 C.ar  159  TYR159     -0.0201
    102  CD1       41.2000   -4.5200    0.9900 C.ar  159  TYR159     -0.0009
    103  CD2       43.3360   -5.3400    1.4900 C.ar  159  TYR159     -0.0009
    104  CE1       41.7400   -3.3140    0.5760 C.ar  159  TYR159      0.0417
    105  CE2       43.8790   -4.1570    1.0870 C.ar  159  TYR159      0.0417
    106  CZ        43.0670   -3.1310    0.6600 C.ar  159  TYR159      0.1957
    107  OH        43.6150   -1.9380    0.2770 O.3   159  TYR159     -0.2866
    108  N         33.3090    0.6260    4.7560 N.3   173  LEU173     -0.1245
    109  CA        34.2380    1.0180    3.6970 C.3   173  LEU173      0.1561
    110  C         33.9190    2.4510    3.2400 C.2   173  LEU173      0.2260
    111  O         34.8150    3.2100    2.8900 O.2   173  LEU173     -0.2867
    112  CB        34.2090    0.0140    2.5530 C.3   173  LEU173      0.0270
    113  CG        34.6340   -1.4210    2.9090 C.3   173  LEU173      0.0019
    114  CD1       34.2260   -2.3530    1.7900 C.3   173  LEU173      0.0001
    115  CD2       36.1350   -1.4660    3.1310 C.3   173  LEU173      0.0001
    116  N         35.8630    4.3480    5.8660 N.3   176  LEU176     -0.1231
    117  CA        37.2990    4.1040    5.8210 C.3   176  LEU176      0.1693
    118  C         37.9840    4.6570    4.5650 C.2   176  LEU176      0.2592
    119  O         39.1570    5.0650    4.6300 O.2   176  LEU176     -0.2718
    120  CB        37.5760    2.5990    5.8560 C.3   176  LEU176      0.0284
    121  CG        39.0380    2.1340    5.9040 C.3   176  LEU176      0.0019
    122  CD1       39.6850    2.6190    7.1750 C.3   176  LEU176      0.0001
    123  CD2       39.0420    0.5920    5.8540 C.3   176  LEU176      0.0001
    124  N         37.2690    4.7200    3.4500 N.am  177  PHE177     -0.1976
    125  CA        37.8180    5.3550    2.2910 C.3   177  PHE177      0.1639
    126  C         37.4830    6.8320    2.1070 C.2   177  PHE177      0.2290
    127  O         37.9540    7.4430    1.0970 O.2   177  PHE177     -0.2864
    128  CB        37.5140    4.5030    1.0270 C.3   177  PHE177      0.0560
    129  CG        38.3870    3.3000    0.9410 C.ar  177  PHE177     -0.0200
    130  CD1       39.6140    3.3640    0.3500 C.ar  177  PHE177     -0.0042
    131  CD2       38.0020    2.1240    1.5600 C.ar  177  PHE177     -0.0042
    132  CE1       40.4310    2.2700    0.2870 C.ar  177  PHE177     -0.0003
    133  CE2       38.8200    1.0290    1.5270 C.ar  177  PHE177     -0.0003
    134  CZ        40.0530    1.0890    0.9220 C.ar  177  PHE177     -0.0000
    135  N         42.5380    2.2450   -4.8570 N.3   442  ASP442     -0.1239
    136  CA        42.6210    0.9670   -4.1940 C.3   442  ASP442      0.1674
    137  C         42.1290   -0.1600   -5.0720 C.2   442  ASP442      0.2266
    138  O         42.5620   -1.3130   -4.9160 O.2   442  ASP442     -0.2867
    139  CB        41.8040    0.9880   -2.8720 C.3   442  ASP442      0.1410
    140  CG        42.5200    0.2820   -1.7500 C.2   442  ASP442      0.3668
    141  OD1       43.6350    0.7420   -1.3790 O.co2 442  ASP442     -0.2456
    142  OD2       41.9940   -0.7140   -1.2800 O.co2 442  ASP442     -0.2456
@<TRIPOS>BOND
     1   137   138    2
     2   137   136    1
     3   135   136    1
     4   136   139    1
     5   139   140    1
     6   140   141   ar
     7   140   142   ar
     8    90    89    2
     9    96    97    1
    10    89    88    1
    11    98    99    2
    12    98    97    1
    13   107   106    1
    14   132   130   ar
    15   132   134   ar
    16   130   129   ar
    17   104   106   ar
    18   104   102   ar
    19   106   105   ar
    20   134   133   ar
    21    97   100    1
    22   129   128    1
    23   129   131   ar
    24   102   101   ar
    25   128   125    1
    26   105   103   ar
    27   127   126    2
    28   101   103   ar
    29   101   100    1
    30   133   131   ar
    31    88    87    1
    32    88    91    1
    33    44    42    1
    34   114   113    1
    35   126   125    1
    36   125   124    1
    37    92    91    1
    38    92    93    1
    39    41    42    2
    40    41    40    1
    41    42    43    1
    42   112   113    1
    43   112   109    1
    44    94    93    2
    45   111   110    2
    46   113   115    1
    47    93    95   am
    48    40    39    1
    49   110   109    1
    50   124   118   am
    51   109   108    1
    52    38    39    2
    53    38    35    1
    54   118   119    2
    55   118   117    1
    56    82    81    2
    57    79    80    1
    58    80    81    1
    59    80    83    1
    60    86    84    1
    61    33    31    1
    62    24    25   ar
    63    24    22   ar
    64    25    23   ar
    65    34    35    1
    66    34    28   am
    67   117   120    1
    68   117   116    1
    69   123   121    1
    70   120   121    1
    71    84    83    1
    72    84    85    1
    73    35    36    1
    74   121   122    1
    75    27    28    1
    76    27    30    1
    77    27    26    1
    78    22    21   ar
    79    37    36    2
    80    28    29    2
    81    31    30    1
    82    31    32    1
    83    74    73    2
    84    36    45   am
    85    69    67   ar
    86    69    70   ar
    87    67    65   ar
    88    23    21   ar
    89    72    73    1
    90    72    71    1
    91    72    75    1
    92    21    20    1
    93    63    62    2
    94    45    46    1
    95    14    12    1
    96    70    68   ar
    97    76    75    1
    98    76    77    1
    99    65    64    1
   100    65    66   ar
   101    64    61    1
   102    61    62    1
   103    61    60    1
   104    51    50   ar
   105    46    49    1
   106    46    47    1
   107    12    13    1
   108    12     9    1
   109    13    15    1
   110    20    17    1
   111    68    66   ar
   112    50    49    1
   113    50    52   ar
   114    77    78    1
   115    47    48    2
   116    47    53   am
   117    17    16    1
   118    17    18    1
   119    59    53    1
   120    59    58    1
   121    16    10   am
   122     9    10    1
   123     9     8    1
   124    10    11    2
   125    53    54    1
   126    58    57    1
   127     8     3   am
   128    18    19    2
   129    54    57    1
   130    54    55    1
   131     3     2    1
   132     3     4    2
   133     5     6    1
   134     5     2    1
   135     5     7    1
   136    56    55    2
   137     1     2    1
