@<TRIPOS>MOLECULE
tmp/4qorD01.pdb
 131 127 0 0 0
SMALL
GASTEIGER

@<TRIPOS>ATOM
      1  N         67.7350   -2.6340   12.9980 N.3    94  ILE94      -0.1245
      2  CA        67.3620   -2.0510   14.2860 C.3    94  ILE94       0.1561
      3  C         65.8430   -2.0880   14.5040 C.2    94  ILE94       0.2260
      4  O         65.3740   -2.4170   15.5980 O.2    94  ILE94      -0.2867
      5  CB        67.9370   -0.6310   14.3960 C.3    94  ILE94       0.0252
      6  CG1       69.4740   -0.7030   14.5780 C.3    94  ILE94       0.0019
      7  CG2       67.3480    0.0950   15.5940 C.3    94  ILE94       0.0019
      8  CD1       69.9170   -1.4250   15.8590 C.3    94  ILE94       0.0001
      9  N         68.5560    3.9780    7.1970 N.3   104  ARG104     -0.1231
     10  CA        69.9740    3.6890    7.3260 C.3   104  ARG104      0.1694
     11  C         70.1980    2.5150    8.2740 C.2   104  ARG104      0.2592
     12  O         69.5860    2.4610    9.3500 O.2   104  ARG104     -0.2718
     13  CB        70.7280    4.9410    7.7990 C.3   104  ARG104      0.0321
     14  CG        72.2580    4.7850    7.8450 C.3   104  ARG104      0.0489
     15  CD        72.9780    6.1360    8.0920 C.3   104  ARG104      0.2205
     16  NE        72.5170    7.1810    7.2110 N.pl3 104  ARG104     -0.0865
     17  CZ        72.8950    7.3140    5.9280 C.cat 104  ARG104      0.5346
     18  NH1       73.8170    6.5250    5.3940 N.pl3 104  ARG104      0.1354
     19  NH2       72.3480    8.2620    5.1860 N.pl3 104  ARG104      0.1354
     20  N         71.0630    1.5860    7.8830 N.am  105  ASP105     -0.1960
     21  CA        71.3620    0.3930    8.6930 C.3   105  ASP105      0.1825
     22  C         72.3290   -0.4260    7.8290 C.2   105  ASP105      0.2464
     23  O         72.1630   -0.4540    6.6040 O.2   105  ASP105     -0.2730
     24  CB        70.0860   -0.4520    8.9310 C.3   105  ASP105      0.1450
     25  CG        69.6300   -0.5170   10.4010 C.2   105  ASP105      0.3671
     26  OD1       70.2980    0.0080   11.3190 O.co2 105  ASP105     -0.2456
     27  OD2       68.5130   -1.0520   10.6250 O.co2 105  ASP105     -0.2456
     28  N         73.2000   -1.2330    8.4470 N.am  106  PRO106     -0.2727
     29  CA        73.6990   -2.4080    7.7540 C.3   106  PRO106      0.1402
     30  C         72.5820   -3.2690    7.2860 C.2   106  PRO106      0.2269
     31  O         71.4730   -3.2200    7.8490 O.2   106  PRO106     -0.2865
     32  CB        74.4950   -3.1710    8.8460 C.3   106  PRO106      0.0296
     33  CG        74.7170   -2.1670    9.9180 C.3   106  PRO106      0.0237
     34  CD        73.5340   -1.2580    9.8950 C.3   106  PRO106      0.0939
     35  N         81.0210   -2.4020   14.3510 N.3   131  PHE131     -0.1241
     36  CA        81.1880   -1.2580   15.2370 C.3   131  PHE131      0.1605
     37  C         82.0790   -1.5830   16.4390 C.2   131  PHE131      0.2264
     38  O         82.6080   -0.6700   17.0710 O.2   131  PHE131     -0.2867
     39  CB        79.8330   -0.8090   15.8410 C.3   131  PHE131      0.0534
     40  CG        78.7490   -0.5330   14.8470 C.ar  131  PHE131     -0.0203
     41  CD1       77.8960   -1.5680   14.4310 C.ar  131  PHE131     -0.0042
     42  CD2       78.4850    0.7480   14.4450 C.ar  131  PHE131     -0.0042
     43  CE1       76.8420   -1.3310   13.5480 C.ar  131  PHE131     -0.0003
     44  CE2       77.4210    1.0020   13.5580 C.ar  131  PHE131     -0.0003
     45  CZ        76.6090   -0.0390   13.1220 C.ar  131  PHE131     -0.0000
     46  N         71.1170    2.1040   19.9330 N.3   145  LEU145     -0.1245
     47  CA        70.5610    2.3090   18.5680 C.3   145  LEU145      0.1561
     48  C         69.0670    2.1650   18.4950 C.2   145  LEU145      0.2260
     49  O         68.3950    2.8210   17.6900 O.2   145  LEU145     -0.2867
     50  CB        71.2060    1.2830   17.6330 C.3   145  LEU145      0.0270
     51  CG        72.6880    1.5720   17.3290 C.3   145  LEU145      0.0019
     52  CD1       73.3610    0.3430   16.7440 C.3   145  LEU145      0.0001
     53  CD2       72.7430    2.6900   16.3200 C.3   145  LEU145      0.0001
     54  N         63.8450    6.2260   17.8090 N.3   154  GLN154     -0.1245
     55  CA        65.2800    6.1480   17.8000 C.3   154  GLN154      0.1566
     56  C         65.8190    7.5540   18.0200 C.2   154  GLN154      0.2260
     57  O         65.2620    8.4890   17.5010 O.2   154  GLN154     -0.2867
     58  CB        65.7650    5.5730   16.4840 C.3   154  GLN154      0.0367
     59  CG        67.2900    5.6100   16.3290 C.3   154  GLN154      0.0905
     60  CD        67.7370    4.9690   15.0250 C.2   154  GLN154      0.2608
     61  OE1       67.5010    5.5370   13.9610 O.2   154  GLN154     -0.2717
     62  NE2       68.3070    3.7840   15.0930 N.am  154  GLN154     -0.0878
     63  N         72.6510    6.8100   20.5130 N.3   159  TYR159     -0.1227
     64  CA        73.6260    5.9560   19.9210 C.3   159  TYR159      0.1736
     65  C         74.9520    6.6820   19.6790 C.2   159  TYR159      0.2595
     66  O         76.0160    6.0560   19.7470 O.2   159  TYR159     -0.2718
     67  CB        73.1210    5.2330   18.6930 C.3   159  TYR159      0.0548
     68  CG        72.6200    6.0330   17.5120 C.ar  159  TYR159     -0.0200
     69  CD1       73.4990    6.6490   16.6190 C.ar  159  TYR159     -0.0009
     70  CD2       71.2570    6.1030   17.2360 C.ar  159  TYR159     -0.0009
     71  CE1       73.0390    7.3210   15.5130 C.ar  159  TYR159      0.0417
     72  CE2       70.7830    6.7820   16.1210 C.ar  159  TYR159      0.0417
     73  CZ        71.6740    7.4050   15.2740 C.ar  159  TYR159      0.1957
     74  OH        71.2030    8.0710   14.1820 O.3   159  TYR159     -0.2866
     75  N         74.9070    7.9780   19.4290 N.am  160  TRP160     -0.1976
     76  CA        76.1530    8.7530   19.3490 C.3   160  TRP160      0.1640
     77  C         76.9090    8.8550   20.6690 C.2   160  TRP160      0.2290
     78  O         78.1330    8.7940   20.6210 O.2   160  TRP160     -0.2864
     79  CB        75.9710   10.1370   18.6960 C.3   160  TRP160      0.0576
     80  CG        75.8700   10.0520   17.2030 C.ar  160  TRP160      0.0006
     81  CD1       74.7370   10.1710   16.4310 C.ar  160  TRP160      0.0946
     82  CD2       76.9330    9.7960   16.3050 C.ar  160  TRP160      0.0152
     83  NE1       75.0520   10.0340   15.1300 N.ar  160  TRP160     -0.2442
     84  CE2       76.3950    9.7760   15.0250 C.ar  160  TRP160      0.0810
     85  CE3       78.2990    9.5620   16.4680 C.ar  160  TRP160      0.0012
     86  CZ2       77.1690    9.5560   13.8950 C.ar  160  TRP160      0.0191
     87  CZ3       79.0590    9.3510   15.3550 C.ar  160  TRP160      0.0001
     88  CH2       78.4970    9.3590   14.0810 C.ar  160  TRP160      0.0015
     89  N         78.5560    5.3640   20.6720 N.3   163  MET163     -0.1245
     90  CA        79.5810    5.2290   19.6250 C.3   163  MET163      0.1570
     91  C         80.8060    6.0930   19.8880 C.2   163  MET163      0.2261
     92  O         81.9410    5.5970   19.7230 O.2   163  MET163     -0.2867
     93  CB        79.0520    5.5340   18.2240 C.3   163  MET163      0.0387
     94  CG        77.9760    4.5880   17.7420 C.3   163  MET163      0.0595
     95  SD        78.4970    2.9000   17.5250 S.3   163  MET163     -0.1393
     96  CE        76.9530    2.0970   17.2120 C.3   163  MET163      0.0692
     97  N         81.4430    3.4350   11.2100 N.3   173  LEU173     -0.1245
     98  CA        80.6450    4.6070   10.9240 C.3   173  LEU173      0.1561
     99  C         81.0440    5.2800    9.6030 C.2   173  LEU173      0.2260
    100  O         80.2080    5.8920    8.9040 O.2   173  LEU173     -0.2867
    101  CB        80.7290    5.5710   12.1070 C.3   173  LEU173      0.0270
    102  CG        80.1860    4.9880   13.3940 C.3   173  LEU173      0.0019
    103  CD1       80.5660    5.8410   14.5870 C.3   173  LEU173      0.0001
    104  CD2       78.6830    4.8450   13.4020 C.3   173  LEU173      0.0001
    105  N         79.1130    3.3190    7.1550 N.3   176  LEU176     -0.1231
    106  CA        77.6540    3.3190    7.3190 C.3   176  LEU176      0.1693
    107  C         77.0510    4.6910    6.9780 C.2   176  LEU176      0.2592
    108  O         75.8910    4.7820    6.5680 O.2   176  LEU176     -0.2718
    109  CB        77.2860    2.9470    8.7590 C.3   176  LEU176      0.0284
    110  CG        75.7830    2.9020    9.0720 C.3   176  LEU176      0.0019
    111  CD1       75.0850    1.7630    8.3920 C.3   176  LEU176      0.0001
    112  CD2       75.6380    2.7970   10.5820 C.3   176  LEU176      0.0001
    113  N         77.8560    5.7560    7.1120 N.am  177  PHE177     -0.1976
    114  CA        77.3910    7.0930    6.7560 C.3   177  PHE177      0.1639
    115  C         77.7920    7.5760    5.3600 C.2   177  PHE177      0.2290
    116  O         77.3750    8.6540    4.9400 O.2   177  PHE177     -0.2864
    117  CB        77.7490    8.0790    7.8520 C.3   177  PHE177      0.0560
    118  CG        76.7840    8.0160    9.0050 C.ar  177  PHE177     -0.0200
    119  CD1       75.5830    8.7080    8.9540 C.ar  177  PHE177     -0.0042
    120  CD2       77.0840    7.2550   10.1170 C.ar  177  PHE177     -0.0042
    121  CE1       74.6930    8.6410    9.9850 C.ar  177  PHE177     -0.0003
    122  CE2       76.1900    7.1710   11.1650 C.ar  177  PHE177     -0.0003
    123  CZ        74.9730    7.8560   11.0920 C.ar  177  PHE177     -0.0000
    124  N         72.8280   13.6980   11.0270 N.3   442  ASP442     -0.1239
    125  CA        72.6950   12.8290   12.1920 C.3   442  ASP442      0.1674
    126  C         73.1690   13.4480   13.4850 C.2   442  ASP442      0.2266
    127  O         72.5870   13.1820   14.5460 O.2   442  ASP442     -0.2867
    128  CB        73.4340   11.4950   11.9810 C.3   442  ASP442      0.1410
    129  CG        72.5890   10.3080   12.3640 C.2   442  ASP442      0.3668
    130  OD1       71.5190   10.1380   11.7660 O.co2 442  ASP442     -0.2456
    131  OD2       72.9700    9.5850   13.2930 O.co2 442  ASP442     -0.2456
@<TRIPOS>BOND
     1   116   115    2
     2    19    17    1
     3   115   114    1
     4    18    17    1
     5    17    16    2
     6   108   107    2
     7    23    22    2
     8   114   113    1
     9   114   117    1
    10   107   113   am
    11   107   106    1
    12   105   106    1
    13     9    10    1
    14    16    15    1
    15    30    29    1
    16    30    31    2
    17   106   109    1
    18    10    13    1
    19    10    11    1
    20    29    28    1
    21    29    32    1
    22    13    14    1
    23    22    28   am
    24    22    21    1
    25    14    15    1
    26   117   118    1
    27    20    11   am
    28    20    21    1
    29    11    12    2
    30   111   110    1
    31    28    34    1
    32    21    24    1
    33   109   110    1
    34    32    33    1
    35   100    99    2
    36    24    25    1
    37   119   118   ar
    38   119   121   ar
    39   118   120   ar
    40   110   112    1
    41    99    98    1
    42    34    33    1
    43   121   123   ar
    44   120   122   ar
    45    25    27   ar
    46    25    26   ar
    47    98    97    1
    48    98   101    1
    49   124   125    1
    50   123   122   ar
    51   130   129   ar
    52   128   125    1
    53   128   129    1
    54   101   102    1
    55   125   126    1
    56   129   131   ar
    57     1     2    1
    58    45    43   ar
    59    45    44   ar
    60   102   104    1
    61   102   103    1
    62   126   127    2
    63    43    41   ar
    64    44    42   ar
    65    86    88   ar
    66    86    84   ar
    67    61    60    2
    68    88    87   ar
    69    74    73    1
    70     2     5    1
    71     2     3    1
    72    35    36    1
    73     5     6    1
    74     5     7    1
    75    41    40   ar
    76    42    40   ar
    77     3     4    2
    78     6     8    1
    79    40    39    1
    80    60    62   am
    81    60    59    1
    82    84    83   ar
    83    84    82   ar
    84    83    81   ar
    85    36    39    1
    86    36    37    1
    87    73    71   ar
    88    73    72   ar
    89    87    85   ar
    90    71    69   ar
    91    72    70   ar
    92    82    85   ar
    93    82    80   ar
    94    53    51    1
    95    59    58    1
    96    81    80   ar
    97    37    38    2
    98    58    55    1
    99    69    68   ar
   100    52    51    1
   101    80    79    1
   102    96    95    1
   103    70    68   ar
   104    51    50    1
   105    57    56    2
   106    68    67    1
   107    95    94    1
   108    50    47    1
   109    49    48    2
   110    94    93    1
   111    55    54    1
   112    55    56    1
   113    93    90    1
   114    48    47    1
   115    47    46    1
   116    67    64    1
   117    79    76    1
   118    76    75    1
   119    76    77    1
   120    75    65   am
   121    90    91    1
   122    90    89    1
   123    65    66    2
   124    65    64    1
   125    92    91    2
   126    64    63    1
   127    78    77    2
