@<TRIPOS>MOLECULE
tmp/4qoxA00.pdb
 148 137 0 0 0
SMALL
GASTEIGER

@<TRIPOS>ATOM
      1  N         36.8150  -17.3660    3.7820 N.3    26  LEU26      -0.1231
      2  CA        37.0790  -16.7620    2.4830 C.3    26  LEU26       0.1693
      3  C         37.4710  -15.2940    2.6280 C.2    26  LEU26       0.2593
      4  O         38.0750  -14.7120    1.7260 O.2    26  LEU26      -0.2718
      5  CB        35.8550  -16.8980    1.5750 C.3    26  LEU26       0.0284
      6  CG        35.3450  -18.3210    1.3360 C.3    26  LEU26       0.0019
      7  CD1       34.1440  -18.3130    0.4010 C.3    26  LEU26       0.0001
      8  CD2       36.4560  -19.2000    0.7830 C.3    26  LEU26       0.0001
      9  N         37.1280  -14.7020    3.7670 N.am   27  GLY27      -0.1942
     10  CA        37.4510  -13.3120    4.0350 C.3    27  GLY27       0.2014
     11  C         36.3540  -12.5970    4.8000 C.2    27  GLY27       0.2639
     12  O         35.5270  -13.2330    5.4530 O.2    27  GLY27      -0.2714
     13  N         36.3480  -11.2700    4.7230 N.am   28  LYS28      -0.1963
     14  CA        35.3100  -10.4770    5.3710 C.3    28  LYS28       0.1728
     15  C         34.6280   -9.5430    4.3750 C.2    28  LYS28       0.2616
     16  O         35.2800   -8.9500    3.5140 O.2    28  LYS28      -0.2715
     17  CB        35.8910   -9.6720    6.5400 C.3    28  LYS28       0.0311
     18  CG        35.4520   -8.2130    6.5750 C.3    28  LYS28       0.0038
     19  CD        35.6990   -7.5680    7.9280 C.3    28  LYS28       0.0206
     20  CE        34.7840   -6.3680    8.1300 C.3    28  LYS28       0.1093
     21  NZ        34.8320   -5.8460    9.5230 N.3    28  LYS28      -0.1314
     22  N         33.3100   -9.4270    4.4950 N.am   29  GLY29      -0.1955
     23  CA        32.5400   -8.5260    3.6590 C.3    29  GLY29       0.1869
     24  C         31.7490   -7.5430    4.4990 C.2    29  GLY29       0.2309
     25  O         32.1280   -7.2330    5.6290 O.2    29  GLY29      -0.2863
     26  N         32.7770  -14.0020    5.8740 N.3    34  VAL34      -0.1245
     27  CA        32.2770  -15.0520    4.9940 C.3    34  VAL34       0.1561
     28  C         33.0570  -16.3450    5.2020 C.2    34  VAL34       0.2260
     29  O         34.2880  -16.3460    5.1870 O.2    34  VAL34      -0.2867
     30  CB        32.3630  -14.6390    3.5150 C.3    34  VAL34       0.0252
     31  CG1       31.8400  -15.7490    2.6150 C.3    34  VAL34       0.0019
     32  CG2       31.5980  -13.3480    3.2810 C.3    34  VAL34       0.0019
     33  N         28.8480  -20.4120    0.5570 N.3    47  ALA47      -0.1245
     34  CA        29.4610  -19.2940    1.2700 C.3    47  ALA47       0.1562
     35  C         28.4730  -18.7500    2.2970 C.2    47  ALA47       0.2260
     36  O         27.3230  -18.4670    1.9670 O.2    47  ALA47      -0.2867
     37  CB        29.8910  -18.2010    0.3030 C.3    47  ALA47       0.0290
     38  N         27.8180  -15.7830    5.1280 N.3    49  LYS49      -0.1245
     39  CA        28.1820  -14.5270    5.7690 C.3    49  LYS49       0.1561
     40  C         27.6750  -14.5210    7.2020 C.2    49  LYS49       0.2260
     41  O         26.4780  -14.6700    7.4510 O.2    49  LYS49      -0.2867
     42  CB        27.6250  -13.3300    4.9970 C.3    49  LYS49       0.0271
     43  CG        27.9280  -11.9880    5.6390 C.3    49  LYS49       0.0035
     44  CD        27.7890  -10.8500    4.6400 C.3    49  LYS49       0.0206
     45  CE        28.9160  -10.8750    3.6190 C.3    49  LYS49       0.1093
     46  NZ        28.8530   -9.7230    2.6780 N.3    49  LYS49      -0.1314
     47  N         24.0310  -12.1350   -6.8760 N.3    81  MET81      -0.1245
     48  CA        24.3860  -13.1770   -5.9190 C.3    81  MET81       0.1570
     49  C         23.1660  -13.9690   -5.4600 C.2    81  MET81       0.2261
     50  O         22.1690  -13.3980   -5.0190 O.2    81  MET81      -0.2867
     51  CB        25.0940  -12.5680   -4.7080 C.3    81  MET81       0.0387
     52  CG        25.2440  -13.5200   -3.5350 C.3    81  MET81       0.0595
     53  SD        24.9280  -12.7070   -1.9580 S.3    81  MET81      -0.1393
     54  CE        23.1620  -12.4270   -2.0610 C.3    81  MET81       0.0692
     55  N         20.9280  -16.1850   -3.0680 N.3    83  LEU83      -0.1245
     56  CA        20.7470  -16.3910   -1.6360 C.3    83  LEU83       0.1561
     57  C         19.8960  -17.6310   -1.3880 C.2    83  LEU83       0.2260
     58  O         18.7280  -17.6800   -1.7740 O.2    83  LEU83      -0.2867
     59  CB        20.1010  -15.1680   -0.9840 C.3    83  LEU83       0.0270
     60  CG        19.9730  -15.2270    0.5400 C.3    83  LEU83       0.0019
     61  CD1       21.3470  -15.2450    1.1960 C.3    83  LEU83       0.0001
     62  CD2       19.1420  -14.0670    1.0640 C.3    83  LEU83       0.0001
     63  N         23.6480  -15.8780    6.4800 N.3    95  LEU95      -0.1245
     64  CA        23.1820  -15.7780    5.1060 C.3    95  LEU95       0.1561
     65  C         23.9410  -16.7680    4.2350 C.2    95  LEU95       0.2260
     66  O         25.1660  -16.7170    4.1510 O.2    95  LEU95      -0.2867
     67  CB        23.3560  -14.3520    4.5820 C.3    95  LEU95       0.0270
     68  CG        22.4640  -13.2990    5.2400 C.3    95  LEU95       0.0019
     69  CD1       22.9040  -11.9020    4.8450 C.3    95  LEU95       0.0001
     70  CD2       21.0110  -13.5290    4.8630 C.3    95  LEU95       0.0001
     71  N         24.9270  -18.2790    0.6610 N.3    97  SER97      -0.1202
     72  CA        25.0050  -17.9060   -0.7460 C.3    97  SER97       0.2020
     73  C         25.9230  -18.8420   -1.5240 C.2    97  SER97       0.2619
     74  O         26.3870  -19.8520   -0.9950 O.2    97  SER97      -0.2717
     75  CB        25.4920  -16.4620   -0.8890 C.3    97  SER97       0.2103
     76  OG        26.7690  -16.2900   -0.2940 O.3    97  SER97      -0.2182
     77  N         26.1780  -18.4990   -2.7830 N.am   98  ASP98      -0.1959
     78  CA        27.0990  -19.2650   -3.6150 C.3    98  ASP98       0.1840
     79  C         28.5450  -18.8820   -3.3480 C.2    98  ASP98       0.2622
     80  O         28.8270  -17.8410   -2.7560 O.2    98  ASP98      -0.2715
     81  CB        26.7890  -19.0700   -5.1000 C.3    98  ASP98       0.1450
     82  CG        25.9320  -20.1800   -5.6660 C.2    98  ASP98       0.3671
     83  OD1       25.9320  -21.2870   -5.0880 O.co2  98  ASP98      -0.2456
     84  OD2       25.2800  -19.9560   -6.7050 O.co2  98  ASP98      -0.2456
     85  N         29.4570  -19.7350   -3.7990 N.am   99  VAL99      -0.1963
     86  CA        30.8830  -19.4840   -3.6600 C.3    99  VAL99       0.1727
     87  C         31.4520  -18.9070   -4.9500 C.2    99  VAL99       0.2616
     88  O         31.4360  -19.5630   -5.9930 O.2    99  VAL99      -0.2715
     89  CB        31.6450  -20.7690   -3.3010 C.3    99  VAL99       0.0290
     90  CG1       33.1090  -20.4590   -3.0310 C.3    99  VAL99       0.0023
     91  CG2       31.0040  -21.4420   -2.1020 C.3    99  VAL99       0.0023
     92  N         31.9500  -17.6780   -4.8790 N.am  100  TYR100     -0.1974
     93  CA        32.5540  -17.0380   -6.0410 C.3   100  TYR100      0.1639
     94  C         34.0610  -16.9100   -5.8540 C.2   100  TYR100      0.2290
     95  O         34.5320  -16.1660   -4.9940 O.2   100  TYR100     -0.2864
     96  CB        31.9210  -15.6690   -6.2910 C.3   100  TYR100      0.0560
     97  CG        30.4100  -15.6980   -6.2760 C.ar  100  TYR100     -0.0198
     98  CD1       29.7010  -16.4550   -7.2010 C.ar  100  TYR100     -0.0009
     99  CD2       29.6920  -14.9700   -5.3390 C.ar  100  TYR100     -0.0009
    100  CE1       28.3200  -16.4870   -7.1890 C.ar  100  TYR100      0.0417
    101  CE2       28.3100  -14.9950   -5.3180 C.ar  100  TYR100      0.0417
    102  CZ        27.6290  -15.7550   -6.2460 C.ar  100  TYR100      0.1957
    103  OH        26.2540  -15.7840   -6.2300 O.3   100  TYR100     -0.2866
    104  N         36.7630  -12.9560   -7.1380 N.3   103  GLY103     -0.1210
    105  CA        37.3500  -11.8550   -6.3990 C.3   103  GLY103      0.1956
    106  C         36.7530  -10.5310   -6.8310 C.2   103  GLY103      0.2611
    107  O         35.8450  -10.4980   -7.6610 O.2   103  GLY103     -0.2717
    108  N         37.2630   -9.4370   -6.2740 N.am  104  GLU104     -0.1979
    109  CA        36.7350   -8.1100   -6.5730 C.3   104  GLU104      0.1602
    110  C         36.9860   -7.7100   -8.0240 C.2   104  GLU104      0.2287
    111  O         37.8940   -8.2290   -8.6750 O.2   104  GLU104     -0.2864
    112  CB        37.3410   -7.0700   -5.6280 C.3   104  GLU104      0.0415
    113  CG        37.0040   -7.3000   -4.1630 C.3   104  GLU104      0.1163
    114  CD        37.6110   -6.2510   -3.2520 C.2   104  GLU104      0.3649
    115  OE1       37.5070   -6.4030   -2.0160 O.co2 104  GLU104     -0.2457
    116  OE2       38.1920   -5.2740   -3.7700 O.co2 104  GLU104     -0.2457
    117  N         31.7570   -8.6760   -7.4760 N.3   150  LEU150     -0.1245
    118  CA        32.7250   -9.7570   -7.6110 C.3   150  LEU150      0.1561
    119  C         32.6370  -10.4320   -8.9740 C.2   150  LEU150      0.2260
    120  O         31.8350  -10.0460   -9.8250 O.2   150  LEU150     -0.2867
    121  CB        32.5200  -10.8040   -6.5140 C.3   150  LEU150      0.0270
    122  CG        32.5860  -10.3500   -5.0550 C.3   150  LEU150      0.0019
    123  CD1       32.3090  -11.5250   -4.1280 C.3   150  LEU150      0.0001
    124  CD2       33.9320   -9.7200   -4.7410 C.3   150  LEU150      0.0001
    125  N         26.9450   -8.4560   -5.0300 N.3   163  ILE163     -0.1231
    126  CA        26.6830   -9.0470   -3.7240 C.3   163  ILE163      0.1692
    127  C         26.0910   -8.0260   -2.7570 C.2   163  ILE163      0.2592
    128  O         26.0210   -6.8370   -3.0700 O.2   163  ILE163     -0.2718
    129  CB        27.9680   -9.6190   -3.1140 C.3   163  ILE163      0.0266
    130  CG1       28.9320   -8.4760   -2.7900 C.3   163  ILE163      0.0019
    131  CG2       28.6050  -10.6240   -4.0640 C.3   163  ILE163      0.0020
    132  CD1       30.3540   -8.8950   -2.5000 C.3   163  ILE163      0.0001
    133  N         25.6720   -8.5040   -1.5860 N.am  164  ASP164     -0.1974
    134  CA        25.1290   -7.6550   -0.5230 C.3   164  ASP164      0.1709
    135  C         23.9330   -6.8260   -0.9820 C.2   164  ASP164      0.2293
    136  O         23.7190   -5.7160   -0.4960 O.2   164  ASP164     -0.2864
    137  CB        26.2160   -6.7250    0.0280 C.3   164  ASP164      0.1436
    138  CG        27.2910   -7.4700    0.7930 C.2   164  ASP164      0.3671
    139  OD1       26.9600   -8.4710    1.4600 O.co2 164  ASP164     -0.2456
    140  OD2       28.4680   -7.0550    0.7280 O.co2 164  ASP164     -0.2456
    141  N         20.8800   -5.8460    1.6930 N.3   167  LEU167     -0.1245
    142  CA        21.3090   -6.0410    3.0750 C.3   167  LEU167      0.1561
    143  C         21.3580   -4.7240    3.8420 C.2   167  LEU167      0.2260
    144  O         21.0790   -4.6840    5.0400 O.2   167  LEU167     -0.2867
    145  CB        22.6820   -6.7160    3.1230 C.3   167  LEU167      0.0270
    146  CG        22.7290   -8.2450    3.1610 C.3   167  LEU167      0.0019
    147  CD1       22.2830   -8.8450    1.8360 C.3   167  LEU167      0.0001
    148  CD2       24.1270   -8.7170    3.5250 C.3   167  LEU167      0.0001
@<TRIPOS>BOND
     1   120   119    2
     2   119   118    1
     3   111   110    2
     4   110   109    1
     5   107   106    2
     6   118   117    1
     7   118   121    1
     8    98   100   ar
     9    98    97   ar
    10   100   102   ar
    11   104   105    1
    12    47    48    1
    13   106   105    1
    14   106   108   am
    15    84    82   ar
    16   109   108    1
    17   109   112    1
    18   121   122    1
    19    96    97    1
    20    96    93    1
    21    97    99   ar
    22   102   103    1
    23   102   101   ar
    24    93    94    1
    25    93    92    1
    26    88    87    2
    27    48    49    1
    28    48    51    1
    29    94    95    2
    30    82    81    1
    31    82    83   ar
    32   112   113    1
    33    49    50    2
    34    99   101   ar
    35    81    78    1
    36   122   124    1
    37   122   123    1
    38   125   126    1
    39    87    92   am
    40    87    86    1
    41    51    52    1
    42   113   114    1
    43   131   129    1
    44    85    86    1
    45    85    79   am
    46   116   114   ar
    47   126   129    1
    48   126   127    1
    49    86    89    1
    50    78    79    1
    51    78    77    1
    52    52    53    1
    53    79    80    2
    54    89    90    1
    55    89    91    1
    56   114   115   ar
    57   129   130    1
    58   128   127    2
    59    55    56    1
    60   130   132    1
    61    77    73   am
    62   127   133   am
    63    54    53    1
    64    58    57    2
    65    56    57    1
    66    56    59    1
    67   133   134    1
    68    73    74    2
    69    73    72    1
    70    59    60    1
    71   135   134    1
    72   135   136    2
    73    75    72    1
    74    75    76    1
    75    72    71    1
    76   134   137    1
    77   137   138    1
    78    37    34    1
    79     7     6    1
    80    60    62    1
    81    60    61    1
    82    33    34    1
    83   140   138   ar
    84     8     6    1
    85   138   139   ar
    86    34    35    1
    87     6     5    1
    88     5     2    1
    89   141   142    1
    90     4     3    2
    91   147   146    1
    92    36    35    2
    93     2     3    1
    94     2     1    1
    95    31    30    1
    96     3     9   am
    97    46    45    1
    98   142   145    1
    99   142   143    1
   100   145   146    1
   101   146   148    1
   102    32    30    1
   103    16    15    2
   104    30    27    1
   105    45    44    1
   106    23    22    1
   107    23    24    1
   108     9    10    1
   109   143   144    2
   110    10    11    1
   111    66    65    2
   112    65    64    1
   113    15    22   am
   114    15    14    1
   115    24    25    2
   116    67    64    1
   117    67    68    1
   118    44    43    1
   119    13    11   am
   120    13    14    1
   121    11    12    2
   122    69    68    1
   123    70    68    1
   124    27    28    1
   125    27    26    1
   126    42    43    1
   127    42    39    1
   128    64    63    1
   129    38    39    1
   130    29    28    2
   131    14    17    1
   132    39    40    1
   133    17    18    1
   134    18    19    1
   135    40    41    2
   136    19    20    1
   137    20    21    1
