@<TRIPOS>MOLECULE
tmp/4qp1B00.pdb
 124 113 0 0 0
SMALL
GASTEIGER

@<TRIPOS>ATOM
      1  N         13.5750  -51.8130  -57.6910 N.3    20  ILE20      -0.1231
      2  CA        12.8300  -50.8710  -58.5160 C.3    20  ILE20       0.1692
      3  C         12.2810  -49.7300  -57.6660 C.2    20  ILE20       0.2593
      4  O         12.3330  -48.5650  -58.0620 O.2    20  ILE20      -0.2718
      5  CB        11.6510  -51.5540  -59.2320 C.3    20  ILE20       0.0266
      6  CG1       12.1090  -52.8310  -59.9370 C.3    20  ILE20       0.0019
      7  CG2       10.9990  -50.5980  -60.2200 C.3    20  ILE20       0.0020
      8  CD1       10.9770  -53.5850  -60.6050 C.3    20  ILE20       0.0001
      9  N         11.7510  -50.0750  -56.4970 N.am   21  GLY21      -0.1942
     10  CA        11.1650  -49.0930  -55.6040 C.3    21  GLY21       0.2014
     11  C         10.4920  -49.7360  -54.4080 C.2    21  GLY21       0.2639
     12  O         10.6630  -50.9280  -54.1540 O.2    21  GLY21      -0.2714
     13  N          9.7180  -48.9420  -53.6750 N.am   22  GLU22      -0.1963
     14  CA         9.0350  -49.4230  -52.4810 C.3    22  GLU22       0.1733
     15  C          7.6020  -48.9000  -52.4550 C.2    22  GLU22       0.2616
     16  O          7.3720  -47.7110  -52.2360 O.2    22  GLU22      -0.2715
     17  CB         9.7940  -48.9780  -51.2300 C.3    22  GLU22       0.0429
     18  CG         9.8520  -50.0200  -50.1260 C.3    22  GLU22       0.1163
     19  CD        11.1650  -49.9830  -49.3670 C.2    22  GLU22       0.3649
     20  OE1       12.1730  -49.5260  -49.9470 O.co2  22  GLU22      -0.2457
     21  OE2       11.1910  -50.4090  -48.1920 O.co2  22  GLU22      -0.2457
     22  N          6.6440  -49.7940  -52.6820 N.am   23  GLY23      -0.1955
     23  CA         5.2510  -49.4050  -52.8250 C.3    23  GLY23       0.1869
     24  C          4.3780  -49.6700  -51.6130 C.2    23  GLY23       0.2309
     25  O          4.6660  -49.1950  -50.5140 O.2    23  GLY23      -0.2863
     26  N          9.9230  -53.8470  -54.2770 N.3    28  VAL28      -0.1245
     27  CA         9.6650  -54.4440  -55.5820 C.3    28  VAL28       0.1561
     28  C         10.9630  -54.6120  -56.3660 C.2    28  VAL28       0.2260
     29  O         11.7160  -53.6540  -56.5480 O.2    28  VAL28      -0.2867
     30  CB         8.6810  -53.5930  -56.4040 C.3    28  VAL28       0.0252
     31  CG1        8.5470  -54.1480  -57.8130 C.3    28  VAL28       0.0019
     32  CG2        7.3260  -53.5360  -55.7140 C.3    28  VAL28       0.0019
     33  N          8.4360  -59.4890  -62.1670 N.3    41  ALA41      -0.1245
     34  CA         8.4500  -58.5100  -61.0880 C.3    41  ALA41       0.1562
     35  C          7.8630  -59.1130  -59.8190 C.2    41  ALA41       0.2260
     36  O          6.7240  -59.5750  -59.8140 O.2    41  ALA41      -0.2867
     37  CB         7.6770  -57.2680  -61.4880 C.3    41  ALA41       0.0290
     38  N          6.7390  -58.8000  -55.7890 N.3    43  LYS43      -0.1245
     39  CA         6.3080  -57.8680  -54.7570 C.3    43  LYS43       0.1561
     40  C          6.4280  -58.5030  -53.3730 C.2    43  LYS43       0.2260
     41  O          5.6560  -59.3970  -53.0250 O.2    43  LYS43      -0.2867
     42  CB         4.8660  -57.4280  -55.0160 C.3    43  LYS43       0.0271
     43  CG         4.4160  -56.2240  -54.2050 C.3    43  LYS43       0.0035
     44  CD         2.9600  -55.8780  -54.4960 C.3    43  LYS43       0.0206
     45  CE         2.7350  -55.6320  -55.9800 C.3    43  LYS43       0.1093
     46  NZ         1.3040  -55.3500  -56.2860 N.3    43  LYS43      -0.1314
     47  N         -3.7800  -56.8870  -64.3780 N.3    73  ILE73      -0.1245
     48  CA        -2.5730  -57.5940  -63.9740 C.3    73  ILE73       0.1561
     49  C         -2.9580  -58.9090  -63.2960 C.2    73  ILE73       0.2260
     50  O         -4.0050  -59.0060  -62.6540 O.2    73  ILE73      -0.2867
     51  CB        -1.7090  -56.7310  -63.0230 C.3    73  ILE73       0.0252
     52  CG1       -0.3160  -57.3410  -62.8380 C.3    73  ILE73       0.0019
     53  CG2       -2.4060  -56.5370  -61.6820 C.3    73  ILE73       0.0019
     54  CD1        0.5180  -57.3610  -64.0960 C.3    73  ILE73       0.0001
     55  N          4.5330  -61.1100  -60.4490 N.3    94  GLN94      -0.1231
     56  CA         3.6570  -60.6370  -61.5150 C.3    94  GLN94       0.1698
     57  C          4.4430  -60.3510  -62.7940 C.2    94  GLN94       0.2592
     58  O          5.6730  -60.3880  -62.7950 O.2    94  GLN94      -0.2718
     59  CB         2.9150  -59.3750  -61.0700 C.3    94  GLN94       0.0381
     60  CG         2.0610  -59.5610  -59.8240 C.3    94  GLN94       0.0905
     61  CD         1.3680  -58.2830  -59.3890 C.2    94  GLN94       0.2608
     62  OE1        1.9950  -57.3790  -58.8380 O.2    94  GLN94      -0.2717
     63  NE2        0.0660  -58.2050  -59.6330 N.am   94  GLN94      -0.0878
     64  N          3.7250  -60.0700  -63.8780 N.am   95  ASP95      -0.1960
     65  CA         4.3500  -59.7020  -65.1460 C.3    95  ASP95       0.1840
     66  C          5.1880  -58.4360  -65.0040 C.2    95  ASP95       0.2622
     67  O          4.7990  -57.5000  -64.3060 O.2    95  ASP95      -0.2715
     68  CB         3.2870  -59.4840  -66.2240 C.3    95  ASP95       0.1450
     69  CG         2.7620  -60.7840  -66.8050 C.2    95  ASP95       0.3671
     70  OD1        2.9720  -61.8500  -66.1870 O.co2  95  ASP95      -0.2456
     71  OD2        2.1350  -60.7370  -67.8830 O.co2  95  ASP95      -0.2456
     72  N          6.3380  -58.4080  -65.6660 N.am   96  LEU96      -0.1963
     73  CA         7.1800  -57.2190  -65.6470 C.3    96  LEU96       0.1728
     74  C          6.6850  -56.2080  -66.6720 C.2    96  LEU96       0.2616
     75  O          6.7300  -56.4570  -67.8770 O.2    96  LEU96      -0.2715
     76  CB         8.6400  -57.5780  -65.9220 C.3    96  LEU96       0.0311
     77  CG         9.6490  -56.4400  -65.7410 C.3    96  LEU96       0.0022
     78  CD1        9.7480  -56.0150  -64.2790 C.3    96  LEU96       0.0001
     79  CD2       11.0140  -56.8380  -66.2780 C.3    96  LEU96       0.0001
     80  N          6.2000  -55.0730  -66.1850 N.am   97  MET97      -0.1977
     81  CA         5.7430  -54.0020  -67.0570 C.3    97  MET97       0.1605
     82  C          6.8180  -52.9260  -67.1310 C.2    97  MET97       0.2287
     83  O          7.4640  -52.6200  -66.1310 O.2    97  MET97      -0.2864
     84  CB         4.4290  -53.4170  -66.5400 C.3    97  MET97       0.0413
     85  CG         3.3530  -54.4590  -66.2790 C.3    97  MET97       0.0598
     86  SD         2.8680  -55.3510  -67.7720 S.3    97  MET97      -0.1393
     87  CE         2.0470  -54.0530  -68.6950 C.3    97  MET97       0.0692
     88  N          4.6060  -46.9770  -66.2450 N.3   100  ASP100     -0.1239
     89  CA         3.1930  -46.7200  -65.9750 C.3   100  ASP100      0.1674
     90  C          2.7600  -45.3640  -66.5330 C.2   100  ASP100      0.2266
     91  O          3.5930  -44.5870  -67.0080 O.2   100  ASP100     -0.2867
     92  CB         2.8770  -46.8240  -64.4780 C.3   100  ASP100      0.1410
     93  CG         3.6760  -45.8470  -63.6370 C.2   100  ASP100      0.3668
     94  OD1        3.3860  -44.6370  -63.6910 O.co2 100  ASP100     -0.2456
     95  OD2        4.5860  -46.2890  -62.9060 O.co2 100  ASP100     -0.2456
     96  N          4.4460  -42.1290  -65.0320 N.3   103  LYS103     -0.1245
     97  CA         5.7870  -41.8470  -65.5270 C.3   103  LYS103      0.1561
     98  C          5.7500  -41.3710  -66.9720 C.2   103  LYS103      0.2260
     99  O          6.5490  -40.5280  -67.3820 O.2   103  LYS103     -0.2867
    100  CB         6.6570  -43.0970  -65.4310 C.3   103  LYS103      0.0271
    101  CG         6.7680  -43.6170  -64.0360 C.3   103  LYS103      0.0035
    102  CD         7.7110  -44.7770  -63.9060 C.3   103  LYS103      0.0206
    103  CE         7.7000  -45.2550  -62.4570 C.3   103  LYS103      0.1093
    104  NZ         8.8850  -46.1050  -62.1100 N.3   103  LYS103     -0.1314
    105  N         -0.6480  -43.9810  -61.9520 N.3   141  SER141     -0.1217
    106  CA         0.4080  -44.8460  -61.4310 C.3   141  SER141      0.1889
    107  C         -0.0670  -46.2840  -61.2080 C.2   141  SER141      0.2288
    108  O          0.7420  -47.1790  -60.9650 O.2   141  SER141     -0.2866
    109  CB         0.9840  -44.2700  -60.1340 C.3   141  SER141      0.2089
    110  OG        -0.0460  -43.9640  -59.2050 O.3   141  SER141     -0.2183
    111  N         -0.2670  -49.8260  -65.4540 N.3   144  LEU144     -0.1245
    112  CA         1.0390  -50.2600  -65.9260 C.3   144  LEU144      0.1561
    113  C          1.0570  -50.3750  -67.4440 C.2   144  LEU144      0.2260
    114  O          0.0980  -50.8520  -68.0530 O.2   144  LEU144     -0.2867
    115  CB         1.4090  -51.5940  -65.2890 C.3   144  LEU144      0.0270
    116  CG         1.3340  -51.6610  -63.7610 C.3   144  LEU144      0.0019
    117  CD1        1.5650  -53.0880  -63.2840 C.3   144  LEU144      0.0001
    118  CD2        2.3380  -50.7130  -63.1230 C.3   144  LEU144      0.0001
    119  N         -3.5410  -52.2940  -62.1920 N.3   154  CYS154     -0.1235
    120  CA        -2.9840  -53.0070  -61.0460 C.3   154  CYS154      0.1677
    121  C         -3.4350  -52.4330  -59.7040 C.2   154  CYS154      0.2270
    122  O         -4.2550  -51.5160  -59.6530 O.2   154  CYS154     -0.2867
    123  CB        -1.4570  -53.0460  -61.1210 C.3   154  CYS154      0.0956
    124  SG        -0.6560  -51.4910  -60.7150 S.3   154  CYS154     -0.0801
@<TRIPOS>BOND
     1    87    86    1
     2   114   113    2
     3    71    69   ar
     4    75    74    2
     5    86    85    1
     6   113   112    1
     7    99    98    2
     8    82    81    1
     9    82    83    2
    10    81    84    1
    11    81    80    1
    12    91    90    2
    13    98    97    1
    14    69    68    1
    15    69    70   ar
    16    74    80   am
    17    74    73    1
    18    84    85    1
    19    90    89    1
    20    79    77    1
    21    88    89    1
    22    68    65    1
    23    89    92    1
    24   112   111    1
    25   112   115    1
    26    76    77    1
    27    76    73    1
    28    77    78    1
    29    72    73    1
    30    72    66   am
    31    97   100    1
    32    97    96    1
    33   100   101    1
    34   115   116    1
    35    65    66    1
    36    65    64    1
    37    66    67    2
    38    92    93    1
    39    47    48    1
    40    54    52    1
    41   101   102    1
    42    48    49    1
    43    48    51    1
    44   102   103    1
    45    64    57   am
    46   116   117    1
    47   116   118    1
    48    94    93   ar
    49    93    95   ar
    50    49    50    2
    51    51    52    1
    52    51    53    1
    53    58    57    2
    54    57    56    1
    55   103   104    1
    56   119   120    1
    57    33    34    1
    58   105   106    1
    59    56    59    1
    60    56    55    1
    61    37    34    1
    62   106   107    1
    63   106   109    1
    64   107   108    2
    65   123   120    1
    66   123   124    1
    67    34    35    1
    68    59    60    1
    69   120   121    1
    70     8     6    1
    71     7     5    1
    72   109   110    1
    73     6     5    1
    74    60    61    1
    75    35    36    2
    76   121   122    2
    77    63    61   am
    78    61    62    2
    79     5     2    1
    80     2     1    1
    81     2     3    1
    82     4     3    2
    83    31    30    1
    84     3     9   am
    85    29    28    2
    86     9    10    1
    87    30    32    1
    88    30    27    1
    89    28    27    1
    90    46    45    1
    91    45    44    1
    92    38    39    1
    93    10    11    1
    94    27    26    1
    95    42    39    1
    96    42    43    1
    97    39    40    1
    98    44    43    1
    99    11    12    2
   100    11    13   am
   101    13    14    1
   102    40    41    2
   103    23    22    1
   104    23    24    1
   105    22    15   am
   106    14    15    1
   107    14    17    1
   108    15    16    2
   109    24    25    2
   110    17    18    1
   111    18    19    1
   112    20    19   ar
   113    19    21   ar
