@<TRIPOS>MOLECULE
tmp/4qp2A00.pdb
 107 99 0 0 0
SMALL
GASTEIGER

@<TRIPOS>ATOM
      1  N        -22.5530  -42.5690  -25.6840 N.3    20  ILE20      -0.1231
      2  CA       -21.3600  -42.6730  -26.5240 C.3    20  ILE20       0.1696
      3  C        -20.0840  -42.9960  -25.7460 C.2    20  ILE20       0.2631
      4  O        -19.1650  -43.6020  -26.2960 O.2    20  ILE20      -0.2714
      5  CB       -21.1340  -41.4390  -27.4520 C.3    20  ILE20       0.0266
      6  CG1      -21.1410  -40.1280  -26.6720 C.3    20  ILE20       0.0019
      7  CG2      -22.1800  -41.3820  -28.5600 C.3    20  ILE20       0.0020
      8  CD1      -20.9970  -38.9160  -27.5750 C.3    20  ILE20       0.0001
      9  N        -20.0220  -42.6090  -24.4760 N.am   21  GLY21      -0.1732
     10  CA       -18.8930  -43.0020  -23.6480 C.2    21  GLY21       0.1340
     11  C        -18.8380  -42.3960  -22.2600 C.2    21  GLY21       0.2521
     12  O        -19.7720  -41.7240  -21.8290 O.2    21  GLY21      -0.2816
     13  N        -20.8890  -39.3120  -21.3580 N.3    28  VAL28      -0.1245
     14  CA       -21.1130  -38.4470  -22.4960 C.3    28  VAL28       0.1561
     15  C        -22.2100  -39.0730  -23.3570 C.2    28  VAL28       0.2260
     16  O        -22.2380  -40.2940  -23.5530 O.2    28  VAL28      -0.2867
     17  CB       -19.8130  -38.2370  -23.3160 C.3    28  VAL28       0.0252
     18  CG1      -20.0450  -37.2560  -24.4510 C.3    28  VAL28       0.0019
     19  CG2      -18.6930  -37.7300  -22.4140 C.3    28  VAL28       0.0019
     20  N        -22.9870  -33.0970  -28.6800 N.3    41  ALA41      -0.1245
     21  CA       -22.4680  -33.8830  -27.5750 C.3    41  ALA41       0.1562
     22  C        -22.7680  -33.1710  -26.2610 C.2    41  ALA41       0.2260
     23  O        -22.7180  -31.9430  -26.1710 O.2    41  ALA41      -0.2867
     24  CB       -20.9620  -34.1070  -27.7390 C.3    41  ALA41       0.0290
     25  N        -21.6680  -33.5030  -22.1650 N.3    43  LYS43      -0.1245
     26  CA       -20.9170  -34.1500  -21.0990 C.3    43  LYS43       0.1561
     27  C        -21.5880  -33.8620  -19.7590 C.2    43  LYS43       0.2260
     28  O        -21.8660  -32.7060  -19.4340 O.2    43  LYS43      -0.2867
     29  CB       -19.4720  -33.6460  -21.0600 C.3    43  LYS43       0.0271
     30  CG       -18.7190  -33.7350  -22.3690 C.3    43  LYS43       0.0035
     31  CD       -17.2250  -33.4680  -22.1660 C.3    43  LYS43       0.0206
     32  CE       -16.9870  -32.1710  -21.3970 C.3    43  LYS43       0.1093
     33  NZ       -15.5440  -31.8930  -21.1560 N.3    43  LYS43      -0.1314
     34  N        -12.5100  -26.8760  -29.4820 N.3    73  ILE73      -0.1245
     35  CA       -13.9030  -27.1970  -29.1940 C.3    73  ILE73       0.1561
     36  C        -14.5220  -26.0190  -28.4430 C.2    73  ILE73       0.2260
     37  O        -13.8770  -25.4020  -27.5820 O.2    73  ILE73      -0.2867
     38  CB       -14.0430  -28.5200  -28.3920 C.3    73  ILE73       0.0252
     39  CG1      -15.4750  -29.0600  -28.4850 C.3    73  ILE73       0.0019
     40  CG2      -13.6030  -28.3360  -26.9280 C.3    73  ILE73       0.0019
     41  CD1      -15.9090  -29.3760  -29.9130 C.3    73  ILE73       0.0001
     42  N        -21.5910  -29.3750  -26.4980 N.3    94  GLN94      -0.1231
     43  CA       -20.5730  -29.0240  -27.4810 C.3    94  GLN94       0.1698
     44  C        -20.9120  -29.6740  -28.8160 C.2    94  GLN94       0.2592
     45  O        -21.7130  -30.6000  -28.8710 O.2    94  GLN94      -0.2718
     46  CB       -19.2110  -29.5660  -27.0520 C.3    94  GLN94       0.0381
     47  CG       -18.6850  -29.1200  -25.6990 C.3    94  GLN94       0.0905
     48  CD       -17.4520  -29.9160  -25.3080 C.2    94  GLN94       0.2608
     49  OE1      -17.3250  -31.0940  -25.6730 O.2    94  GLN94      -0.2717
     50  NE2      -16.5190  -29.2730  -24.5980 N.am   94  GLN94      -0.0878
     51  N        -20.2510  -29.2330  -29.8750 N.am   95  ASP95      -0.1960
     52  CA       -20.3840  -29.8830  -31.1730 C.3    95  ASP95       0.1840
     53  C        -20.0520  -31.3610  -31.0520 C.2    95  ASP95       0.2622
     54  O        -19.0570  -31.7420  -30.4120 O.2    95  ASP95      -0.2715
     55  CB       -19.4260  -29.2660  -32.1810 C.3    95  ASP95       0.1450
     56  CG       -19.6890  -27.7960  -32.4230 C.2    95  ASP95       0.3671
     57  OD1      -20.8070  -27.3190  -32.1340 O.co2  95  ASP95      -0.2456
     58  OD2      -18.7650  -27.1250  -32.9230 O.co2  95  ASP95      -0.2456
     59  N        -20.8860  -32.1900  -31.6730 N.am   96  LEU96      -0.1963
     60  CA       -20.6230  -33.6160  -31.7450 C.3    96  LEU96       0.1728
     61  C        -19.4210  -33.8960  -32.6410 C.2    96  LEU96       0.2616
     62  O        -19.4020  -33.5090  -33.8030 O.2    96  LEU96      -0.2715
     63  CB       -21.8530  -34.3730  -32.2630 C.3    96  LEU96       0.0311
     64  CG       -21.7400  -35.9030  -32.1630 C.3    96  LEU96       0.0022
     65  CD1      -21.3790  -36.3100  -30.7450 C.3    96  LEU96       0.0001
     66  CD2      -23.0260  -36.6010  -32.6140 C.3    96  LEU96       0.0001
     67  N        -18.4130  -34.5660  -32.0950 N.am   97  MET97      -0.1963
     68  CA       -17.2750  -35.0020  -32.8850 C.3    97  MET97       0.1736
     69  C        -17.3010  -36.5170  -32.9680 C.2    97  MET97       0.2616
     70  O        -17.4530  -37.2010  -31.9530 O.2    97  MET97      -0.2715
     71  CB       -15.9530  -34.5080  -32.2710 C.3    97  MET97       0.0427
     72  CG       -15.9140  -32.9930  -32.0580 C.3    97  MET97       0.0599
     73  SD       -16.0210  -32.0360  -33.6000 S.3    97  MET97      -0.1393
     74  CE       -14.4270  -32.4140  -34.3120 C.3    97  MET97       0.0692
     75  N        -17.1420  -37.0410  -34.1770 N.am   98  GLU98      -0.1963
     76  CA       -17.3090  -38.4770  -34.4040 C.3    98  GLU98       0.1733
     77  C        -16.3200  -39.3060  -33.6010 C.2    98  GLU98       0.2617
     78  O        -16.6760  -40.3070  -32.9960 O.2    98  GLU98      -0.2715
     79  CB       -17.1660  -38.8200  -35.8940 C.3    98  GLU98       0.0429
     80  CG       -17.5110  -40.2850  -36.2060 C.3    98  GLU98       0.1163
     81  CD       -16.7370  -40.8480  -37.3930 C.2    98  GLU98       0.3649
     82  OE1      -16.7610  -40.2160  -38.4730 O.co2  98  GLU98      -0.2457
     83  OE2      -16.1030  -41.9220  -37.2440 O.co2  98  GLU98      -0.2457
     84  N        -15.0630  -38.8970  -33.5940 N.am   99  THR99      -0.1951
     85  CA       -14.0490  -39.7340  -32.9820 C.3    99  THR99       0.1897
     86  C        -12.9080  -38.8590  -32.4600 C.2    99  THR99       0.2313
     87  O        -13.1020  -37.6600  -32.2700 O.2    99  THR99      -0.2863
     88  CB       -13.5540  -40.8200  -33.9700 C.3    99  THR99       0.1794
     89  OG1      -12.6150  -41.6820  -33.3170 O.3    99  THR99      -0.2208
     90  CG2      -12.9010  -40.1910  -35.1800 C.3    99  THR99       0.0378
     91  N         -8.4720  -42.9750  -30.9150 N.3   103  LYS103     -0.1245
     92  CA        -9.2610  -44.0410  -31.5270 C.3   103  LYS103      0.1561
     93  C         -8.8450  -44.2760  -32.9670 C.2   103  LYS103      0.2260
     94  O         -8.7680  -45.4170  -33.4130 O.2   103  LYS103     -0.2867
     95  CB       -10.7620  -43.7370  -31.4680 C.3   103  LYS103      0.0271
     96  CG       -11.2990  -43.6350  -30.0520 C.3   103  LYS103      0.0035
     97  CD       -12.7340  -43.2160  -30.0520 C.3   103  LYS103      0.0206
     98  CE       -13.2630  -43.1010  -28.6320 C.3   103  LYS103      0.1093
     99  NZ       -14.6840  -42.6670  -28.6720 N.3   103  LYS103     -0.1314
    100  N        -10.0930  -34.1290  -31.0720 N.3   144  LEU144     -0.1245
    101  CA       -11.3600  -34.6630  -31.5700 C.3   144  LEU144      0.1561
    102  C        -11.4090  -34.5000  -33.0850 C.2   144  LEU144      0.2260
    103  O        -10.8530  -33.5450  -33.6270 O.2   144  LEU144     -0.2867
    104  CB       -12.5440  -33.9420  -30.9040 C.3   144  LEU144      0.0270
    105  CG       -12.5680  -33.8860  -29.3610 C.3   144  LEU144      0.0019
    106  CD1      -13.7870  -33.1400  -28.8380 C.3   144  LEU144      0.0001
    107  CD2      -12.5080  -35.2650  -28.7160 C.3   144  LEU144      0.0001
@<TRIPOS>BOND
     1    82    81   ar
     2    81    83   ar
     3    81    80    1
     4    80    79    1
     5    79    76    1
     6    90    88    1
     7    76    75    1
     8    76    77    1
     9    74    73    1
    10    75    69   am
    11    88    89    1
    12    88    85    1
    13    62    61    2
    14   103   102    2
    15    77    84   am
    16    77    78    2
    17    73    72    1
    18    84    85    1
    19    94    93    2
    20   102   101    1
    21    85    86    1
    22    69    68    1
    23    69    70    2
    24    93    92    1
    25    58    56   ar
    26    68    71    1
    27    68    67    1
    28    61    67   am
    29    61    60    1
    30    66    64    1
    31    86    87    2
    32    56    55    1
    33    56    57   ar
    34    71    72    1
    35    63    64    1
    36    63    60    1
    37    55    52    1
    38    64    65    1
    39    60    59    1
    40    59    53   am
    41   101   100    1
    42   101   104    1
    43    92    95    1
    44    92    91    1
    45    95    96    1
    46    52    53    1
    47    52    51    1
    48    53    54    2
    49   104   105    1
    50    96    97    1
    51    97    98    1
    52    41    39    1
    53    51    44   am
    54    34    35    1
    55   105   106    1
    56   105   107    1
    57    35    36    1
    58    35    38    1
    59    45    44    2
    60    44    43    1
    61    20    21    1
    62    99    98    1
    63     7     5    1
    64    39    38    1
    65    36    37    2
    66    38    40    1
    67    24    21    1
    68     8     6    1
    69    21    22    1
    70    43    46    1
    71    43    42    1
    72     5     6    1
    73     5     2    1
    74    46    47    1
    75     2     3    1
    76     2     1    1
    77     4     3    2
    78    22    23    2
    79     3     9    1
    80    47    48    1
    81    49    48    2
    82    48    50   am
    83     9    10    2
    84    18    17    1
    85    10    11    1
    86    16    15    2
    87    15    14    1
    88    17    14    1
    89    17    19    1
    90    14    13    1
    91    30    31    1
    92    30    29    1
    93    11    12    2
    94    31    32    1
    95    25    26    1
    96    32    33    1
    97    26    29    1
    98    26    27    1
    99    27    28    2
