@<TRIPOS>MOLECULE
tmp/4qp3A00.pdb
 127 117 0 0 0
SMALL
GASTEIGER

@<TRIPOS>ATOM
      1  N        -22.1150  -42.6070  -25.1120 N.3    20  ILE20      -0.1231
      2  CA       -20.8310  -42.7500  -25.7880 C.3    20  ILE20       0.1692
      3  C        -19.7090  -42.8210  -24.7500 C.2    20  ILE20       0.2592
      4  O        -19.9800  -42.8540  -23.5500 O.2    20  ILE20      -0.2718
      5  CB       -20.5770  -41.6070  -26.8000 C.3    20  ILE20       0.0266
      6  CG1      -20.2800  -40.2890  -26.0850 C.3    20  ILE20       0.0019
      7  CG2      -21.7700  -41.4400  -27.7300 C.3    20  ILE20       0.0020
      8  CD1      -20.0830  -39.1240  -27.0330 C.3    20  ILE20       0.0001
      9  N        -18.4620  -42.8510  -25.2150 N.am   21  GLY21      -0.1957
     10  CA       -17.3060  -42.9970  -24.3420 C.3    21  GLY21       0.1869
     11  C        -17.2710  -42.0330  -23.1690 C.2    21  GLY21       0.2309
     12  O        -16.9760  -40.8490  -23.3340 O.2    21  GLY21      -0.2863
     13  N        -20.0330  -38.9290  -20.8470 N.3    28  VAL28      -0.1245
     14  CA       -20.2630  -38.1810  -22.0750 C.3    28  VAL28       0.1561
     15  C        -21.3280  -38.8760  -22.9180 C.2    28  VAL28       0.2260
     16  O        -21.3220  -40.1000  -23.0570 O.2    28  VAL28      -0.2867
     17  CB       -18.9630  -38.0220  -22.8960 C.3    28  VAL28       0.0252
     18  CG1      -19.2080  -37.1660  -24.1270 C.3    28  VAL28       0.0019
     19  CG2      -17.8640  -37.4080  -22.0420 C.3    28  VAL28       0.0019
     20  N        -24.2120  -38.3860  -26.4990 N.3    30  SER30      -0.1217
     21  CA       -24.6730  -37.6730  -27.6840 C.3    30  SER30       0.1889
     22  C        -26.1100  -37.2080  -27.4810 C.2    30  SER30       0.2288
     23  O        -26.8560  -37.8110  -26.7130 O.2    30  SER30      -0.2866
     24  CB       -24.5900  -38.5860  -28.9060 C.3    30  SER30       0.2089
     25  OG       -25.3410  -38.0620  -29.9870 O.3    30  SER30      -0.2183
     26  N        -22.7160  -33.0450  -28.5260 N.3    41  ALA41      -0.1245
     27  CA       -22.1670  -33.8280  -27.4250 C.3    41  ALA41       0.1562
     28  C        -22.3690  -33.0970  -26.1020 C.2    41  ALA41       0.2260
     29  O        -22.1730  -31.8840  -26.0170 O.2    41  ALA41      -0.2867
     30  CB       -20.6940  -34.1080  -27.6560 C.3    41  ALA41       0.0290
     31  N        -21.3260  -33.1510  -21.9740 N.3    43  LYS43      -0.1245
     32  CA       -20.3650  -33.6810  -21.0170 C.3    43  LYS43       0.1561
     33  C        -20.8210  -33.4260  -19.5830 C.2    43  LYS43       0.2260
     34  O        -20.7060  -32.3100  -19.0760 O.2    43  LYS43      -0.2867
     35  CB       -18.9930  -33.0440  -21.2490 C.3    43  LYS43       0.0271
     36  CG       -17.8270  -33.8300  -20.6710 C.3    43  LYS43       0.0035
     37  CD       -16.5960  -32.9520  -20.5040 C.3    43  LYS43       0.0206
     38  CE       -16.2610  -32.2130  -21.7900 C.3    43  LYS43       0.1093
     39  NZ       -15.1600  -31.2280  -21.5910 N.3    43  LYS43      -0.1314
     40  N        -12.0070  -26.8700  -29.5130 N.3    73  ILE73      -0.1245
     41  CA       -13.3880  -27.2060  -29.1990 C.3    73  ILE73       0.1561
     42  C        -14.0090  -26.0490  -28.4170 C.2    73  ILE73       0.2260
     43  O        -13.3510  -25.4290  -27.5800 O.2    73  ILE73      -0.2867
     44  CB       -13.4860  -28.5330  -28.4000 C.3    73  ILE73       0.0252
     45  CG1      -14.9250  -29.0590  -28.3800 C.3    73  ILE73       0.0019
     46  CG2      -12.9390  -28.3730  -26.9820 C.3    73  ILE73       0.0019
     47  CD1      -15.3300  -29.7720  -29.6410 C.3    73  ILE73       0.0001
     48  N        -21.1340  -29.3250  -26.3700 N.3    94  GLN94      -0.1231
     49  CA       -20.1170  -29.0380  -27.3750 C.3    94  GLN94       0.1698
     50  C        -20.5320  -29.6120  -28.7230 C.2    94  GLN94       0.2592
     51  O        -21.4720  -30.4040  -28.8010 O.2    94  GLN94      -0.2718
     52  CB       -18.7740  -29.6500  -26.9670 C.3    94  GLN94       0.0381
     53  CG       -18.1620  -29.0820  -25.7050 C.3    94  GLN94       0.0905
     54  CD       -16.8540  -29.7610  -25.3450 C.2    94  GLN94       0.2608
     55  OE1      -16.5900  -30.8880  -25.7670 O.2    94  GLN94      -0.2717
     56  NE2      -16.0230  -29.0760  -24.5660 N.am   94  GLN94      -0.0878
     57  N        -19.8270  -29.2140  -29.7800 N.am   95  ASP95      -0.1960
     58  CA       -20.0330  -29.8050  -31.0980 C.3    95  ASP95       0.1840
     59  C        -19.6790  -31.2780  -31.0310 C.2    95  ASP95       0.2622
     60  O        -18.7010  -31.6530  -30.3860 O.2    95  ASP95      -0.2715
     61  CB       -19.1460  -29.1390  -32.1500 C.3    95  ASP95       0.1450
     62  CG       -19.4970  -27.6900  -32.3800 C.2    95  ASP95       0.3671
     63  OD1      -20.6200  -27.2790  -32.0190 O.co2  95  ASP95      -0.2456
     64  OD2      -18.6460  -26.9620  -32.9360 O.co2  95  ASP95      -0.2456
     65  N        -20.4730  -32.1100  -31.6960 N.am   96  LEU96      -0.1963
     66  CA       -20.2040  -33.5380  -31.7370 C.3    96  LEU96       0.1728
     67  C        -19.0440  -33.8120  -32.6770 C.2    96  LEU96       0.2616
     68  O        -19.0200  -33.3270  -33.8040 O.2    96  LEU96      -0.2715
     69  CB       -21.4400  -34.3160  -32.1920 C.3    96  LEU96       0.0311
     70  CG       -21.3380  -35.8410  -32.0720 C.3    96  LEU96       0.0022
     71  CD1      -21.2860  -36.2640  -30.6090 C.3    96  LEU96       0.0001
     72  CD2      -22.4840  -36.5310  -32.8000 C.3    96  LEU96       0.0001
     73  N        -18.0760  -34.5810  -32.1980 N.am   97  MET97      -0.1963
     74  CA       -16.9460  -34.9830  -33.0150 C.3    97  MET97       0.1736
     75  C        -16.9470  -36.5030  -33.1150 C.2    97  MET97       0.2616
     76  O        -17.0710  -37.1940  -32.1060 O.2    97  MET97      -0.2715
     77  CB       -15.6390  -34.4700  -32.4070 C.3    97  MET97       0.0427
     78  CG       -15.6300  -32.9670  -32.1400 C.3    97  MET97       0.0599
     79  SD       -15.6110  -31.9640  -33.6430 S.3    97  MET97      -0.1393
     80  CE       -14.0580  -32.4830  -34.3690 C.3    97  MET97       0.0692
     81  N        -16.8190  -37.0140  -34.3350 N.am   98  GLU98      -0.1963
     82  CA       -16.9870  -38.4410  -34.6040 C.3    98  GLU98       0.1733
     83  C        -15.9870  -39.3460  -33.8810 C.2    98  GLU98       0.2617
     84  O        -16.3370  -40.4500  -33.4660 O.2    98  GLU98      -0.2715
     85  CB       -16.9300  -38.7100  -36.1110 C.3    98  GLU98       0.0429
     86  CG       -17.2830  -40.1420  -36.4900 C.3    98  GLU98       0.1163
     87  CD       -16.4620  -40.6660  -37.6540 C.2    98  GLU98       0.3649
     88  OE1      -16.2930  -39.9290  -38.6510 O.co2  98  GLU98      -0.2457
     89  OE2      -15.9770  -41.8170  -37.5670 O.co2  98  GLU98      -0.2457
     90  N        -14.7500  -38.8840  -33.7330 N.am   99  THR99      -0.1937
     91  CA       -13.7020  -39.7050  -33.1280 C.3    99  THR99       0.2028
     92  C        -12.5310  -38.8510  -32.6410 C.2    99  THR99       0.2642
     93  O        -12.6510  -37.6320  -32.5360 O.2    99  THR99      -0.2714
     94  CB       -13.2020  -40.7880  -34.1190 C.3    99  THR99       0.1808
     95  OG1      -12.2700  -41.6560  -33.4650 O.3    99  THR99      -0.2208
     96  CG2      -12.5440  -40.1500  -35.3390 C.3    99  THR99       0.0379
     97  N        -11.4080  -39.4930  -32.3310 N.am  100  ASP100     -0.1971
     98  CA       -10.1840  -38.7770  -31.9730 C.3   100  ASP100      0.1709
     99  C         -8.9490  -39.4820  -32.5330 C.2   100  ASP100      0.2293
    100  O         -9.0360  -40.6250  -32.9820 O.2   100  ASP100     -0.2864
    101  CB       -10.0740  -38.5860  -30.4530 C.3   100  ASP100      0.1436
    102  CG       -10.1080  -39.8980  -29.6860 C.2   100  ASP100      0.3671
    103  OD1       -9.3510  -40.8270  -30.0380 O.co2 100  ASP100     -0.2456
    104  OD2      -10.8950  -40.0000  -28.7180 O.co2 100  ASP100     -0.2456
    105  N         -8.0780  -43.0420  -31.3090 N.3   103  LYS103     -0.1245
    106  CA        -8.8800  -44.1040  -31.8970 C.3   103  LYS103      0.1561
    107  C         -8.4810  -44.3460  -33.3430 C.2   103  LYS103      0.2260
    108  O         -8.4240  -45.4890  -33.7980 O.2   103  LYS103     -0.2867
    109  CB       -10.3680  -43.7600  -31.8260 C.3   103  LYS103      0.0271
    110  CG       -10.9520  -43.7870  -30.4260 C.3   103  LYS103      0.0035
    111  CD       -12.4130  -43.3820  -30.4410 C.3   103  LYS103      0.0206
    112  CE       -12.9820  -43.3080  -29.0350 C.3   103  LYS103      0.1093
    113  NZ       -14.3930  -42.8250  -29.0430 N.3   103  LYS103     -0.1314
    114  N         -9.7370  -34.1910  -31.0860 N.3   144  LEU144     -0.1245
    115  CA       -11.0080  -34.6120  -31.6630 C.3   144  LEU144      0.1561
    116  C        -11.0000  -34.4660  -33.1810 C.2   144  LEU144      0.2260
    117  O        -10.4810  -33.4840  -33.7170 O.2   144  LEU144     -0.2867
    118  CB       -12.1570  -33.7970  -31.0600 C.3   144  LEU144      0.0270
    119  CG       -12.2620  -33.8350  -29.5310 C.3   144  LEU144      0.0019
    120  CD1      -13.3430  -32.8860  -29.0240 C.3   144  LEU144      0.0001
    121  CD2      -12.5160  -35.2570  -29.0530 C.3   144  LEU144      0.0001
    122  N         -9.1000  -30.4900  -27.4570 N.3   154  CYS154     -0.1235
    123  CA       -10.0120  -30.4620  -26.3140 C.3   154  CYS154      0.1677
    124  C         -9.2930  -30.6520  -24.9770 C.2   154  CYS154      0.2270
    125  O         -8.0620  -30.7300  -24.9240 O.2   154  CYS154     -0.2867
    126  CB       -11.0970  -31.5280  -26.4720 C.3   154  CYS154      0.0956
    127  SG       -10.5200  -33.2260  -26.2280 S.3   154  CYS154     -0.0801
@<TRIPOS>BOND
     1    88    87   ar
     2    87    89   ar
     3    87    86    1
     4    86    85    1
     5    85    82    1
     6    96    94    1
     7    82    81    1
     8    82    83    1
     9    80    79    1
    10    81    75   am
    11    94    95    1
    12    94    91    1
    13    83    90   am
    14    83    84    2
    15    68    67    2
    16   108   107    2
    17    90    91    1
    18   117   116    2
    19    79    78    1
    20   107   106    1
    21   116   115    1
    22    91    92    1
    23    75    74    1
    24    75    76    2
    25    74    77    1
    26    74    73    1
    27   100    99    2
    28    64    62   ar
    29    72    70    1
    30    67    73   am
    31    67    66    1
    32    92    93    2
    33    92    97   am
    34    99    98    1
    35    77    78    1
    36    62    61    1
    37    62    63   ar
    38    97    98    1
    39    69    70    1
    40    69    66    1
    41    61    58    1
    42    70    71    1
    43    98   101    1
    44   106   109    1
    45   106   105    1
    46   109   110    1
    47    66    65    1
    48    65    59   am
    49   115   114    1
    50   115   118    1
    51    58    59    1
    52    58    57    1
    53   118   119    1
    54    59    60    2
    55   101   102    1
    56   111   110    1
    57   111   112    1
    58   103   102   ar
    59    25    24    1
    60    57    50   am
    61   102   104   ar
    62    47    45    1
    63   119   121    1
    64   119   120    1
    65    40    41    1
    66    41    42    1
    67    41    44    1
    68   113   112    1
    69    24    21    1
    70    51    50    2
    71    50    49    1
    72    26    27    1
    73    42    43    2
    74    44    45    1
    75    44    46    1
    76     7     5    1
    77    21    22    1
    78    21    20    1
    79    30    27    1
    80    22    23    2
    81   122   123    1
    82    27    28    1
    83    49    52    1
    84    49    48    1
    85     8     6    1
    86    52    53    1
    87     5     6    1
    88     5     2    1
    89   126   123    1
    90   126   127    1
    91   123   124    1
    92    28    29    2
    93     2     1    1
    94     2     3    1
    95    55    54    2
    96    53    54    1
    97    54    56   am
    98     9     3   am
    99     9    10    1
   100   124   125    2
   101     3     4    2
   102    10    11    1
   103    18    17    1
   104    12    11    2
   105    16    15    2
   106    15    14    1
   107    17    14    1
   108    17    19    1
   109    14    13    1
   110    31    32    1
   111    38    39    1
   112    38    37    1
   113    35    32    1
   114    35    36    1
   115    32    33    1
   116    36    37    1
   117    33    34    2
