@<TRIPOS>MOLECULE
tmp/4qp4A00.pdb
 111 103 0 0 0
SMALL
GASTEIGER

@<TRIPOS>ATOM
      1  N         15.4570  -18.9050   -2.3250 N.3    19  ILE19      -0.1245
      2  CA        16.4800  -17.9110   -2.0390 C.3    19  ILE19       0.1561
      3  C         17.4080  -18.4340   -0.9460 C.2    19  ILE19       0.2260
      4  O         18.6150  -18.5530   -1.1490 O.2    19  ILE19      -0.2867
      5  CB        15.8700  -16.5570   -1.5980 C.3    19  ILE19       0.0252
      6  CG1       14.9460  -15.9970   -2.6830 C.3    19  ILE19       0.0019
      7  CG2       16.9630  -15.5580   -1.2920 C.3    19  ILE19       0.0019
      8  CD1       14.3730  -14.6330   -2.3520 C.3    19  ILE19       0.0001
      9  N         12.8760  -18.8390    2.6910 N.3    27  VAL27      -0.1245
     10  CA        12.5820  -17.6050    1.9650 C.3    27  VAL27       0.1561
     11  C         12.6480  -17.8490    0.4580 C.2    27  VAL27       0.2260
     12  O         13.6490  -18.3430   -0.0630 O.2    27  VAL27      -0.2867
     13  CB        13.5400  -16.4570    2.3470 C.3    27  VAL27       0.0252
     14  CG1       13.1600  -15.1830    1.6060 C.3    27  VAL27       0.0019
     15  CG2       13.5170  -16.2240    3.8550 C.3    27  VAL27       0.0019
     16  N          9.4840  -11.1190   -2.3920 N.3    40  ALA40      -0.1245
     17  CA        10.0870  -12.0720   -1.4700 C.3    40  ALA40       0.1562
     18  C          9.0080  -12.5720   -0.5250 C.2    40  ALA40       0.2260
     19  O          8.1670  -11.7980   -0.0880 O.2    40  ALA40      -0.2867
     20  CB        11.2080  -11.4120   -0.6800 C.3    40  ALA40       0.0290
     21  N          8.4800  -14.8840    3.0270 N.3    42  LYS42      -0.1245
     22  CA         9.0100  -15.6000    4.1760 C.3    42  LYS42       0.1561
     23  C          7.9420  -16.5370    4.7010 C.2    42  LYS42       0.2260
     24  O          6.8380  -16.1040    5.0090 O.2    42  LYS42      -0.2867
     25  CB         9.3650  -14.6180    5.2940 C.3    42  LYS42       0.0271
     26  CG        10.5220  -13.6780    5.0150 C.3    42  LYS42       0.0035
     27  CD        10.6260  -12.6670    6.1570 C.3    42  LYS42       0.0206
     28  CE        11.9810  -11.9770    6.2110 C.3    42  LYS42       0.1093
     29  NZ        12.2080  -11.0660    5.0630 N.3    42  LYS42      -0.1314
     30  N         11.9700   -1.9770    5.8830 N.3    72  ILE72      -0.1245
     31  CA        11.1870   -2.8680    5.0410 C.3    72  ILE72       0.1561
     32  C          9.7230   -2.8130    5.4670 C.2    72  ILE72       0.2260
     33  O          9.4160   -2.6090    6.6430 O.2    72  ILE72      -0.2867
     34  CB        11.7190   -4.3290    5.0840 C.3    72  ILE72       0.0252
     35  CG1       11.2260   -5.1210    3.8740 C.3    72  ILE72       0.0019
     36  CG2       11.3170   -5.0390    6.3800 C.3    72  ILE72       0.0019
     37  CD1       11.9710   -4.8160    2.5910 C.3    72  ILE72       0.0001
     38  N          7.1490   -9.4700    0.9280 N.3    93  GLN93      -0.1231
     39  CA         7.8730   -8.2030    0.9720 C.3    93  GLN93       0.1698
     40  C          8.5000   -7.9050   -0.3860 C.2    93  GLN93       0.2592
     41  O          8.6940   -8.8120   -1.1970 O.2    93  GLN93      -0.2718
     42  CB         8.9640   -8.2540    2.0460 C.3    93  GLN93       0.0381
     43  CG         8.4380   -8.3790    3.4680 C.3    93  GLN93       0.0905
     44  CD         9.5410   -8.5770    4.4880 C.2    93  GLN93       0.2608
     45  OE1       10.4580   -9.3680    4.2790 O.2    93  GLN93      -0.2717
     46  NE2        9.4560   -7.8590    5.6020 N.am   93  GLN93      -0.0878
     47  N          8.8070   -6.6360   -0.6370 N.am   94  ASP94      -0.1960
     48  CA         9.5540   -6.2500   -1.8310 C.3    94  ASP94       0.1840
     49  C         10.8320   -7.0720   -1.9240 C.2    94  ASP94       0.2622
     50  O         11.4950   -7.3130   -0.9150 O.2    94  ASP94      -0.2715
     51  CB         9.9260   -4.7690   -1.7760 C.3    94  ASP94       0.1450
     52  CG         8.7200   -3.8660   -1.6320 C.2    94  ASP94       0.3671
     53  OD1        7.6230   -4.2390   -2.1030 O.co2  94  ASP94      -0.2456
     54  OD2        8.8770   -2.7740   -1.0460 O.co2  94  ASP94      -0.2456
     55  N         11.1750   -7.5110   -3.1290 N.am   95  LEU95      -0.1963
     56  CA        12.3990   -8.2770   -3.3140 C.3    95  LEU95       0.1728
     57  C         13.5990   -7.3370   -3.3410 C.2    95  LEU95       0.2616
     58  O         13.6540   -6.4110   -4.1510 O.2    95  LEU95      -0.2715
     59  CB        12.3350   -9.0930   -4.6060 C.3    95  LEU95       0.0311
     60  CG        13.4430  -10.1210   -4.8190 C.3    95  LEU95       0.0022
     61  CD1       13.4420  -11.1340   -3.6890 C.3    95  LEU95       0.0001
     62  CD2       13.2690  -10.8200   -6.1590 C.3    95  LEU95       0.0001
     63  N         14.5490   -7.5650   -2.4420 N.am   96  MET96      -0.1963
     64  CA        15.7740   -6.7760   -2.4180 C.3    96  MET96       0.1736
     65  C         16.8850   -7.5660   -3.0910 C.2    96  MET96       0.2616
     66  O         16.8820   -8.7940   -3.0740 O.2    96  MET96      -0.2715
     67  CB        16.1750   -6.4280   -0.9820 C.3    96  MET96       0.0427
     68  CG        15.1090   -5.6830   -0.2020 C.3    96  MET96       0.0599
     69  SD        14.7360   -4.0590   -0.8810 S.3    96  MET96      -0.1393
     70  CE        16.1260   -3.1010   -0.2880 C.3    96  MET96       0.0692
     71  N         17.8440   -6.8540   -3.6660 N.am   97  GLU97      -0.1963
     72  CA        18.9200   -7.4820   -4.4220 C.3    97  GLU97       0.1733
     73  C         19.9450   -8.2090   -3.5440 C.2    97  GLU97       0.2617
     74  O         20.3970   -9.2990   -3.8870 O.2    97  GLU97      -0.2715
     75  CB        19.6080   -6.4360   -5.2990 C.3    97  GLU97       0.0429
     76  CG        20.8470   -6.9280   -6.0170 C.3    97  GLU97       0.1163
     77  CD        21.2550   -6.0010   -7.1460 C.2    97  GLU97       0.3649
     78  OE1       20.3550   -5.5370   -7.8770 O.co2  97  GLU97      -0.2457
     79  OE2       22.4670   -5.7310   -7.3000 O.co2  97  GLU97      -0.2457
     80  N         20.3130   -7.6070   -2.4160 N.am   98  THR98      -0.1937
     81  CA        21.3260   -8.1950   -1.5490 C.3    98  THR98       0.2028
     82  C         21.2470   -7.6140   -0.1340 C.2    98  THR98       0.2642
     83  O         20.3380   -6.8460    0.1780 O.2    98  THR98      -0.2714
     84  CB        22.7500   -8.0000   -2.1370 C.3    98  THR98       0.1808
     85  OG1       23.6950   -8.7990   -1.4140 O.3    98  THR98      -0.2208
     86  CG2       23.1700   -6.5390   -2.0810 C.3    98  THR98       0.0379
     87  N         22.1810   -8.0070    0.7260 N.am   99  ASP99      -0.1971
     88  CA        22.3010   -7.4080    2.0490 C.3    99  ASP99       0.1709
     89  C         23.7400   -6.9820    2.3050 C.2    99  ASP99       0.2293
     90  O         24.6470   -7.3720    1.5690 O.2    99  ASP99      -0.2864
     91  CB        21.7840   -8.3450    3.1540 C.3    99  ASP99       0.1436
     92  CG        22.5210   -9.6720    3.2070 C.2    99  ASP99       0.3671
     93  OD1       23.7630   -9.6750    3.3320 O.co2  99  ASP99      -0.2456
     94  OD2       21.8500  -10.7240    3.1300 O.co2  99  ASP99      -0.2456
     95  N         26.5560   -9.8830    2.5540 N.3   102  LYS102     -0.1245
     96  CA        27.0810  -10.4260    1.3000 C.3   102  LYS102      0.1561
     97  C         27.9150   -9.3890    0.5550 C.2   102  LYS102      0.2260
     98  O         28.9520   -9.7080   -0.0200 O.2   102  LYS102     -0.2867
     99  CB        25.9430  -10.9030    0.4010 C.3   102  LYS102      0.0271
    100  CG        25.0260  -11.9150    1.0490 C.3   102  LYS102      0.0035
    101  CD        23.9700  -12.4080    0.0720 C.3   102  LYS102      0.0206
    102  CE        23.1770  -13.5530    0.6670 C.3   102  LYS102      0.1093
    103  NZ        24.0780  -14.6680    1.0750 N.3   102  LYS102     -0.1314
    104  N         19.1590   -4.7040    4.2000 N.3   144  LEU144     -0.1245
    105  CA        18.9480   -5.1100    2.8160 C.3   144  LEU144      0.1561
    106  C         19.1750   -3.9560    1.8430 C.2   144  LEU144      0.2260
    107  O         18.8510   -2.8070    2.1450 O.2   144  LEU144     -0.2867
    108  CB        17.5390   -5.6780    2.6310 C.3   144  LEU144      0.0270
    109  CG        17.2680   -7.0720    3.1990 C.3   144  LEU144      0.0019
    110  CD1       15.8970   -7.5670    2.7840 C.3   144  LEU144      0.0001
    111  CD2       18.3250   -8.0530    2.7480 C.3   144  LEU144      0.0001
@<TRIPOS>BOND
     1    78    77   ar
     2    79    77   ar
     3    77    76    1
     4    62    60    1
     5    76    75    1
     6    75    72    1
     7    60    59    1
     8    60    61    1
     9    59    56    1
    10    72    71    1
    11    72    73    1
    12    58    57    2
    13    74    73    2
    14    71    65   am
    15    73    80   am
    16    57    56    1
    17    57    63   am
    18    56    55    1
    19    55    49   am
    20    65    66    2
    21    65    64    1
    22     6     8    1
    23     6     5    1
    24    63    64    1
    25    64    67    1
    26    80    81    1
    27    16    17    1
    28     1     2    1
    29    84    86    1
    30    84    81    1
    31    84    85    1
    32    53    52   ar
    33     2     5    1
    34     2     3    1
    35    49    48    1
    36    49    50    2
    37    48    51    1
    38    48    47    1
    39    51    52    1
    40    52    54   ar
    41     5     7    1
    42    81    82    1
    43    17    20    1
    44    17    18    1
    45    41    40    2
    46     4     3    2
    47    67    68    1
    48    69    70    1
    49    69    68    1
    50    47    40   am
    51    18    19    2
    52    40    39    1
    53    82    83    2
    54    82    87   am
    55    12    11    2
    56    98    97    2
    57   101   102    1
    58   101   100    1
    59    99   100    1
    60    99    96    1
    61    11    10    1
    62    97    96    1
    63   102   103    1
    64    87    88    1
    65    38    39    1
    66    39    42    1
    67    96    95    1
    68    90    89    2
    69    14    13    1
    70   106   107    2
    71   106   105    1
    72    10    13    1
    73    10     9    1
    74    42    43    1
    75    88    89    1
    76    88    91    1
    77    13    15    1
    78    37    35    1
    79   108   105    1
    80   108   109    1
    81   111   109    1
    82   110   109    1
    83   105   104    1
    84    21    22    1
    85    94    92   ar
    86    91    92    1
    87    92    93   ar
    88    43    44    1
    89    35    34    1
    90    22    23    1
    91    22    25    1
    92    45    44    2
    93    44    46   am
    94    23    24    2
    95    26    25    1
    96    26    27    1
    97    31    34    1
    98    31    32    1
    99    31    30    1
   100    29    28    1
   101    34    36    1
   102    32    33    2
   103    27    28    1
