@<TRIPOS>MOLECULE
tmp/4qp6B00.pdb
 84 76 0 0 0
SMALL
GASTEIGER

@<TRIPOS>ATOM
      1  N         13.5420  -51.6990  -58.8180 N.3    20  ILE20      -0.1245
      2  CA        12.5090  -50.7160  -59.0970 C.3    20  ILE20       0.1561
      3  C         12.1340  -50.1900  -57.7210 C.2    20  ILE20       0.2260
      4  O         12.2360  -48.9950  -57.4490 O.2    20  ILE20      -0.2867
      5  CB        11.2770  -51.3320  -59.7840 C.3    20  ILE20       0.0252
      6  CG1       11.6400  -51.8700  -61.1690 C.3    20  ILE20       0.0019
      7  CG2       10.1640  -50.3030  -59.9020 C.3    20  ILE20       0.0019
      8  CD1       12.0740  -53.3170  -61.1750 C.3    20  ILE20       0.0001
      9  N         10.3280  -53.7520  -54.4940 N.3    28  VAL28      -0.1245
     10  CA        10.0180  -54.4920  -55.7160 C.3    28  VAL28       0.1561
     11  C         11.2510  -54.7230  -56.5900 C.2    28  VAL28       0.2260
     12  O         12.0760  -53.8270  -56.7670 O.2    28  VAL28      -0.2867
     13  CB         8.9210  -53.7590  -56.5330 C.3    28  VAL28       0.0252
     14  CG1        8.9520  -54.1630  -58.0020 C.3    28  VAL28       0.0019
     15  CG2        7.5480  -54.0130  -55.9300 C.3    28  VAL28       0.0019
     16  N          8.4470  -59.4150  -62.4870 N.3    41  ALA41      -0.1245
     17  CA         8.4710  -58.4230  -61.4180 C.3    41  ALA41       0.1562
     18  C          7.9560  -58.9990  -60.1030 C.2    41  ALA41       0.2260
     19  O          6.7520  -59.1800  -59.9250 O.2    41  ALA41      -0.2867
     20  CB         7.6600  -57.1990  -61.8140 C.3    41  ALA41       0.0290
     21  N          6.9730  -58.7390  -56.3330 N.3    43  LYS43      -0.1245
     22  CA         6.5780  -57.7790  -55.3110 C.3    43  LYS43       0.1561
     23  C          6.6220  -58.4210  -53.9290 C.2    43  LYS43       0.2260
     24  O          5.9390  -59.4130  -53.6730 O.2    43  LYS43      -0.2867
     25  CB         5.1820  -57.2210  -55.5930 C.3    43  LYS43       0.0271
     26  CG         4.7200  -56.1900  -54.5750 C.3    43  LYS43       0.0035
     27  CD         3.5280  -55.3860  -55.0800 C.3    43  LYS43       0.0206
     28  CE         2.2900  -56.2510  -55.2450 C.3    43  LYS43       0.1093
     29  NZ         1.0920  -55.4350  -55.5930 N.3    43  LYS43      -0.1314
     30  N         -3.5890  -56.7730  -64.6410 N.3    73  ILE73      -0.1245
     31  CA        -2.4000  -57.5000  -64.2160 C.3    73  ILE73       0.1561
     32  C         -2.8100  -58.7980  -63.5270 C.2    73  ILE73       0.2260
     33  O         -3.8610  -58.8710  -62.8880 O.2    73  ILE73      -0.2867
     34  CB        -1.5020  -56.6430  -63.2850 C.3    73  ILE73       0.0252
     35  CG1       -0.0700  -57.1850  -63.2550 C.3    73  ILE73       0.0019
     36  CG2       -2.0900  -56.5520  -61.8820 C.3    73  ILE73       0.0019
     37  CD1        0.6900  -56.9770  -64.5450 C.3    73  ILE73       0.0001
     38  N          4.8280  -61.0970  -61.0080 N.3    94  GLN94      -0.1231
     39  CA         3.9440  -60.5820  -62.0500 C.3    94  GLN94       0.1698
     40  C          4.6930  -60.2590  -63.3400 C.2    94  GLN94       0.2592
     41  O          5.9220  -60.1820  -63.3530 O.2    94  GLN94      -0.2718
     42  CB         3.2010  -59.3390  -61.5530 C.3    94  GLN94       0.0381
     43  CG         2.2270  -59.6110  -60.4210 C.3    94  GLN94       0.0905
     44  CD         1.5300  -58.3600  -59.9280 C.2    94  GLN94       0.2608
     45  OE1        2.1760  -57.3760  -59.5680 O.2    94  GLN94      -0.2717
     46  NE2        0.2020  -58.3920  -59.9090 N.am   94  GLN94      -0.0878
     47  N          3.9390  -60.0760  -64.4210 N.am   95  ASP95      -0.1960
     48  CA         4.5060  -59.6960  -65.7110 C.3    95  ASP95       0.1840
     49  C          5.2330  -58.3600  -65.6100 C.2    95  ASP95       0.2622
     50  O          4.6730  -57.3760  -65.1280 O.2    95  ASP95      -0.2715
     51  CB         3.4080  -59.6060  -66.7750 C.3    95  ASP95       0.1450
     52  CG         2.8820  -60.9670  -67.1890 C.2    95  ASP95       0.3671
     53  OD1        3.0750  -61.9400  -66.4290 O.co2  95  ASP95      -0.2456
     54  OD2        2.2720  -61.0620  -68.2760 O.co2  95  ASP95      -0.2456
     55  N          6.4820  -58.3320  -66.0630 N.am   96  LEU96      -0.1963
     56  CA         7.2730  -57.1090  -66.0250 C.3    96  LEU96       0.1728
     57  C          6.7670  -56.0930  -67.0430 C.2    96  LEU96       0.2616
     58  O          6.7470  -56.3570  -68.2460 O.2    96  LEU96      -0.2715
     59  CB         8.7520  -57.4140  -66.2740 C.3    96  LEU96       0.0311
     60  CG         9.7110  -56.2210  -66.2370 C.3    96  LEU96       0.0022
     61  CD1        9.7460  -55.5900  -64.8520 C.3    96  LEU96       0.0001
     62  CD2       11.1060  -56.6400  -66.6750 C.3    96  LEU96       0.0001
     63  N          6.3520  -54.9320  -66.5500 N.am   97  MET97      -0.1977
     64  CA         5.9140  -53.8480  -67.4170 C.3    97  MET97       0.1605
     65  C          6.9980  -52.7790  -67.4740 C.2    97  MET97       0.2287
     66  O          7.6590  -52.5070  -66.4730 O.2    97  MET97      -0.2864
     67  CB         4.5990  -53.2540  -66.9100 C.3    97  MET97       0.0413
     68  CG         3.5080  -54.2860  -66.6620 C.3    97  MET97       0.0598
     69  SD         3.0380  -55.2050  -68.1400 S.3    97  MET97      -0.1393
     70  CE         2.2980  -53.9150  -69.1380 C.3    97  MET97       0.0692
     71  N         -0.1880  -49.7440  -65.7920 N.3   144  LEU144     -0.1245
     72  CA         1.1250  -50.1350  -66.2900 C.3   144  LEU144      0.1561
     73  C          1.1480  -50.2240  -67.8140 C.2   144  LEU144      0.2260
     74  O          0.1330  -50.5220  -68.4440 O.2   144  LEU144     -0.2867
     75  CB         1.5430  -51.4660  -65.6690 C.3   144  LEU144      0.0270
     76  CG         1.4550  -51.5150  -64.1420 C.3   144  LEU144      0.0019
     77  CD1        1.7440  -52.9150  -63.6310 C.3   144  LEU144      0.0001
     78  CD2        2.4060  -50.5090  -63.5200 C.3   144  LEU144      0.0001
     79  N         -3.5090  -52.2920  -62.2940 N.3   154  CYS154     -0.1235
     80  CA        -2.9540  -52.9900  -61.1390 C.3   154  CYS154      0.1677
     81  C         -3.4090  -52.3890  -59.8100 C.2   154  CYS154      0.2270
     82  O         -4.2190  -51.4620  -59.7800 O.2   154  CYS154     -0.2867
     83  CB        -1.4240  -53.0180  -61.2100 C.3   154  CYS154      0.0956
     84  SG        -0.6300  -51.4040  -61.0510 S.3   154  CYS154     -0.0801
@<TRIPOS>BOND
     1    70    69    1
     2    74    73    2
     3    54    52   ar
     4    58    57    2
     5    69    68    1
     6    73    72    1
     7    65    64    1
     8    65    66    2
     9    64    67    1
    10    64    63    1
    11    52    51    1
    12    52    53   ar
    13    57    63   am
    14    57    56    1
    15    67    68    1
    16    51    48    1
    17    62    60    1
    18    72    71    1
    19    72    75    1
    20    59    60    1
    21    59    56    1
    22    60    61    1
    23    55    56    1
    24    55    49   am
    25    48    49    1
    26    48    47    1
    27    75    76    1
    28    49    50    2
    29    30    31    1
    30    37    35    1
    31    47    40   am
    32    31    32    1
    33    31    34    1
    34    76    77    1
    35    76    78    1
    36    32    33    2
    37    41    40    2
    38    40    39    1
    39    34    35    1
    40    34    36    1
    41    16    17    1
    42    79    80    1
    43    39    42    1
    44    39    38    1
    45    20    17    1
    46    42    43    1
    47    17    18    1
    48    83    80    1
    49    83    84    1
    50     8     6    1
    51     6     5    1
    52    80    81    1
    53    43    44    1
    54    18    19    2
    55    44    46   am
    56    44    45    2
    57     7     5    1
    58    81    82    2
    59     5     2    1
    60     2     1    1
    61     2     3    1
    62    14    13    1
    63     3     4    2
    64    12    11    2
    65    11    10    1
    66    13    15    1
    67    13    10    1
    68    21    22    1
    69    10     9    1
    70    29    28    1
    71    25    22    1
    72    25    26    1
    73    22    23    1
    74    28    27    1
    75    27    26    1
    76    23    24    2
