@<TRIPOS>MOLECULE
tmp/4qp7A00.pdb
 117 108 0 0 0
SMALL
GASTEIGER

@<TRIPOS>ATOM
      1  N         15.5350  -18.6750   -1.8830 N.3    19  ILE19      -0.1245
      2  CA        16.5380  -17.6570   -1.5890 C.3    19  ILE19       0.1561
      3  C         17.4300  -18.0840   -0.4240 C.2    19  ILE19       0.2260
      4  O         18.6470  -17.9030   -0.4620 O.2    19  ILE19      -0.2867
      5  CB        15.8910  -16.2890   -1.2760 C.3    19  ILE19       0.0252
      6  CG1       15.1040  -15.7810   -2.4840 C.3    19  ILE19       0.0019
      7  CG2       16.9470  -15.2710   -0.8720 C.3    19  ILE19       0.0019
      8  CD1       14.5070  -14.4040   -2.2840 C.3    19  ILE19       0.0001
      9  N         12.7810  -18.6530    3.0000 N.3    27  VAL27      -0.1245
     10  CA        12.5080  -17.4060    2.2970 C.3    27  VAL27       0.1561
     11  C         12.6420  -17.6170    0.7950 C.2    27  VAL27       0.2260
     12  O         13.6900  -18.0440    0.3120 O.2    27  VAL27      -0.2867
     13  CB        13.4710  -16.2900    2.7280 C.3    27  VAL27       0.0252
     14  CG1       13.2100  -15.0260    1.9220 C.3    27  VAL27       0.0019
     15  CG2       13.3390  -16.0210    4.2160 C.3    27  VAL27       0.0019
     16  N          9.3770  -10.9860   -2.4280 N.3    40  ALA40      -0.1245
     17  CA         9.9700  -11.9190   -1.4790 C.3    40  ALA40       0.1562
     18  C          8.8960  -12.4190   -0.5250 C.2    40  ALA40       0.2260
     19  O          8.0210  -11.6590   -0.1150 O.2    40  ALA40      -0.2867
     20  CB        11.0890  -11.2530   -0.7080 C.3    40  ALA40       0.0290
     21  N          8.2780  -14.7160    3.0610 N.3    42  LYS42      -0.1245
     22  CA         8.7530  -15.4200    4.2440 C.3    42  LYS42       0.1561
     23  C          7.7270  -16.4500    4.6750 C.2    42  LYS42       0.2260
     24  O          6.5460  -16.1340    4.7990 O.2    42  LYS42      -0.2867
     25  CB         8.9260  -14.4480    5.4090 C.3    42  LYS42       0.0271
     26  CG        10.1320  -13.5390    5.3610 C.3    42  LYS42       0.0035
     27  CD        10.2100  -12.7680    6.6720 C.3    42  LYS42       0.0206
     28  CE        11.2810  -11.6930    6.6580 C.3    42  LYS42       0.1093
     29  NZ        11.2910  -10.9530    7.9540 N.3    42  LYS42      -0.1314
     30  N         11.7450   -1.8670    5.8750 N.3    72  ILE72      -0.1245
     31  CA        10.9640   -2.7790    5.0500 C.3    72  ILE72       0.1561
     32  C          9.4980   -2.7340    5.4750 C.2    72  ILE72       0.2260
     33  O          9.1840   -2.5360    6.6490 O.2    72  ILE72      -0.2867
     34  CB        11.5090   -4.2330    5.1170 C.3    72  ILE72       0.0252
     35  CG1       10.9330   -5.0870    3.9850 C.3    72  ILE72       0.0019
     36  CG2       11.2220   -4.8690    6.4710 C.3    72  ILE72       0.0019
     37  CD1       11.4830   -4.7410    2.6180 C.3    72  ILE72       0.0001
     38  N          6.8840   -9.3770    1.0130 N.3    93  GLN93      -0.1231
     39  CA         7.5810   -8.0960    1.0700 C.3    93  GLN93       0.1698
     40  C          8.2240   -7.7690   -0.2740 C.2    93  GLN93       0.2592
     41  O          8.3320   -8.6340   -1.1450 O.2    93  GLN93      -0.2718
     42  CB         8.6580   -8.1290    2.1580 C.3    93  GLN93       0.0381
     43  CG         8.1220   -8.3580    3.5600 C.3    93  GLN93       0.0905
     44  CD         9.2130   -8.6800    4.5580 C.2    93  GLN93       0.2608
     45  OE1        9.8660   -9.7180    4.4650 O.2    93  GLN93      -0.2717
     46  NE2        9.4140   -7.7920    5.5260 N.am   93  GLN93      -0.0878
     47  N          8.6460   -6.5170   -0.4370 N.am   94  ASP94      -0.1960
     48  CA         9.3880   -6.1030   -1.6250 C.3    94  ASP94       0.1840
     49  C         10.6450   -6.9420   -1.7650 C.2    94  ASP94       0.2622
     50  O         11.3110   -7.2380   -0.7740 O.2    94  ASP94      -0.2715
     51  CB         9.7920   -4.6300   -1.5260 C.3    94  ASP94       0.1450
     52  CG         8.6060   -3.6940   -1.5520 C.2    94  ASP94       0.3671
     53  OD1        7.5660   -4.0610   -2.1410 O.co2  94  ASP94      -0.2456
     54  OD2        8.7200   -2.5850   -0.9880 O.co2  94  ASP94      -0.2456
     55  N         10.9730   -7.3240   -2.9930 N.am   95  LEU95      -0.1963
     56  CA        12.1970   -8.0730   -3.2370 C.3    95  LEU95       0.1728
     57  C         13.3810   -7.1210   -3.3720 C.2    95  LEU95       0.2616
     58  O         13.4080   -6.2720   -4.2650 O.2    95  LEU95      -0.2715
     59  CB        12.0690   -8.9400   -4.4910 C.3    95  LEU95       0.0311
     60  CG        13.2380   -9.8900   -4.7440 C.3    95  LEU95       0.0022
     61  CD1       13.4270  -10.8060   -3.5480 C.3    95  LEU95       0.0001
     62  CD2       13.0140  -10.7010   -6.0120 C.3    95  LEU95       0.0001
     63  N         14.3510   -7.2570   -2.4740 N.am   96  MET96      -0.1963
     64  CA        15.5690   -6.4630   -2.5460 C.3    96  MET96       0.1736
     65  C         16.6280   -7.2680   -3.2860 C.2    96  MET96       0.2616
     66  O         16.4700   -8.4700   -3.4870 O.2    96  MET96      -0.2715
     67  CB        16.0560   -6.0920   -1.1440 C.3    96  MET96       0.0427
     68  CG        15.0260   -5.3320   -0.3160 C.3    96  MET96       0.0599
     69  SD        14.7160   -3.6630   -0.9260 S.3    96  MET96      -0.1393
     70  CE        16.1420   -2.7890   -0.2840 C.3    96  MET96       0.0692
     71  N         17.7040   -6.6110   -3.6970 N.am   97  GLU97      -0.1963
     72  CA        18.7370   -7.2870   -4.4680 C.3    97  GLU97       0.1733
     73  C         19.6230   -8.1600   -3.5830 C.2    97  GLU97       0.2617
     74  O         19.8950   -9.3140   -3.9120 O.2    97  GLU97      -0.2715
     75  CB        19.5780   -6.2720   -5.2420 C.3    97  GLU97       0.0429
     76  CG        20.7290   -6.8840   -6.0170 C.3    97  GLU97       0.1163
     77  CD        21.3100   -5.9310   -7.0420 C.2    97  GLU97       0.3649
     78  OE1       20.5260   -5.3270   -7.8050 O.co2  97  GLU97      -0.2457
     79  OE2       22.5500   -5.7820   -7.0830 O.co2  97  GLU97      -0.2457
     80  N         20.0610   -7.6060   -2.4560 N.am   98  THR98      -0.1937
     81  CA        20.9550   -8.3120   -1.5490 C.3    98  THR98       0.2028
     82  C         20.9360   -7.6630   -0.1690 C.2    98  THR98       0.2642
     83  O         20.1070   -6.7950    0.1060 O.2    98  THR98      -0.2714
     84  CB        22.4000   -8.3270   -2.0940 C.3    98  THR98       0.1808
     85  OG1       23.2400   -9.1010   -1.2300 O.3    98  THR98      -0.2208
     86  CG2       22.9450   -6.9110   -2.2020 C.3    98  THR98       0.0379
     87  N         21.8390   -8.0960    0.7030 N.am   99  ASP99      -0.1971
     88  CA        21.9870   -7.4610    2.0050 C.3    99  ASP99       0.1709
     89  C         23.4350   -7.0540    2.2450 C.2    99  ASP99       0.2293
     90  O         24.3270   -7.4510    1.4980 O.2    99  ASP99      -0.2864
     91  CB        21.4550   -8.3520    3.1360 C.3    99  ASP99       0.1436
     92  CG        22.1820   -9.6790    3.2390 C.2    99  ASP99       0.3671
     93  OD1       23.4210   -9.6810    3.3840 O.co2  99  ASP99      -0.2456
     94  OD2       21.5060  -10.7290    3.1830 O.co2  99  ASP99      -0.2456
     95  N         26.2560   -9.8550    2.5700 N.3   102  LYS102     -0.1245
     96  CA        26.7740  -10.4140    1.3250 C.3   102  LYS102      0.1561
     97  C         27.6520   -9.3990    0.6080 C.2   102  LYS102      0.2260
     98  O         28.7070   -9.7410    0.0730 O.2   102  LYS102     -0.2867
     99  CB        25.6300  -10.8310    0.4030 C.3   102  LYS102      0.0271
    100  CG        24.6970  -11.8750    0.9840 C.3   102  LYS102      0.0035
    101  CD        23.6350  -12.2600   -0.0300 C.3   102  LYS102      0.0206
    102  CE        22.6400  -13.2520    0.5420 C.3   102  LYS102      0.1093
    103  NZ        21.6110  -13.6110   -0.4720 N.3   102  LYS102     -0.1314
    104  N         19.0190   -4.4660    4.0910 N.3   144  LEU144     -0.1245
    105  CA        18.8200   -4.8660    2.7040 C.3   144  LEU144      0.1561
    106  C         19.1040   -3.7160    1.7410 C.2   144  LEU144      0.2260
    107  O         18.8180   -2.5590    2.0390 O.2   144  LEU144     -0.2867
    108  CB        17.3960   -5.3820    2.5060 C.3   144  LEU144      0.0270
    109  CG        16.9420   -6.4730    3.4820 C.3   144  LEU144      0.0019
    110  CD1       15.4670   -6.7890    3.2900 C.3   144  LEU144      0.0001
    111  CD2       17.7810   -7.7350    3.3250 C.3   144  LEU144      0.0001
    112  N         15.3950   -4.4290    8.2890 N.3   154  CYS154     -0.1235
    113  CA        14.3870   -5.4810    8.3550 C.3   154  CYS154      0.1677
    114  C         14.4850   -6.2970    9.6400 C.2   154  CYS154      0.2270
    115  O         15.3720   -6.0710   10.4650 O.2   154  CYS154     -0.2867
    116  CB        14.4970   -6.4050    7.1410 C.3   154  CYS154      0.0956
    117  SG        15.9410   -7.4830    7.1590 S.3   154  CYS154     -0.0801
@<TRIPOS>BOND
     1    78    77   ar
     2    79    77   ar
     3    77    76    1
     4    76    75    1
     5    62    60    1
     6    75    72    1
     7    60    59    1
     8    60    61    1
     9    59    56    1
    10    72    71    1
    11    72    73    1
    12    58    57    2
    13    74    73    2
    14    71    65   am
    15    73    80   am
    16    66    65    2
    17    57    56    1
    18    57    63   am
    19    65    64    1
    20    56    55    1
    21    55    49   am
    22    64    63    1
    23    64    67    1
    24     6     8    1
    25     6     5    1
    26    80    81    1
    27    16    17    1
    28    86    84    1
    29    53    52   ar
    30    84    81    1
    31    84    85    1
    32     1     2    1
    33    49    48    1
    34    49    50    2
    35    48    51    1
    36    48    47    1
    37     2     5    1
    38     2     3    1
    39    52    51    1
    40    52    54   ar
    41    81    82    1
    42    17    20    1
    43    17    18    1
    44     5     7    1
    45    41    40    2
    46    67    68    1
    47    69    68    1
    48    69    70    1
    49    18    19    2
    50   103   102    1
    51     4     3    2
    52    47    40   am
    53    40    39    1
    54    82    83    2
    55    82    87   am
    56   101   102    1
    57   101   100    1
    58    98    97    2
    59    12    11    2
    60    99   100    1
    61    99    96    1
    62    97    96    1
    63    87    88    1
    64    11    10    1
    65    38    39    1
    66    39    42    1
    67    96    95    1
    68    90    89    2
    69   106   107    2
    70   106   105    1
    71    14    13    1
    72    88    89    1
    73    88    91    1
    74    42    43    1
    75    10    13    1
    76    10     9    1
    77   108   105    1
    78   108   109    1
    79    37    35    1
    80   105   104    1
    81    13    15    1
    82    21    22    1
    83    91    92    1
    84    94    92   ar
    85    92    93   ar
    86   110   109    1
    87   111   109    1
    88    43    44    1
    89    35    34    1
    90    22    23    1
    91    22    25    1
    92    45    44    2
    93    44    46   am
    94    23    24    2
    95    31    34    1
    96    31    32    1
    97    31    30    1
    98    34    36    1
    99    26    25    1
   100    26    27    1
   101    32    33    2
   102    28    27    1
   103    28    29    1
   104   116   117    1
   105   116   113    1
   106   112   113    1
   107   113   114    1
   108   114   115    2
