@<TRIPOS>MOLECULE
tmp/4qp8B00.pdb
 151 141 0 0 0
SMALL
GASTEIGER

@<TRIPOS>ATOM
      1  N         15.6010  -18.2950   -1.6200 N.3    19  ILE19      -0.1245
      2  CA        16.5690  -17.2600   -1.2780 C.3    19  ILE19       0.1561
      3  C         17.4470  -17.7400   -0.1280 C.2    19  ILE19       0.2260
      4  O         18.6480  -17.9460   -0.2890 O.2    19  ILE19      -0.2867
      5  CB        15.8850  -15.9470   -0.8400 C.3    19  ILE19       0.0252
      6  CG1       14.9200  -15.4400   -1.9140 C.3    19  ILE19       0.0019
      7  CG2       16.9290  -14.8900   -0.5110 C.3    19  ILE19       0.0019
      8  CD1       15.5920  -14.7790   -3.0930 C.3    19  ILE19       0.0001
      9  N         14.0160  -16.4800   11.3950 N.3    24  TYR24      -0.1241
     10  CA        12.8470  -15.7540   10.9230 C.3    24  TYR24       0.1605
     11  C         11.9570  -16.6620   10.0850 C.2    24  TYR24       0.2264
     12  O         10.7780  -16.3720    9.8760 O.2    24  TYR24      -0.2867
     13  CB        13.2860  -14.5410   10.0970 C.3    24  TYR24       0.0534
     14  CG        14.4110  -14.8520    9.1320 C.ar   24  TYR24      -0.0201
     15  CD1       15.7380  -14.6400    9.4890 C.ar   24  TYR24      -0.0009
     16  CD2       14.1480  -15.3730    7.8710 C.ar   24  TYR24      -0.0009
     17  CE1       16.7690  -14.9310    8.6140 C.ar   24  TYR24       0.0417
     18  CE2       15.1720  -15.6680    6.9910 C.ar   24  TYR24       0.0417
     19  CZ        16.4790  -15.4450    7.3660 C.ar   24  TYR24       0.1957
     20  OH        17.4990  -15.7370    6.4900 O.3    24  TYR24      -0.2866
     21  N         12.7880  -17.9340    3.4130 N.3    27  VAL27      -0.1245
     22  CA        12.5170  -16.8560    2.4670 C.3    27  VAL27       0.1561
     23  C         12.6970  -17.2820    1.0130 C.2    27  VAL27       0.2260
     24  O         13.7260  -17.8500    0.6450 O.2    27  VAL27      -0.2867
     25  CB        13.4190  -15.6330    2.7370 C.3    27  VAL27       0.0252
     26  CG1       13.2360  -14.5810    1.6550 C.3    27  VAL27       0.0019
     27  CG2       13.1250  -15.0460    4.1060 C.3    27  VAL27       0.0019
     28  N          9.1500  -10.9880   -2.3200 N.3    40  ALA40      -0.1245
     29  CA         9.7740  -11.9110   -1.3820 C.3    40  ALA40       0.1562
     30  C          8.7390  -12.4790   -0.4110 C.2    40  ALA40       0.2260
     31  O          7.9330  -11.7390    0.1500 O.2    40  ALA40      -0.2867
     32  CB        10.8890  -11.2120   -0.6220 C.3    40  ALA40       0.0290
     33  N          8.1630  -14.7330    3.0760 N.3    42  LYS42      -0.1245
     34  CA         8.7520  -15.3120    4.2740 C.3    42  LYS42       0.1561
     35  C          7.7640  -16.2730    4.9290 C.2    42  LYS42       0.2260
     36  O          6.7090  -15.8540    5.4030 O.2    42  LYS42      -0.2867
     37  CB         9.1290  -14.2080    5.2620 C.3    42  LYS42       0.0271
     38  CG         9.9400  -14.6930    6.4460 C.3    42  LYS42       0.0035
     39  CD         9.8780  -13.7150    7.6110 C.3    42  LYS42       0.0206
     40  CE        10.3100  -12.3240    7.2000 C.3    42  LYS42       0.1093
     41  NZ        10.5560  -11.4540    8.3850 N.3    42  LYS42      -0.1314
     42  N         11.7390   -1.9900    5.9590 N.3    72  ILE72      -0.1245
     43  CA        10.9680   -2.9370    5.1630 C.3    72  ILE72       0.1561
     44  C          9.5050   -2.9210    5.6100 C.2    72  ILE72       0.2260
     45  O          9.2060   -2.7730    6.7990 O.2    72  ILE72      -0.2867
     46  CB        11.5470   -4.3710    5.2650 C.3    72  ILE72       0.0252
     47  CG1       10.9640   -5.2740    4.1760 C.3    72  ILE72       0.0019
     48  CG2       11.3110   -4.9630    6.6480 C.3    72  ILE72       0.0019
     49  CD1       11.5120   -4.9900    2.7930 C.3    72  ILE72       0.0001
     50  N          6.8220   -9.4330    1.2040 N.3    93  GLN93      -0.1231
     51  CA         7.5190   -8.1560    1.2920 C.3    93  GLN93       0.1698
     52  C          8.1590   -7.7930   -0.0400 C.2    93  GLN93       0.2592
     53  O          8.2490   -8.6270   -0.9400 O.2    93  GLN93      -0.2718
     54  CB         8.5860   -8.2100    2.3870 C.3    93  GLN93       0.0381
     55  CG         8.0220   -8.5110    3.7670 C.3    93  GLN93       0.0905
     56  CD         9.0910   -8.6210    4.8330 C.2    93  GLN93       0.2608
     57  OE1        9.9000   -9.5460    4.8230 O.2    93  GLN93      -0.2717
     58  NE2        9.0970   -7.6770    5.7660 N.am   93  GLN93      -0.0878
     59  N          8.5940   -6.5430   -0.1650 N.am   94  ASP94      -0.1960
     60  CA         9.3200   -6.1060   -1.3500 C.3    94  ASP94       0.1840
     61  C         10.5640   -6.9600   -1.5400 C.2    94  ASP94       0.2622
     62  O         11.2110   -7.3430   -0.5670 O.2    94  ASP94      -0.2715
     63  CB         9.7260   -4.6370   -1.2210 C.3    94  ASP94       0.1450
     64  CG         8.5500   -3.6900   -1.3400 C.2    94  ASP94       0.3671
     65  OD1        7.4740   -4.1240   -1.8030 O.co2  94  ASP94      -0.2456
     66  OD2        8.7100   -2.5030   -0.9840 O.co2  94  ASP94      -0.2456
     67  N         10.8980   -7.2640   -2.7900 N.am   95  LEU95      -0.1963
     68  CA        12.0960   -8.0460   -3.0730 C.3    95  LEU95       0.1728
     69  C         13.3080   -7.1470   -3.2870 C.2    95  LEU95       0.2616
     70  O         13.3340   -6.3340   -4.2120 O.2    95  LEU95      -0.2715
     71  CB        11.8940   -8.9380   -4.2990 C.3    95  LEU95       0.0311
     72  CG        13.0680   -9.8630   -4.6240 C.3    95  LEU95       0.0022
     73  CD1       13.3380  -10.7910   -3.4560 C.3    95  LEU95       0.0001
     74  CD2       12.7930  -10.6580   -5.8880 C.3    95  LEU95       0.0001
     75  N         14.3080   -7.2930   -2.4240 N.am   96  MET96      -0.1963
     76  CA        15.5520   -6.5550   -2.5790 C.3    96  MET96       0.1736
     77  C         16.5540   -7.4360   -3.3100 C.2    96  MET96       0.2616
     78  O         16.3650   -8.6490   -3.4160 O.2    96  MET96      -0.2715
     79  CB        16.1070   -6.1280   -1.2190 C.3    96  MET96       0.0427
     80  CG        15.1100   -5.3720   -0.3540 C.3    96  MET96       0.0599
     81  SD        14.6820   -3.7500   -1.0150 S.3    96  MET96      -0.1393
     82  CE        16.1000   -2.7820   -0.5050 C.3    96  MET96       0.0692
     83  N         17.6180   -6.8260   -3.8120 N.am   97  GLU97      -0.1963
     84  CA        18.6090   -7.5520   -4.5890 C.3    97  GLU97       0.1733
     85  C         19.5350   -8.3690   -3.6920 C.2    97  GLU97       0.2617
     86  O         19.8310   -9.5270   -3.9830 O.2    97  GLU97      -0.2715
     87  CB        19.4140   -6.5780   -5.4500 C.3    97  GLU97       0.0429
     88  CG        20.4950   -7.2260   -6.2930 C.3    97  GLU97       0.1163
     89  CD        21.1820   -6.2330   -7.2140 C.2    97  GLU97       0.3649
     90  OE1       20.4940   -5.3280   -7.7320 O.co2  97  GLU97      -0.2457
     91  OE2       22.4090   -6.3530   -7.4180 O.co2  97  GLU97      -0.2457
     92  N         19.9810   -7.7640   -2.5960 N.am   98  THR98      -0.1937
     93  CA        20.9160   -8.4170   -1.6890 C.3    98  THR98       0.2028
     94  C         20.9240   -7.7250   -0.3290 C.2    98  THR98       0.2642
     95  O         20.0750   -6.8820   -0.0480 O.2    98  THR98      -0.2714
     96  CB        22.3450   -8.4330   -2.2770 C.3    98  THR98       0.1808
     97  OG1       23.2030   -9.2320   -1.4520 O.3    98  THR98      -0.2208
     98  CG2       22.9020   -7.0210   -2.3790 C.3    98  THR98       0.0379
     99  N         21.8790   -8.0930    0.5170 N.am   99  ASP99      -0.1971
    100  CA        22.0190   -7.4600    1.8220 C.3    99  ASP99       0.1709
    101  C         23.4800   -7.1220    2.1120 C.2    99  ASP99       0.2293
    102  O         24.3760   -7.5380    1.3790 O.2    99  ASP99      -0.2864
    103  CB        21.4300   -8.3460    2.9260 C.3    99  ASP99       0.1436
    104  CG        22.2190   -9.6150    3.1380 C.2    99  ASP99       0.3671
    105  OD1       23.2920   -9.5400    3.7660 O.co2  99  ASP99      -0.2456
    106  OD2       21.7650  -10.6870    2.6890 O.co2  99  ASP99      -0.2456
    107  N         26.2750  -10.0020    2.4940 N.3   102  LYS102     -0.1245
    108  CA        26.7630  -10.5770    1.2470 C.3   102  LYS102      0.1561
    109  C         27.6060   -9.5610    0.4900 C.2   102  LYS102      0.2260
    110  O         28.6560   -9.8940   -0.0590 O.2   102  LYS102     -0.2867
    111  CB        25.5950  -11.0380    0.3750 C.3   102  LYS102      0.0271
    112  CG        24.6930  -12.0610    1.0430 C.3   102  LYS102      0.0035
    113  CD        23.6010  -12.5470    0.1010 C.3   102  LYS102      0.0206
    114  CE        22.6890  -13.5460    0.7950 C.3   102  LYS102      0.1093
    115  NZ        21.6760  -14.1170   -0.1370 N.3   102  LYS102     -0.1314
    116  N         23.3780   -8.5350    7.8170 N.3   141  SER141     -0.1202
    117  CA        22.4030   -9.3610    7.1100 C.3   141  SER141      0.2020
    118  C         20.9650   -8.8940    7.3350 C.2   141  SER141      0.2618
    119  O         20.0540   -9.3200    6.6260 O.2   141  SER141     -0.2717
    120  CB        22.5490  -10.8310    7.5080 C.3   141  SER141      0.2103
    121  OG        22.3650  -10.9920    8.9000 O.3   141  SER141     -0.2182
    122  N         20.7630   -8.0290    8.3240 N.am  142  ASN142     -0.1974
    123  CA        19.4460   -7.4420    8.5570 C.3   142  ASN142      0.1688
    124  C         19.2750   -6.1250    7.8140 C.2   142  ASN142      0.2292
    125  O         18.2900   -5.4110    8.0100 O.2   142  ASN142     -0.2864
    126  CB        19.1860   -7.2380   10.0500 C.3   142  ASN142      0.1181
    127  CG        18.6960   -8.4980   10.7300 C.2   142  ASN142      0.2629
    128  OD1       18.3500   -9.4800   10.0690 O.2   142  ASN142     -0.2716
    129  ND2       18.6510   -8.4760   12.0580 N.am  142  ASN142     -0.0877
    130  N         18.9920   -4.6930    4.0720 N.3   144  LEU144     -0.1245
    131  CA        18.7780   -5.0550    2.6800 C.3   144  LEU144      0.1561
    132  C         19.1470   -3.9130    1.7310 C.2   144  LEU144      0.2260
    133  O         18.9830   -2.7400    2.0590 O.2   144  LEU144     -0.2867
    134  CB        17.3270   -5.4830    2.4750 C.3   144  LEU144      0.0270
    135  CG        16.8640   -6.5770    3.4490 C.3   144  LEU144      0.0019
    136  CD1       15.4150   -6.9740    3.2050 C.3   144  LEU144      0.0001
    137  CD2       17.7730   -7.8000    3.3750 C.3   144  LEU144      0.0001
    138  N         15.4110   -4.7010    8.1910 N.3   154  CYS154     -0.1221
    139  CA        14.4030   -5.7540    8.2560 C.3   154  CYS154      0.1808
    140  C         14.5260   -6.6010    9.5180 C.2   154  CYS154      0.2601
    141  O         15.3880   -6.3510   10.3640 O.2   154  CYS154     -0.2717
    142  CB        14.4840   -6.6540    7.0230 C.3   154  CYS154      0.0970
    143  SG        15.9360   -7.7260    6.9840 S.3   154  CYS154     -0.0800
    144  N         13.6510   -7.6030    9.6200 N.am  155  ASP155     -0.1973
    145  CA        13.6340   -8.5610   10.7280 C.3   155  ASP155      0.1709
    146  C         13.4800   -7.9040   12.0960 C.2   155  ASP155      0.2293
    147  O         14.4630   -7.6580   12.7940 O.2   155  ASP155     -0.2864
    148  CB        14.8810   -9.4470   10.7110 C.3   155  ASP155      0.1436
    149  CG        14.6850  -10.7420   11.4840 C.2   155  ASP155      0.3671
    150  OD1       13.6670  -10.8680   12.2020 O.co2 155  ASP155     -0.2456
    151  OD2       15.5530  -11.6330   11.3710 O.co2 155  ASP155     -0.2456
@<TRIPOS>BOND
     1    90    89   ar
     2    91    89   ar
     3    89    88    1
     4    88    87    1
     5    74    72    1
     6    87    84    1
     7    72    71    1
     8    72    73    1
     9    84    83    1
    10    84    85    1
    11    71    68    1
    12    70    69    2
    13    86    85    2
    14    83    77   am
    15    85    92   am
    16    78    77    2
    17    77    76    1
    18    69    68    1
    19    69    75   am
    20     8     6    1
    21    68    67    1
    22    67    61   am
    23    92    93    1
    24    76    75    1
    25    76    79    1
    26    98    96    1
    27    28    29    1
    28    96    93    1
    29    96    97    1
    30     6     5    1
    31    65    64   ar
    32    93    94    1
    33     1     2    1
    34    61    60    1
    35    61    62    2
    36    29    32    1
    37    29    30    1
    38    60    63    1
    39    60    59    1
    40    64    63    1
    41    64    66   ar
    42     2     5    1
    43     2     3    1
    44    79    80    1
    45    81    82    1
    46    81    80    1
    47    53    52    2
    48     5     7    1
    49    30    31    2
    50    94    95    2
    51    94    99   am
    52     4     3    2
    53    59    52   am
    54   115   114    1
    55   110   109    2
    56    52    51    1
    57   113   114    1
    58   113   112    1
    59   111   112    1
    60   111   108    1
    61   109   108    1
    62    99   100    1
    63    24    23    2
    64    23    22    1
    65    50    51    1
    66   108   107    1
    67    51    54    1
    68   102   101    2
    69    26    25    1
    70   132   133    2
    71   132   131    1
    72   100   101    1
    73   100   103    1
    74    54    55    1
    75    22    25    1
    76    22    21    1
    77   134   131    1
    78   134   135    1
    79   131   130    1
    80   106   104   ar
    81    25    27    1
    82    49    47    1
    83   103   104    1
    84    33    34    1
    85   104   105   ar
    86   136   135    1
    87   137   135    1
    88    55    56    1
    89    47    46    1
    90    34    35    1
    91    34    37    1
    92    57    56    2
    93    56    58   am
    94    35    36    2
    95    43    46    1
    96    43    44    1
    97    43    42    1
    98    37    38    1
    99    46    48    1
   100    44    45    2
   101    38    39    1
   102    20    19    1
   103   119   118    2
   104   143   142    1
   105    18    19   ar
   106    18    16   ar
   107   142   139    1
   108   117   118    1
   109   117   120    1
   110   117   116    1
   111    40    39    1
   112    40    41    1
   113   118   122   am
   114    19    17   ar
   115   120   121    1
   116   124   125    2
   117   124   123    1
   118    16    14   ar
   119   138   139    1
   120   139   140    1
   121   122   123    1
   122   123   126    1
   123    17    15   ar
   124    14    15   ar
   125    14    13    1
   126   140   144   am
   127   140   141    2
   128   144   145    1
   129    12    11    2
   130   126   127    1
   131   128   127    2
   132    11    10    1
   133    13    10    1
   134   148   145    1
   135   148   149    1
   136   145   146    1
   137   127   129   am
   138    10     9    1
   139   151   149   ar
   140   149   150   ar
   141   146   147    2
