@<TRIPOS>MOLECULE
tmp/4qp9A00.pdb
 160 149 0 0 0
SMALL
GASTEIGER

@<TRIPOS>ATOM
      1  N         -4.3070   18.0750   15.1960 N.3    19  ILE19      -0.1245
      2  CA        -4.2100   17.0370   16.2080 C.3    19  ILE19       0.1561
      3  C         -3.1770   17.4500   17.2480 C.2    19  ILE19       0.2260
      4  O         -3.4790   17.5580   18.4360 O.2    19  ILE19      -0.2867
      5  CB        -3.7850   15.6920   15.6110 C.3    19  ILE19       0.0252
      6  CG1       -4.9140   15.0790   14.7900 C.3    19  ILE19       0.0019
      7  CG2       -3.3730   14.7110   16.7260 C.3    19  ILE19       0.0019
      8  CD1       -4.5050   13.8140   14.0810 C.3    19  ILE19       0.0001
      9  N          8.4640   16.0510   16.5420 N.3    24  TYR24      -0.1241
     10  CA         8.2670   15.2220   15.3680 C.3    24  TYR24       0.1605
     11  C          7.7420   16.0380   14.1870 C.2    24  TYR24       0.2264
     12  O          7.7980   15.5960   13.0420 O.2    24  TYR24      -0.2867
     13  CB         7.2780   14.1080   15.7200 C.3    24  TYR24       0.0534
     14  CG         6.0590   14.6210   16.4580 C.ar   24  TYR24      -0.0201
     15  CD1        5.9770   14.5570   17.8440 C.ar   24  TYR24      -0.0009
     16  CD2        5.0000   15.1930   15.7620 C.ar   24  TYR24      -0.0009
     17  CE1        4.8590   15.0350   18.5090 C.ar   24  TYR24       0.0417
     18  CE2        3.8880   15.6700   16.4150 C.ar   24  TYR24       0.0417
     19  CZ         3.8170   15.5920   17.7840 C.ar   24  TYR24       0.1957
     20  OH         2.6940   16.0840   18.4130 O.3    24  TYR24      -0.2866
     21  N          1.0500   17.3620   13.2840 N.3    27  VAL27      -0.1245
     22  CA         0.1510   16.3060   12.8150 C.3    27  VAL27       0.1561
     23  C         -1.2950   16.8060   12.7350 C.2    27  VAL27       0.2260
     24  O         -1.8020   17.3910   13.7010 O.2    27  VAL27      -0.2867
     25  CB         0.1930   15.1090   13.7750 C.3    27  VAL27       0.0252
     26  CG1       -0.8320   14.0520   13.3790 C.3    27  VAL27       0.0019
     27  CG2        1.5790   14.5160   13.7960 C.3    27  VAL27       0.0019
     28  N         -4.1750   10.5080    8.8360 N.3    40  ALA40      -0.1245
     29  CA        -3.3020   11.4350    9.5720 C.3    40  ALA40       0.1562
     30  C         -2.1620   11.8730    8.6660 C.2    40  ALA40       0.2260
     31  O         -1.6720   11.0850    7.8540 O.2    40  ALA40      -0.2867
     32  CB        -2.7330   10.7810   10.8260 C.3    40  ALA40       0.0290
     33  N          1.5810   14.0270    8.8190 N.3    42  LYS42      -0.1245
     34  CA         2.6140   14.6900    9.6160 C.3    42  LYS42       0.1561
     35  C          3.4710   15.5920    8.7430 C.2    42  LYS42       0.2260
     36  O          4.0770   15.1380    7.7790 O.2    42  LYS42      -0.2867
     37  CB         3.4910   13.6470   10.3120 C.3    42  LYS42       0.0271
     38  CG         4.7100   14.2380   11.0110 C.3    42  LYS42       0.0035
     39  CD         5.3040   13.2480   12.0140 C.3    42  LYS42       0.0206
     40  CE         5.8280   12.0030   11.3320 C.3    42  LYS42       0.1093
     41  NZ         6.6940   11.2070   12.2520 N.3    42  LYS42      -0.1314
     42  N          2.9190    1.4320   12.5790 N.3    72  ILE72      -0.1245
     43  CA         2.3140    2.4040   11.6720 C.3    72  ILE72       0.1561
     44  C          2.9790    2.3030   10.2990 C.2    72  ILE72       0.2260
     45  O          4.1840    2.1000   10.1890 O.2    72  ILE72      -0.2867
     46  CB         2.4260    3.8480   12.2340 C.3    72  ILE72       0.0252
     47  CG1        1.4280    4.7850   11.5310 C.3    72  ILE72       0.0019
     48  CG2        3.8620    4.3660   12.1520 C.3    72  ILE72       0.0019
     49  CD1       -0.0160    4.4410   11.8720 C.3    72  ILE72       0.0001
     50  N         -0.3630    8.8660    7.0480 N.3    93  GLN93      -0.1231
     51  CA        -0.4560    7.6040    7.7760 C.3    93  GLN93       0.1698
     52  C         -1.9090    7.3280    8.1570 C.2    93  GLN93       0.2592
     53  O         -2.7670    8.2220    8.0780 O.2    93  GLN93      -0.2718
     54  CB         0.4110    7.6430    9.0550 C.3    93  GLN93       0.0381
     55  CG         1.8830    7.9280    8.7980 C.3    93  GLN93       0.0905
     56  CD         2.7140    8.0240   10.0570 C.2    93  GLN93       0.2608
     57  OE1        2.3590    8.7130   11.0030 O.2    93  GLN93      -0.2717
     58  NE2        3.8420    7.3420   10.0610 N.am   93  GLN93      -0.0878
     59  N         -2.1800    6.0890    8.5690 N.am   94  ASP94      -0.1960
     60  CA        -3.4940    5.7050    9.0760 C.3    94  ASP94       0.1840
     61  C         -3.9360    6.6050   10.2160 C.2    94  ASP94       0.2622
     62  O         -3.1320    6.9680   11.0730 O.2    94  ASP94      -0.2715
     63  CB        -3.4680    4.2550    9.5710 C.3    94  ASP94       0.1450
     64  CG        -3.4400    3.2410    8.4300 C.2    94  ASP94       0.3671
     65  OD1       -3.7540    3.6230    7.2750 O.co2  94  ASP94      -0.2456
     66  OD2       -3.1140    2.0570    8.6950 O.co2  94  ASP94      -0.2456
     67  N         -5.2100    6.9720   10.2360 N.am   95  LEU95      -0.1963
     68  CA        -5.7050    7.7910   11.3300 C.3    95  LEU95       0.1728
     69  C         -6.2040    6.9190   12.4590 C.2    95  LEU95       0.2616
     70  O         -7.1690    6.1860   12.3020 O.2    95  LEU95      -0.2715
     71  CB        -6.8260    8.7180   10.8630 C.3    95  LEU95       0.0311
     72  CG        -7.4400    9.6610   11.9070 C.3    95  LEU95       0.0022
     73  CD1       -6.4000   10.5830   12.5220 C.3    95  LEU95       0.0001
     74  CD2       -8.5670   10.4740   11.2630 C.3    95  LEU95       0.0001
     75  N         -5.5470    7.0050   13.6070 N.am   96  MET96      -0.1963
     76  CA        -5.9950    6.2620   14.7700 C.3    96  MET96       0.1736
     77  C         -6.8290    7.1940   15.6460 C.2    96  MET96       0.2616
     78  O         -6.9100    8.3910   15.3770 O.2    96  MET96      -0.2715
     79  CB        -4.7750    5.7460   15.5420 C.3    96  MET96       0.0427
     80  CG        -3.8600    4.8760   14.6940 C.3    96  MET96       0.0599
     81  SD        -4.6610    3.3020   14.3470 S.3    96  MET96      -0.1393
     82  CE        -4.5620    2.5430   15.9600 C.3    96  MET96       0.0692
     83  N         -7.4200    6.6510   16.7040 N.am   97  GLU97      -0.1963
     84  CA        -8.3370    7.4030   17.5520 C.3    97  GLU97       0.1733
     85  C         -7.5850    8.2310   18.5930 C.2    97  GLU97       0.2617
     86  O         -7.9200    9.3810   18.8550 O.2    97  GLU97      -0.2715
     87  CB        -9.3030    6.4370   18.2500 C.3    97  GLU97       0.0429
     88  CG       -10.1920    7.0840   19.3010 C.3    97  GLU97       0.1163
     89  CD       -10.8490    6.0660   20.2370 C.2    97  GLU97       0.3649
     90  OE1      -12.1000    5.9810   20.2460 O.co2  97  GLU97      -0.2457
     91  OE2      -10.1200    5.3560   20.9730 O.co2  97  GLU97      -0.2457
     92  N         -6.5620    7.6410   19.1980 N.am   98  THR98      -0.1937
     93  CA        -5.8980    8.3120   20.3040 C.3    98  THR98       0.2028
     94  C         -4.5100    7.7170   20.5280 C.2    98  THR98       0.2642
     95  O         -4.0610    6.8620   19.7640 O.2    98  THR98      -0.2714
     96  CB        -6.7540    8.2100   21.5800 C.3    98  THR98       0.1808
     97  OG1       -6.2340    9.0730   22.5960 O.3    98  THR98      -0.2208
     98  CG2       -6.8060    6.7550   22.0790 C.3    98  THR98       0.0379
     99  N         -3.8120    8.1900   21.5520 N.am   99  ASP99      -0.1971
    100  CA        -2.5650    7.5380   21.9440 C.3    99  ASP99       0.1709
    101  C         -2.6560    7.0890   23.3920 C.2    99  ASP99       0.2293
    102  O         -3.5590    7.5000   24.1230 O.2    99  ASP99      -0.2864
    103  CB        -1.3560    8.4380   21.6850 C.3    99  ASP99       0.1436
    104  CG        -1.4150    9.7510   22.4480 C.2    99  ASP99       0.3671
    105  OD1       -1.8910    9.7640   23.5980 O.co2  99  ASP99      -0.2456
    106  OD2       -0.9770   10.7820   21.8940 O.co2  99  ASP99      -0.2456
    107  N         -2.7470    9.8730   26.1900 N.3   102  LYS102     -0.1245
    108  CA        -4.0140   10.5250   26.4750 C.3   102  LYS102      0.1561
    109  C         -4.9600    9.5790   27.2050 C.2   102  LYS102      0.2260
    110  O         -5.6720    9.9720   28.1350 O.2   102  LYS102     -0.2867
    111  CB        -4.6590   11.0420   25.1770 C.3   102  LYS102      0.0271
    112  CG        -3.8420   12.1330   24.4790 C.3   102  LYS102      0.0035
    113  CD        -4.6220   12.8320   23.3700 C.3   102  LYS102      0.0206
    114  CE        -3.7380   13.8470   22.6470 C.3   102  LYS102      0.1093
    115  NZ        -4.5100   14.8120   21.8100 N.3   102  LYS102     -0.1314
    116  N          7.3010    5.1500   24.2460 N.3   139  LYS139     -0.1245
    117  CA         6.6450    5.8990   25.3150 C.3   139  LYS139      0.1561
    118  C          5.1530    5.9400   25.0040 C.2   139  LYS139      0.2260
    119  O          4.7590    5.6580   23.8720 O.2   139  LYS139     -0.2867
    120  CB         7.2300    7.3120   25.4140 C.3   139  LYS139      0.0271
    121  CG         7.1040    8.1520   24.1310 C.3   139  LYS139      0.0035
    122  CD         7.8170    9.5000   24.3020 C.3   139  LYS139      0.0206
    123  CE         8.0080   10.1920   22.9650 C.3   139  LYS139      0.1093
    124  NZ         8.3830   11.6320   23.1550 N.3   139  LYS139     -0.1314
    125  N          3.0560    8.1920   24.3140 N.3   141  SER141     -0.1202
    126  CA         2.5280    9.0500   23.2720 C.3   141  SER141      0.2020
    127  C          2.8660    8.5150   21.8740 C.2   141  SER141      0.2618
    128  O          2.3290    9.0030   20.8800 O.2   141  SER141     -0.2717
    129  CB         2.9770   10.5050   23.4580 C.3   141  SER141      0.2103
    130  OG         4.3860   10.5940   23.4040 O.3   141  SER141     -0.2182
    131  N          3.7460    7.5270   21.7520 N.am  142  ASN142     -0.1974
    132  CA         3.8720    6.9730   20.4010 C.3   142  ASN142      0.1688
    133  C          3.3250    5.5560   20.2570 C.2   142  ASN142      0.2292
    134  O          3.7620    4.7950   19.4030 O.2   142  ASN142     -0.2864
    135  CB         5.2550    7.1540   19.7870 C.3   142  ASN142      0.1181
    136  CG         6.3560    6.6280   20.6670 C.2   142  ASN142      0.2629
    137  OD1        6.1610    5.6630   21.3920 O.2   142  ASN142     -0.2716
    138  ND2        7.5240    7.2740   20.6150 N.am  142  ASN142     -0.0877
    139  N         -0.2420    4.2370   19.3950 N.3   144  LEU144     -0.1245
    140  CA        -1.5200    4.7500   18.9030 C.3   144  LEU144      0.1561
    141  C         -2.5680    3.6640   19.0270 C.2   144  LEU144      0.2260
    142  O         -2.2770    2.4760   18.8250 O.2   144  LEU144     -0.2867
    143  CB        -1.4110    5.1860   17.4420 C.3   144  LEU144      0.0270
    144  CG        -0.2750    6.1490   17.0830 C.3   144  LEU144      0.0019
    145  CD1       -0.2160    6.3210   15.5690 C.3   144  LEU144      0.0001
    146  CD2       -0.4670    7.5080   17.7690 C.3   144  LEU144      0.0001
    147  N          4.4380    4.0040   16.5550 N.3   154  CYS154     -0.1221
    148  CA         4.8500    4.9890   15.5680 C.3   154  CYS154      0.1808
    149  C          6.1260    5.7250   15.9970 C.2   154  CYS154      0.2601
    150  O          6.7630    5.3440   16.9860 O.2   154  CYS154     -0.2717
    151  CB         3.7200    5.9930   15.2870 C.3   154  CYS154      0.0970
    152  SG         3.3460    7.1230   16.6350 S.3   154  CYS154     -0.0800
    153  N          6.5150    6.7380   15.2200 N.am  155  ASP155     -0.1973
    154  CA         7.5950    7.6580   15.6150 C.3   155  ASP155      0.1709
    155  C          8.9790    6.9920   15.6480 C.2   155  ASP155      0.2293
    156  O          9.5420    6.7660   16.7210 O.2   155  ASP155     -0.2864
    157  CB         7.2610    8.2330   16.9950 C.3   155  ASP155      0.1436
    158  CG         7.9570    9.5490   17.2770 C.2   155  ASP155      0.3671
    159  OD1        8.5040   10.1640   16.3340 O.co2 155  ASP155     -0.2456
    160  OD2        7.9450    9.9660   18.4590 O.co2 155  ASP155     -0.2456
@<TRIPOS>BOND
     1    50    51    1
     2    65    64   ar
     3    51    52    1
     4    51    54    1
     5    36    35    2
     6    31    30    2
     7    53    52    2
     8    52    59   am
     9    64    66   ar
    10    64    63    1
    11    59    60    1
    12    30    29    1
    13    35    34    1
    14    55    54    1
    15    55    56    1
    16    33    34    1
    17    28    29    1
    18    60    63    1
    19    60    61    1
    20    29    32    1
    21    34    37    1
    22    56    58   am
    23    56    57    2
    24    45    44    2
    25    61    67   am
    26    61    62    2
    27    67    68    1
    28    44    43    1
    29    37    38    1
    30    71    68    1
    31    71    72    1
    32    38    39    1
    33    74    72    1
    34    68    69    1
    35    40    39    1
    36    40    41    1
    37    47    49    1
    38    47    46    1
    39    43    46    1
    40    43    42    1
    41    72    73    1
    42    48    46    1
    43    70    69    2
    44    69    75   am
    45    23    22    1
    46    23    24    2
    47    22    21    1
    48    22    25    1
    49    12    11    2
    50    26    25    1
    51    75    76    1
    52    25    27    1
    53     8     6    1
    54    11    10    1
    55    81    80    1
    56    81    82    1
    57    80    79    1
    58    76    79    1
    59    76    77    1
    60     6     5    1
    61     1     2    1
    62   153   154    1
    63   153   149   am
    64   151   148    1
    65   151   152    1
    66    10    13    1
    67    10     9    1
    68    78    77    2
    69   148   149    1
    70   148   147    1
    71   145   144    1
    72     5     2    1
    73     5     7    1
    74   154   155    1
    75   154   157    1
    76    77    83   am
    77   155   156    2
    78    13    14    1
    79    16    18   ar
    80    16    14   ar
    81   149   150    2
    82     2     3    1
    83   159   158   ar
    84    18    19   ar
    85    14    15   ar
    86    83    84    1
    87   157   158    1
    88   144   143    1
    89   144   146    1
    90     3     4    2
    91   158   160   ar
    92   143   140    1
    93    84    87    1
    94    84    85    1
    95    19    20    1
    96    19    17   ar
    97    15    17   ar
    98    87    88    1
    99    85    86    2
   100    85    92   am
   101   142   141    2
   102   140   141    1
   103   140   139    1
   104    92    93    1
   105    88    89    1
   106   134   133    2
   107    95    94    2
   108   135   132    1
   109   135   136    1
   110    89    90   ar
   111    89    91   ar
   112   133   132    1
   113    93    94    1
   114    93    96    1
   115   132   131    1
   116    94    99   am
   117   138   136   am
   118   136   137    2
   119   128   127    2
   120    99   100    1
   121    96    98    1
   122    96    97    1
   123   103   100    1
   124   103   104    1
   125   131   127   am
   126   115   114    1
   127   127   126    1
   128   106   104   ar
   129   100   101    1
   130   104   105   ar
   131   114   113    1
   132   123   124    1
   133   123   122    1
   134   126   129    1
   135   126   125    1
   136   113   112    1
   137   101   102    2
   138   130   129    1
   139   119   118    2
   140   121   122    1
   141   121   120    1
   142   116   117    1
   143   112   111    1
   144   118   117    1
   145   111   108    1
   146   117   120    1
   147   107   108    1
   148   108   109    1
   149   109   110    2
