@<TRIPOS>MOLECULE
tmp/4qpaA00.pdb
 182 171 0 0 0
SMALL
GASTEIGER

@<TRIPOS>ATOM
      1  N         13.3960  -51.3740  -58.4880 N.3    17  ILE17      -0.1245
      2  CA        12.4770  -50.5450  -59.2600 C.3    17  ILE17       0.1561
      3  C         11.8950  -49.4680  -58.3480 C.2    17  ILE17       0.2260
      4  O         11.3750  -48.4490  -58.8090 O.2    17  ILE17      -0.2867
      5  CB        11.3390  -51.3860  -59.8850 C.3    17  ILE17       0.0252
      6  CG1       11.9040  -52.6320  -60.5700 C.3    17  ILE17       0.0019
      7  CG2       10.5330  -50.5630  -60.8810 C.3    17  ILE17       0.0019
      8  CD1       10.8610  -53.4480  -61.3030 C.3    17  ILE17       0.0001
      9  N         10.0870  -48.6720  -54.1250 N.3    19  GLU19      -0.1231
     10  CA         9.3110  -49.2120  -53.0210 C.3    19  GLU19       0.1699
     11  C          7.9780  -48.4820  -52.9640 C.2    19  GLU19       0.2593
     12  O          7.9190  -47.2620  -53.1220 O.2    19  GLU19      -0.2718
     13  CB        10.0650  -49.0670  -51.6930 C.3    19  GLU19       0.0402
     14  CG         9.2770  -48.3590  -50.5950 C.3    19  GLU19       0.1161
     15  CD         9.2090  -49.1520  -49.3050 C.2    19  GLU19       0.3649
     16  OE1       10.1310  -49.9530  -49.0450 O.co2  19  GLU19      -0.2457
     17  OE2        8.2290  -48.9730  -48.5500 O.co2  19  GLU19      -0.2457
     18  N          6.9050  -49.2340  -52.7650 N.am   20  GLY20      -0.1942
     19  CA         5.5980  -48.6360  -52.5940 C.3    20  GLY20       0.2014
     20  C          5.1760  -48.7730  -51.1510 C.2    20  GLY20       0.2639
     21  O          5.8260  -48.2410  -50.2500 O.2    20  GLY20      -0.2714
     22  N          4.0870  -49.4970  -50.9290 N.am   21  ALA21      -0.1963
     23  CA         3.6440  -49.7760  -49.5770 C.3    21  ALA21       0.1728
     24  C          4.6650  -50.6710  -48.8790 C.2    21  ALA21       0.2616
     25  O          5.0940  -50.3720  -47.7640 O.2    21  ALA21      -0.2715
     26  CB         2.2690  -50.4200  -49.5920 C.3    21  ALA21       0.0334
     27  N          5.0680  -51.7540  -49.5450 N.am   22  TYR22      -0.1960
     28  CA         6.0130  -52.7080  -48.9570 C.3    22  TYR22       0.1771
     29  C          7.1300  -53.1310  -49.8980 C.2    22  TYR22       0.2620
     30  O          6.9440  -53.9840  -50.7640 O.2    22  TYR22      -0.2715
     31  CB         5.2660  -53.9160  -48.3820 C.3    22  TYR22       0.0574
     32  CG         3.8070  -53.6040  -48.3520 C.ar   22  TYR22      -0.0198
     33  CD1        3.2950  -52.7200  -47.4140 C.ar   22  TYR22      -0.0009
     34  CD2        2.9550  -54.1130  -49.3170 C.ar   22  TYR22      -0.0009
     35  CE1        1.9680  -52.3860  -47.4150 C.ar   22  TYR22       0.0417
     36  CE2        1.6300  -53.7890  -49.3230 C.ar   22  TYR22       0.0417
     37  CZ         1.1420  -52.9280  -48.3730 C.ar   22  TYR22       0.1957
     38  OH        -0.1850  -52.6140  -48.4060 O.3    22  TYR22      -0.2866
     39  N          8.2860  -52.4960  -49.7140 N.am   23  GLY23      -0.1954
     40  CA         9.5170  -52.8360  -50.4070 C.3    23  GLY23       0.1869
     41  C          9.4220  -53.0620  -51.9020 C.2    23  GLY23       0.2309
     42  O          8.5260  -52.5470  -52.5720 O.2    23  GLY23      -0.2863
     43  N          8.5060  -55.2320  -55.1920 N.3    25  VAL25      -0.1245
     44  CA         8.8680  -54.5890  -56.4800 C.3    25  VAL25       0.1561
     45  C         10.3270  -54.5920  -56.9890 C.2    25  VAL25       0.2260
     46  O         11.0670  -53.6170  -56.8470 O.2    25  VAL25      -0.2867
     47  CB         8.1260  -53.2210  -56.7220 C.3    25  VAL25       0.0252
     48  CG1        8.5890  -52.1290  -55.7710 C.3    25  VAL25       0.0019
     49  CG2        8.2740  -52.7800  -58.1740 C.3    25  VAL25       0.0019
     50  N          8.3520  -59.4310  -62.6350 N.3    38  ALA38      -0.1245
     51  CA         8.3390  -58.4640  -61.5450 C.3    38  ALA38       0.1562
     52  C          7.7800  -59.0750  -60.2670 C.2    38  ALA38       0.2260
     53  O          6.5830  -59.3390  -60.1700 O.2    38  ALA38      -0.2867
     54  CB         7.5370  -57.2350  -61.9390 C.3    38  ALA38       0.0290
     55  N          6.7630  -58.7590  -56.3930 N.3    40  LYS40      -0.1245
     56  CA         6.4150  -57.8220  -55.3330 C.3    40  LYS40       0.1561
     57  C          6.5040  -58.5300  -53.9830 C.2    40  LYS40       0.2260
     58  O          5.9130  -59.5910  -53.7960 O.2    40  LYS40      -0.2867
     59  CB         5.0080  -57.2610  -55.5480 C.3    40  LYS40       0.0271
     60  CG         4.6430  -56.1350  -54.5970 C.3    40  LYS40       0.0035
     61  CD         3.1780  -55.7390  -54.7210 C.3    40  LYS40       0.0206
     62  CE         2.8680  -55.1020  -56.0630 C.3    40  LYS40       0.1093
     63  NZ         1.4520  -54.6420  -56.1220 N.3    40  LYS40      -0.1314
     64  N         -6.2970  -58.3410  -52.8830 N.3    57  GLU57      -0.1245
     65  CA        -5.6530  -58.3010  -54.1860 C.3    57  GLU57       0.1567
     66  C         -5.3410  -59.7100  -54.6670 C.2    57  GLU57       0.2260
     67  O         -5.4430  -60.0040  -55.8540 O.2    57  GLU57      -0.2867
     68  CB        -4.3770  -57.4580  -54.1360 C.3    57  GLU57       0.0388
     69  CG        -3.8110  -57.1180  -55.5050 C.3    57  GLU57       0.1160
     70  CD        -2.5660  -56.2570  -55.4280 C.2    57  GLU57       0.3649
     71  OE1       -1.8490  -56.3340  -54.4090 O.co2  57  GLU57      -0.2457
     72  OE2       -2.3050  -55.4990  -56.3860 O.co2  57  GLU57      -0.2457
     73  N         -3.7030  -56.9230  -64.6810 N.3    70  ILE70      -0.1245
     74  CA        -2.5050  -57.6510  -64.2780 C.3    70  ILE70       0.1561
     75  C         -2.8770  -58.9670  -63.5960 C.2    70  ILE70       0.2260
     76  O         -3.8680  -59.0450  -62.8660 O.2    70  ILE70      -0.2867
     77  CB        -1.6010  -56.7930  -63.3520 C.3    70  ILE70       0.0252
     78  CG1       -0.2020  -57.4020  -63.2310 C.3    70  ILE70       0.0019
     79  CG2       -2.2370  -56.6010  -61.9830 C.3    70  ILE70       0.0019
     80  CD1        0.6440  -57.2370  -64.4740 C.3    70  ILE70       0.0001
     81  N          4.4460  -61.1730  -60.9170 N.3    91  GLN91      -0.1231
     82  CA         3.5880  -60.6840  -61.9880 C.3    91  GLN91       0.1698
     83  C          4.3960  -60.4010  -63.2500 C.2    91  GLN91       0.2592
     84  O          5.6280  -60.4240  -63.2240 O.2    91  GLN91      -0.2718
     85  CB         2.8450  -59.4240  -61.5350 C.3    91  GLN91       0.0381
     86  CG         1.8460  -59.6700  -60.4100 C.3    91  GLN91       0.0905
     87  CD         1.2910  -58.3890  -59.8130 C.2    91  GLN91       0.2608
     88  OE1        2.0310  -57.5750  -59.2630 O.2    91  GLN91      -0.2717
     89  NE2       -0.0220  -58.2100  -59.9140 N.am   91  GLN91      -0.0878
     90  N          3.6990  -60.1460  -64.3540 N.am   92  ASP92      -0.1960
     91  CA         4.3520  -59.7940  -65.6110 C.3    92  ASP92       0.1840
     92  C          5.1410  -58.4980  -65.4610 C.2    92  ASP92       0.2622
     93  O          4.6880  -57.5610  -64.8040 O.2    92  ASP92      -0.2715
     94  CB         3.3190  -59.6500  -66.7320 C.3    92  ASP92       0.1450
     95  CG         2.7590  -60.9860  -67.1870 C.2    92  ASP92       0.3671
     96  OD1        2.9140  -61.9830  -66.4500 O.co2  92  ASP92      -0.2456
     97  OD2        2.1610  -61.0380  -68.2830 O.co2  92  ASP92      -0.2456
     98  N          6.3250  -58.4500  -66.0590 N.am   93  LEU93      -0.1963
     99  CA         7.1510  -57.2510  -65.9950 C.3    93  LEU93       0.1728
    100  C          6.7230  -56.2440  -67.0520 C.2    93  LEU93       0.2616
    101  O          6.8210  -56.5080  -68.2500 O.2    93  LEU93      -0.2715
    102  CB         8.6290  -57.5970  -66.1720 C.3    93  LEU93       0.0311
    103  CG         9.6020  -56.4140  -66.1250 C.3    93  LEU93       0.0022
    104  CD1        9.5670  -55.7340  -64.7610 C.3    93  LEU93       0.0001
    105  CD2       11.0140  -56.8600  -66.4710 C.3    93  LEU93       0.0001
    106  N          6.2390  -55.0920  -66.6020 N.am   94  MET94      -0.1963
    107  CA         5.8330  -54.0320  -67.5150 C.3    94  MET94       0.1736
    108  C          6.9180  -52.9630  -67.5740 C.2    94  MET94       0.2616
    109  O          7.5920  -52.6990  -66.5790 O.2    94  MET94      -0.2715
    110  CB         4.5000  -53.4260  -67.0800 C.3    94  MET94       0.0427
    111  CG         3.4050  -54.4500  -66.8350 C.3    94  MET94       0.0599
    112  SD         2.9410  -55.3820  -68.3070 S.3    94  MET94      -0.1393
    113  CE         2.1910  -54.1040  -69.3140 C.3    94  MET94       0.0692
    114  N          7.0840  -52.3530  -68.7440 N.am   95  GLU95      -0.1963
    115  CA         8.1500  -51.3780  -68.9560 C.3    95  GLU95       0.1733
    116  C          7.9920  -50.1320  -68.0850 C.2    95  GLU95       0.2617
    117  O          8.9600  -49.6510  -67.4960 O.2    95  GLU95      -0.2715
    118  CB         8.2360  -50.9840  -70.4340 C.3    95  GLU95       0.0429
    119  CG         9.4050  -50.0660  -70.7630 C.3    95  GLU95       0.1163
    120  CD        10.7520  -50.6910  -70.4280 C.2    95  GLU95       0.3649
    121  OE1       10.8870  -51.9280  -70.5580 O.co2  95  GLU95      -0.2457
    122  OE2       11.6750  -49.9470  -70.0310 O.co2  95  GLU95      -0.2457
    123  N          6.7700  -49.6190  -67.9990 N.am   96  THR96      -0.1937
    124  CA         6.5120  -48.4120  -67.2250 C.3    96  THR96       0.2028
    125  C          5.0270  -48.2690  -66.9000 C.2    96  THR96       0.2642
    126  O          4.2700  -49.2310  -67.0140 O.2    96  THR96      -0.2714
    127  CB         6.9950  -47.1620  -67.9740 C.3    96  THR96       0.1808
    128  OG1        6.6880  -45.9970  -67.2000 O.3    96  THR96      -0.2208
    129  CG2        6.3180  -47.0580  -69.3320 C.3    96  THR96       0.0379
    130  N          4.6190  -47.0710  -66.4850 N.am   97  ASP97      -0.1971
    131  CA         3.2030  -46.7840  -66.2570 C.3    97  ASP97       0.1709
    132  C          2.7850  -45.4390  -66.8600 C.2    97  ASP97       0.2293
    133  O          3.6160  -44.7130  -67.4050 O.2    97  ASP97      -0.2864
    134  CB         2.8440  -46.8710  -64.7650 C.3    97  ASP97       0.1436
    135  CG         3.6670  -45.9350  -63.9010 C.2    97  ASP97       0.3671
    136  OD1        3.7530  -44.7330  -64.2270 O.co2  97  ASP97      -0.2456
    137  OD2        4.2270  -46.4030  -62.8860 O.co2  97  ASP97      -0.2456
    138  N          4.6000  -42.2100  -65.2310 N.3   100  LYS100     -0.1245
    139  CA         5.9360  -41.9110  -65.7330 C.3   100  LYS100      0.1561
    140  C          5.8990  -41.3990  -67.1680 C.2   100  LYS100      0.2260
    141  O          6.6810  -40.5280  -67.5450 O.2   100  LYS100     -0.2867
    142  CB         6.8220  -43.1530  -65.6660 C.3   100  LYS100      0.0271
    143  CG         7.0770  -43.6610  -64.2680 C.3   100  LYS100      0.0035
    144  CD         7.9790  -44.8760  -64.2940 C.3   100  LYS100      0.0206
    145  CE         8.3730  -45.2900  -62.8890 C.3   100  LYS100      0.1093
    146  NZ         9.3330  -46.4270  -62.9060 N.3   100  LYS100     -0.1314
    147  N         -0.5880  -44.0400  -62.1500 N.3   138  SER138     -0.1202
    148  CA         0.4620  -44.9160  -61.6380 C.3   138  SER138      0.2020
    149  C         -0.0170  -46.3540  -61.4330 C.2   138  SER138      0.2618
    150  O          0.7840  -47.2420  -61.1540 O.2   138  SER138     -0.2717
    151  CB         1.0560  -44.3580  -60.3390 C.3   138  SER138      0.2103
    152  OG         0.0940  -44.3330  -59.2970 O.3   138  SER138     -0.2182
    153  N         -1.3200  -46.5830  -61.5670 N.am  139  ASN139     -0.1974
    154  CA        -1.8720  -47.9310  -61.4460 C.3   139  ASN139      0.1688
    155  C         -2.2300  -48.5310  -62.8020 C.2   139  ASN139      0.2292
    156  O         -2.8640  -49.5850  -62.8890 O.2   139  ASN139     -0.2864
    157  CB        -3.0820  -47.9540  -60.5050 C.3   139  ASN139      0.1181
    158  CG        -2.6800  -47.8940  -59.0380 C.2   139  ASN139      0.2629
    159  OD1       -1.5170  -48.1040  -58.6940 O.2   139  ASN139     -0.2716
    160  ND2       -3.6460  -47.6150  -58.1660 N.am  139  ASN139     -0.0877
    161  N         -0.2870  -49.9190  -65.8680 N.3   141  LEU141     -0.1245
    162  CA         1.0220  -50.3260  -66.3570 C.3   141  LEU141      0.1561
    163  C          1.0450  -50.3950  -67.8840 C.2   141  LEU141      0.2260
    164  O          0.0610  -50.7860  -68.5160 O.2   141  LEU141     -0.2867
    165  CB         1.4070  -51.6750  -65.7510 C.3   141  LEU141      0.0270
    166  CG         1.2050  -51.8020  -64.2380 C.3   141  LEU141      0.0019
    167  CD1        1.4050  -53.2420  -63.7840 C.3   141  LEU141      0.0001
    168  CD2        2.1350  -50.8610  -63.4870 C.3   141  LEU141      0.0001
    169  N         -3.5610  -52.2900  -62.3600 N.3   151  CYS151     -0.1221
    170  CA        -2.9940  -52.9750  -61.2000 C.3   151  CYS151      0.1808
    171  C         -3.4250  -52.3500  -59.8710 C.2   151  CYS151      0.2601
    172  O         -4.2110  -51.4030  -59.8440 O.2   151  CYS151     -0.2717
    173  CB        -1.4670  -53.0230  -61.2930 C.3   151  CYS151      0.0970
    174  SG        -0.6410  -51.4480  -61.0060 S.3   151  CYS151     -0.0800
    175  N         -2.8970  -52.8960  -58.7780 N.am  152  ASP152     -0.1973
    176  CA        -3.2280  -52.4750  -57.4100 C.3   152  ASP152      0.1709
    177  C         -4.7200  -52.5760  -57.0620 C.2   152  ASP152      0.2293
    178  O         -5.4530  -51.5880  -57.1010 O.2   152  ASP152     -0.2864
    179  CB        -2.6850  -51.0740  -57.1040 C.3   152  ASP152      0.1436
    180  CG        -2.6910  -50.7610  -55.6140 C.2   152  ASP152      0.3671
    181  OD1       -2.7220  -51.7150  -54.8070 O.co2 152  ASP152     -0.2456
    182  OD2       -2.6610  -49.5650  -55.2480 O.co2 152  ASP152     -0.2456
@<TRIPOS>BOND
     1   119   118    1
     2   119   120    1
     3   121   120   ar
     4   118   115    1
     5   120   122   ar
     6   129   127    1
     7   113   112    1
     8   115   114    1
     9   115   116    1
    10   114   108   am
    11   164   163    2
    12   112   111    1
    13    97    95   ar
    14   101   100    2
    15   116   123   am
    16   116   117    2
    17   123   124    1
    18   127   124    1
    19   127   128    1
    20   163   162    1
    21   108   107    1
    22   108   109    2
    23   141   140    2
    24   107   110    1
    25   107   106    1
    26   133   132    2
    27   124   125    1
    28    95    94    1
    29    95    96   ar
    30   140   139    1
    31   110   111    1
    32   100   106   am
    33   100    99    1
    34   126   125    2
    35   125   130   am
    36   132   131    1
    37    94    91    1
    38   130   131    1
    39   105   103    1
    40   162   161    1
    41   162   165    1
    42   131   134    1
    43   102   103    1
    44   102    99    1
    45   103   104    1
    46    98    99    1
    47    98    92   am
    48   165   166    1
    49   139   142    1
    50   139   138    1
    51   142   143    1
    52    91    92    1
    53    91    90    1
    54    92    93    2
    55   134   135    1
    56    73    74    1
    57    80    78    1
    58    90    83   am
    59   144   143    1
    60   144   145    1
    61    74    75    1
    62    74    77    1
    63   166   167    1
    64   166   168    1
    65   136   135   ar
    66   135   137   ar
    67    75    76    2
    68    77    78    1
    69    77    79    1
    70    83    84    2
    71    83    82    1
    72   146   145    1
    73   156   155    2
    74   155   154    1
    75    50    51    1
    76   169   170    1
    77   147   148    1
    78    82    85    1
    79    82    81    1
    80    54    51    1
    81   148   149    1
    82   148   151    1
    83   153   154    1
    84   153   149   am
    85    51    52    1
    86    85    86    1
    87   154   157    1
    88   149   150    2
    89     8     6    1
    90   173   170    1
    91   173   174    1
    92   170   171    1
    93     7     5    1
    94     6     5    1
    95   157   158    1
    96    86    87    1
    97   151   152    1
    98    52    53    2
    99    89    87   am
   100     5     2    1
   101   171   172    2
   102   171   175   am
   103    87    88    2
   104     2     1    1
   105     2     3    1
   106   158   159    2
   107   158   160   am
   108     4     3    2
   109   175   176    1
   110    49    47    1
   111   176   179    1
   112   176   177    1
   113   179   180    1
   114   178   177    2
   115    45    46    2
   116    45    44    1
   117    47    44    1
   118    47    48    1
   119    44    43    1
   120    55    56    1
   121    72    70   ar
   122    63    62    1
   123    62    61    1
   124    67    66    2
   125   180   182   ar
   126   180   181   ar
   127    59    56    1
   128    59    60    1
   129    69    70    1
   130    69    68    1
   131    70    71   ar
   132    56    57    1
   133    61    60    1
   134    66    65    1
   135    65    68    1
   136    65    64    1
   137     9    10    1
   138    57    58    2
   139    12    11    2
   140    10    11    1
   141    10    13    1
   142    11    18   am
   143    18    19    1
   144    19    20    1
   145    42    41    2
   146    41    40    1
   147    13    14    1
   148    20    22   am
   149    20    21    2
   150    22    23    1
   151    30    29    2
   152    14    15    1
   153    40    39    1
   154    29    39   am
   155    29    28    1
   156    26    23    1
   157    23    24    1
   158    27    28    1
   159    27    24   am
   160    36    34   ar
   161    36    37   ar
   162    34    32   ar
   163    15    16   ar
   164    15    17   ar
   165    28    31    1
   166    24    25    2
   167    38    37    1
   168    31    32    1
   169    37    35   ar
   170    32    33   ar
   171    35    33   ar
