@<TRIPOS>MOLECULE
tmp/4qpdB01.pdb
 112 109 0 0 0
SMALL
GASTEIGER

@<TRIPOS>ATOM
      1  N         12.0320   12.7900   18.9540 N.3   254  HIS254     -0.1226
      2  CA        12.2390   12.1240   20.2400 C.3   254  HIS254      0.1752
      3  C         13.6990   12.0010   20.7370 C.2   254  HIS254      0.2596
      4  O         13.9380   12.2990   21.9080 O.2   254  HIS254     -0.2718
      5  CB        11.6040   10.7260   20.2120 C.3   254  HIS254      0.0759
      6  CG        10.1930   10.6850   20.7070 C.ar  254  HIS254      0.0818
      7  ND1        9.7100   11.5540   21.6630 N.ar  254  HIS254     -0.2268
      8  CD2        9.1590    9.8710   20.3850 C.ar  254  HIS254      0.1154
      9  CE1        8.4400   11.2790   21.9040 C.ar  254  HIS254      0.1986
     10  NE2        8.0820   10.2620   21.1410 N.ar  254  HIS254     -0.2212
     11  N         14.6850   11.5890   19.9260 N.am  255  PHE255     -0.1962
     12  CA        14.6460   11.3790   18.4740 C.3   255  PHE255      0.1771
     13  C         13.8590   10.1480   18.0190 C.2   255  PHE255      0.2620
     14  O         14.0240    9.0500   18.5530 O.2   255  PHE255     -0.2715
     15  CB        16.0910   11.2920   17.9530 C.3   255  PHE255      0.0574
     16  CG        16.2130   10.8450   16.5180 C.ar  255  PHE255     -0.0200
     17  CD1       16.3590   11.7710   15.5010 C.ar  255  PHE255     -0.0042
     18  CD2       16.2210    9.4970   16.1900 C.ar  255  PHE255     -0.0042
     19  CE1       16.4850   11.3610   14.1880 C.ar  255  PHE255     -0.0003
     20  CE2       16.3330    9.0890   14.8780 C.ar  255  PHE255     -0.0003
     21  CZ        16.4760   10.0170   13.8780 C.ar  255  PHE255     -0.0000
     22  N         13.0070   10.3530   17.0180 N.am  256  SER256     -0.1936
     23  CA        12.2440    9.2780   16.3910 C.3   256  SER256      0.2055
     24  C         13.0120    8.7030   15.2020 C.2   256  SER256      0.2644
     25  O         13.4650    9.4660   14.3490 O.2   256  SER256     -0.2714
     26  CB        10.8810    9.7930   15.9230 C.3   256  SER256      0.2130
     27  OG        11.0230   10.6150   14.7760 O.3   256  SER256     -0.2179
     28  N         13.1340    7.3780   15.1010 N.am  257  SER257     -0.1935
     29  CA        12.4660    6.4130   15.9720 C.3   257  SER257      0.2055
     30  C         13.2450    5.0960   16.0300 C.2   257  SER257      0.2643
     31  O         14.1260    4.8560   15.2050 O.2   257  SER257     -0.2714
     32  CB        11.0380    6.1490   15.4820 C.3   257  SER257      0.2130
     33  OG        10.4860    4.9990   16.0960 O.3   257  SER257     -0.2179
     34  N         12.9010    4.2490   16.9980 N.am  258  ASN258     -0.1957
     35  CA        13.5190    2.9310   17.1670 C.3   258  ASN258      0.1819
     36  C         15.0440    2.9890   17.2430 C.2   258  ASN258      0.2621
     37  O         15.7390    2.2460   16.5480 O.2   258  ASN258     -0.2715
     38  CB        13.0890    1.9830   16.0450 C.3   258  ASN258      0.1195
     39  CG        12.7950    0.5760   16.5490 C.2   258  ASN258      0.2630
     40  OD1       12.1440    0.3950   17.5790 O.2   258  ASN258     -0.2716
     41  ND2       13.2770   -0.4250   15.8230 N.am  258  ASN258     -0.0877
     42  N         15.5600    3.8750   18.0890 N.am  259  GLY259     -0.1954
     43  CA        16.9920    3.9680   18.3130 C.3   259  GLY259      0.1869
     44  C         17.4970    2.8020   19.1420 C.2   259  GLY259      0.2309
     45  O         16.7530    2.2370   19.9450 O.2   259  GLY259     -0.2863
     46  N         20.1640    1.5550   22.0150 N.3   261  PRO261     -0.2116
     47  CA        21.0080    2.1040   23.0850 C.3   261  PRO261      0.1372
     48  C         22.4750    1.7170   22.9480 C.2   261  PRO261      0.2244
     49  O         22.7910    0.5690   22.6070 O.2   261  PRO261     -0.2868
     50  CB        20.4060    1.4990   24.3600 C.3   261  PRO261      0.0268
     51  CG        19.6350    0.2970   23.8970 C.3   261  PRO261      0.0207
     52  CD        19.1220    0.6520   22.5340 C.3   261  PRO261      0.0892
     53  N         25.7810   11.0350   30.5750 N.3   268  SER268     -0.1202
     54  CA        24.6920   11.2650   31.5300 C.3   268  SER268      0.2020
     55  C         23.6680   10.1390   31.5010 C.2   268  SER268      0.2618
     56  O         23.1150    9.7610   32.5410 O.2   268  SER268     -0.2717
     57  CB        24.0050   12.5990   31.2490 C.3   268  SER268      0.2103
     58  OG        24.8640   13.6840   31.5410 O.3   268  SER268     -0.2182
     59  N         23.4190    9.6240   30.3000 N.am  269  ARG269     -0.1979
     60  CA        22.7070    8.3630   30.1040 C.3   269  ARG269      0.1597
     61  C         23.1740    7.7650   28.7720 C.2   269  ARG269      0.2287
     62  O         23.8820    8.4280   28.0100 O.2   269  ARG269     -0.2864
     63  CB        21.1840    8.5640   30.1240 C.3   269  ARG269      0.0334
     64  CG        20.6450    9.5440   29.0810 C.3   269  ARG269      0.0492
     65  CD        19.3500    9.0180   28.4700 C.3   269  ARG269      0.2205
     66  NE        19.6260    7.9060   27.5650 N.pl3 269  ARG269     -0.0865
     67  CZ        18.7220    7.0270   27.1440 C.cat 269  ARG269      0.5346
     68  NH1       19.0860    6.0570   26.3180 N.pl3 269  ARG269      0.1354
     69  NH2       17.4610    7.1090   27.5480 N.pl3 269  ARG269      0.1354
     70  N         22.0800    6.8580   21.8140 N.3   272  LEU272     -0.1245
     71  CA        21.1490    6.1180   20.9700 C.3   272  LEU272      0.1561
     72  C         21.6470    6.1360   19.5300 C.2   272  LEU272      0.2260
     73  O         21.8450    7.2090   18.9440 O.2   272  LEU272     -0.2867
     74  CB        19.7320    6.7010   21.0680 C.3   272  LEU272      0.0270
     75  CG        18.9920    6.4510   22.3900 C.3   272  LEU272      0.0019
     76  CD1       17.7180    7.2840   22.5060 C.3   272  LEU272      0.0001
     77  CD2       18.6720    4.9720   22.5630 C.3   272  LEU272      0.0001
     78  N         23.1730   12.5530   24.9330 N.3   281  PHE281     -0.1227
     79  CA        22.4510   13.2900   25.9710 C.3   281  PHE281      0.1736
     80  C         23.3990   14.1000   26.8590 C.2   281  PHE281      0.2596
     81  O         24.4680   13.6090   27.2360 O.2   281  PHE281     -0.2718
     82  CB        21.6230   12.3160   26.8230 C.3   281  PHE281      0.0547
     83  CG        20.5020   11.6440   26.0670 C.ar  281  PHE281     -0.0202
     84  CD1       19.2530   12.2460   25.9760 C.ar  281  PHE281     -0.0042
     85  CD2       20.6950   10.4140   25.4490 C.ar  281  PHE281     -0.0042
     86  CE1       18.2150   11.6360   25.2830 C.ar  281  PHE281     -0.0003
     87  CE2       19.6580    9.7950   24.7550 C.ar  281  PHE281     -0.0003
     88  CZ        18.4210   10.4090   24.6720 C.ar  281  PHE281     -0.0000
     89  N         23.0150   15.3370   27.1850 N.am  282  GLY282     -0.1942
     90  CA        23.8040   16.1700   28.0890 C.3   282  GLY282      0.2014
     91  C         23.3150   16.1040   29.5340 C.2   282  GLY282      0.2638
     92  O         22.2990   15.4700   29.8210 O.2   282  GLY282     -0.2714
     93  N         24.0220   16.7630   30.4500 N.am  283  ASN283     -0.1972
     94  CA        23.6030   16.7560   31.8480 C.3   283  ASN283      0.1688
     95  C         22.4930   17.7680   32.1080 C.2   283  ASN283      0.2292
     96  O         22.0970   17.9810   33.2580 O.2   283  ASN283     -0.2864
     97  CB        24.8020   17.0130   32.7780 C.3   283  ASN283      0.1181
     98  CG        25.2660   18.4720   32.7810 C.2   283  ASN283      0.2629
     99  OD1       24.8030   19.3040   31.9940 O.2   283  ASN283     -0.2716
    100  ND2       26.2030   18.7780   33.6690 N.am  283  ASN283     -0.0877
    101  N         19.8130   17.3930   30.0710 N.3   285  GLY285     -0.1225
    102  CA        18.7060   16.5910   29.5770 C.3   285  GLY285      0.1811
    103  C         18.4760   16.7910   28.0920 C.2   285  GLY285      0.2280
    104  O         17.6380   16.1130   27.4850 O.2   285  GLY285     -0.2866
    105  N         19.6880   17.1700   23.9160 N.3   287  MET287     -0.1245
    106  CA        20.3300   16.2220   23.0130 C.3   287  MET287      0.1570
    107  C         21.1610   16.8880   21.9230 C.2   287  MET287      0.2261
    108  O         20.8600   18.0070   21.4960 O.2   287  MET287     -0.2867
    109  CB        19.2720   15.3360   22.3590 C.3   287  MET287      0.0387
    110  CG        18.3810   14.6150   23.3460 C.3   287  MET287      0.0595
    111  SD        17.1100   13.6420   22.5220 S.3   287  MET287     -0.1393
    112  CE        16.1940   14.9490   21.7080 C.3   287  MET287      0.0692
@<TRIPOS>BOND
     1    21    19   ar
     2    21    20   ar
     3    19    17   ar
     4    25    24    2
     5    27    26    1
     6    20    18   ar
     7    28    24   am
     8    28    29    1
     9    24    23    1
    10    31    30    2
    11    32    29    1
    12    32    33    1
    13    17    16   ar
    14    41    39   am
    15    26    23    1
    16    29    30    1
    17    30    34   am
    18    38    39    1
    19    38    35    1
    20    18    16   ar
    21    23    22    1
    22    16    15    1
    23    37    36    2
    24    39    40    2
    25    34    35    1
    26    22    13   am
    27    35    36    1
    28    36    42   am
    29    15    12    1
    30    13    12    1
    31    13    14    2
    32    42    43    1
    33    43    44    1
    34    12    11    1
    35    73    72    2
    36     1     2    1
    37    44    45    2
    38    72    71    1
    39    11     3   am
    40     5     2    1
    41     5     6    1
    42     2     3    1
    43     8     6   ar
    44     8    10   ar
    45     6     7   ar
    46     3     4    2
    47    71    74    1
    48    71    70    1
    49    74    75    1
    50    10     9   ar
    51   108   107    2
    52     7     9   ar
    53   112   111    1
    54   107   106    1
    55    46    52    1
    56    46    47    1
    57   109   106    1
    58   109   110    1
    59    75    76    1
    60    75    77    1
    61   111   110    1
    62    52    51    1
    63    49    48    2
    64    48    47    1
    65   106   105    1
    66    47    50    1
    67    51    50    1
    68    88    87   ar
    69    88    86   ar
    70    87    85   ar
    71    78    79    1
    72    86    84   ar
    73    85    83   ar
    74    79    82    1
    75    79    80    1
    76    84    83   ar
    77    83    82    1
    78    68    67    1
    79    80    89   am
    80    80    81    2
    81    67    69    1
    82    67    66    2
    83    89    90    1
    84   104   103    2
    85    66    65    1
    86    62    61    2
    87    90    91    1
    88   103   102    1
    89    65    64    1
    90    61    60    1
    91    64    63    1
    92    91    92    2
    93    91    93   am
    94   102   101    1
    95    60    63    1
    96    60    59    1
    97    59    55   am
    98    93    94    1
    99    53    54    1
   100    57    54    1
   101    57    58    1
   102    55    54    1
   103    55    56    2
   104    94    95    1
   105    94    97    1
   106    99    98    2
   107    95    96    2
   108    97    98    1
   109    98   100   am
