@<TRIPOS>MOLECULE
tmp/4qpdB02.pdb
 220 214 0 0 0
SMALL
GASTEIGER

@<TRIPOS>ATOM
      1  N         64.8550   30.6360   20.9060 N.3    60  ARG60      -0.1245
      2  CA        65.3040   30.8890   22.2730 C.3    60  ARG60       0.1563
      3  C         65.6620   29.6110   23.0110 C.2    60  ARG60       0.2260
      4  O         65.1840   28.5300   22.6630 O.2    60  ARG60      -0.2867
      5  CB        64.2260   31.6210   23.0730 C.3    60  ARG60       0.0307
      6  CG        63.8960   33.0200   22.5950 C.3    60  ARG60       0.0489
      7  CD        62.8590   33.6390   23.5090 C.3    60  ARG60       0.2205
      8  NE        61.7640   32.7130   23.7730 N.pl3  60  ARG60      -0.0865
      9  CZ        61.0670   32.6930   24.9020 C.cat  60  ARG60       0.5346
     10  NH1       61.3570   33.5500   25.8710 N.pl3  60  ARG60       0.1354
     11  NH2       60.0870   31.8130   25.0630 N.pl3  60  ARG60       0.1354
     12  N         54.2260   37.9420   10.5970 N.3    83  LEU83      -0.1245
     13  CA        54.1390   36.6350   11.2530 C.3    83  LEU83       0.1561
     14  C         52.7910   35.9510   11.0290 C.2    83  LEU83       0.2260
     15  O         51.8790   36.0820   11.8470 O.2    83  LEU83      -0.2867
     16  CB        54.3990   36.7650   12.7630 C.3    83  LEU83       0.0270
     17  CG        55.8310   36.9690   13.2740 C.3    83  LEU83       0.0019
     18  CD1       56.4060   38.3290   12.8630 C.3    83  LEU83       0.0001
     19  CD2       55.9090   36.7860   14.7910 C.3    83  LEU83       0.0001
     20  N         50.8590   32.6860   11.3090 N.3    85  PHE85      -0.1227
     21  CA        50.9040   31.4190   12.0430 C.3    85  PHE85       0.1736
     22  C         52.3010   31.0160   12.5170 C.2    85  PHE85       0.2596
     23  O         52.7270   29.8670   12.3580 O.2    85  PHE85      -0.2718
     24  CB        50.2900   30.2950   11.1990 C.3    85  PHE85       0.0547
     25  CG        48.7890   30.3280   11.1700 C.ar   85  PHE85      -0.0202
     26  CD1       48.0500   29.8960   12.2670 C.ar   85  PHE85      -0.0042
     27  CD2       48.1140   30.8170   10.0590 C.ar   85  PHE85      -0.0042
     28  CE1       46.6620   29.9390   12.2510 C.ar   85  PHE85      -0.0003
     29  CE2       46.7250   30.8620   10.0330 C.ar   85  PHE85      -0.0003
     30  CZ        46.0000   30.4230   11.1290 C.ar   85  PHE85      -0.0000
     31  N         53.0010   31.9690   13.1180 N.am   86  CYS86      -0.1956
     32  CA        54.2470   31.6750   13.8030 C.3    86  CYS86       0.1843
     33  C         53.9350   30.9180   15.0930 C.2    86  CYS86       0.2626
     34  O         53.1700   31.4050   15.9340 O.2    86  CYS86      -0.2714
     35  CB        55.0120   32.9660   14.0960 C.3    86  CYS86       0.0997
     36  SG        56.6260   32.6890   14.8210 S.3    86  CYS86      -0.0797
     37  N         54.5230   29.7330   15.2480 N.am   87  SER87      -0.1936
     38  CA        54.1480   28.8340   16.3360 C.3    87  SER87       0.2055
     39  C         54.9910   29.0150   17.5910 C.2    87  SER87       0.2643
     40  O         54.8360   28.2620   18.5490 O.2    87  SER87      -0.2714
     41  CB        54.2420   27.3770   15.8710 C.3    87  SER87       0.2130
     42  OG        55.5480   27.0770   15.4110 O.3    87  SER87      -0.2179
     43  N         55.8850   29.9990   17.5900 N.am   88  GLN88      -0.1963
     44  CA        56.7650   30.2130   18.7390 C.3    88  GLN88       0.1733
     45  C         56.8500   31.6820   19.1420 C.2    88  GLN88       0.2616
     46  O         56.8160   32.5620   18.2810 O.2    88  GLN88      -0.2715
     47  CB        58.1740   29.6950   18.4320 C.3    88  GLN88       0.0408
     48  CG        58.2510   28.2180   18.1140 C.3    88  GLN88       0.0908
     49  CD        59.6690   27.7700   17.8330 C.2    88  GLN88       0.2608
     50  OE1       60.3220   27.1740   18.6870 O.2    88  GLN88      -0.2717
     51  NE2       60.1540   28.0560   16.6320 N.am   88  GLN88      -0.0878
     52  N         56.9730   31.9440   20.4420 N.am   89  PHE89      -0.1960
     53  CA        57.2760   33.2940   20.9100 C.3    89  PHE89       0.1771
     54  C         58.5910   33.7330   20.2850 C.2    89  PHE89       0.2619
     55  O         59.5840   33.0080   20.3540 O.2    89  PHE89      -0.2715
     56  CB        57.3620   33.3510   22.4400 C.3    89  PHE89       0.0574
     57  CG        57.7670   34.7010   22.9780 C.ar   89  PHE89      -0.0200
     58  CD1       56.8090   35.6700   23.2400 C.ar   89  PHE89      -0.0042
     59  CD2       59.1040   34.9970   23.2340 C.ar   89  PHE89      -0.0042
     60  CE1       57.1730   36.9110   23.7370 C.ar   89  PHE89      -0.0003
     61  CE2       59.4740   36.2380   23.7290 C.ar   89  PHE89      -0.0003
     62  CZ        58.5080   37.1940   23.9820 C.ar   89  PHE89      -0.0000
     63  N         58.5940   34.9050   19.6600 N.am   90  ILE90      -0.1977
     64  CA        59.7960   35.4220   19.0200 C.3    90  ILE90       0.1596
     65  C         60.4590   36.4610   19.9250 C.2    90  ILE90       0.2287
     66  O         59.7980   37.4050   20.3650 O.2    90  ILE90      -0.2864
     67  CB        59.4660   36.0460   17.6480 C.3    90  ILE90       0.0276
     68  CG1       58.7660   35.0210   16.7500 C.3    90  ILE90       0.0022
     69  CG2       60.7250   36.5770   16.9860 C.3    90  ILE90       0.0022
     70  CD1       59.6440   33.8570   16.3660 C.3    90  ILE90       0.0001
     71  N         62.4820   39.6270   21.5000 N.3    92  MET92      -0.1245
     72  CA        62.3420   41.0310   21.1300 C.3    92  MET92       0.1570
     73  C         63.4960   41.5400   20.2810 C.2    92  MET92       0.2261
     74  O         63.3220   42.4900   19.5210 O.2    92  MET92      -0.2867
     75  CB        62.2010   41.8930   22.3830 C.3    92  MET92       0.0387
     76  CG        60.9950   41.5260   23.2220 C.3    92  MET92       0.0595
     77  SD        59.5050   41.3460   22.2100 S.3    92  MET92      -0.1393
     78  CE        59.1940   43.0630   21.8090 C.3    92  MET92       0.0692
     79  N         61.9960   40.8340   17.0610 N.3    95  ILE95      -0.1245
     80  CA        60.7590   41.5910   16.9300 C.3    95  ILE95       0.1561
     81  C         61.0120   43.0850   16.6870 C.2    95  ILE95       0.2260
     82  O         60.4120   43.6840   15.7860 O.2    95  ILE95      -0.2867
     83  CB        59.8740   41.4130   18.1880 C.3    95  ILE95       0.0252
     84  CG1       59.2910   39.9990   18.2380 C.3    95  ILE95       0.0019
     85  CG2       58.7530   42.4360   18.2050 C.3    95  ILE95       0.0019
     86  CD1       58.3670   39.6780   17.0850 C.3    95  ILE95       0.0001
     87  N         51.4990   40.6400   13.5890 N.3   104  ILE104     -0.1231
     88  CA        51.1540   39.2340   13.7500 C.3   104  ILE104      0.1692
     89  C         49.6980   38.9880   13.3670 C.2   104  ILE104      0.2592
     90  O         48.8270   39.8110   13.6690 O.2   104  ILE104     -0.2718
     91  CB        51.4090   38.7790   15.2130 C.3   104  ILE104      0.0266
     92  CG1       52.8610   39.0830   15.6070 C.3   104  ILE104      0.0019
     93  CG2       51.1220   37.2950   15.3900 C.3   104  ILE104      0.0020
     94  CD1       53.2970   38.4280   16.9020 C.3   104  ILE104      0.0001
     95  N         49.4370   37.8760   12.6850 N.am  105  TYR105     -0.1962
     96  CA        48.0630   37.4640   12.4070 C.3   105  TYR105      0.1771
     97  C         47.5280   36.6170   13.5500 C.2   105  TYR105      0.2619
     98  O         48.1790   35.6600   13.9750 O.2   105  TYR105     -0.2715
     99  CB        47.9700   36.6770   11.0940 C.3   105  TYR105      0.0574
    100  CG        46.6070   36.0380   10.8710 C.ar  105  TYR105     -0.0198
    101  CD1       45.5410   36.7880   10.3990 C.ar  105  TYR105     -0.0009
    102  CD2       46.3900   34.6860   11.1360 C.ar  105  TYR105     -0.0009
    103  CE1       44.2950   36.2210   10.1890 C.ar  105  TYR105      0.0417
    104  CE2       45.1430   34.1060   10.9370 C.ar  105  TYR105      0.0417
    105  CZ        44.0990   34.8860   10.4640 C.ar  105  TYR105      0.1957
    106  OH        42.8530   34.3360   10.2510 O.3   105  TYR105     -0.2866
    107  N         46.3450   36.9630   14.0520 N.am  106  HIS106     -0.1973
    108  CA        45.7050   36.1610   15.0920 C.3   106  HIS106      0.1656
    109  C         44.2310   35.9020   14.7670 C.2   106  HIS106      0.2291
    110  O         43.4440   36.8430   14.6560 O.2   106  HIS106     -0.2864
    111  CB        45.8190   36.8430   16.4600 C.3   106  HIS106      0.0771
    112  CG        45.4110   35.9580   17.5950 C.ar  106  HIS106      0.0820
    113  ND1       46.2840   35.0830   18.2060 N.ar  106  HIS106     -0.2267
    114  CD2       44.2140   35.7800   18.2050 C.ar  106  HIS106      0.1154
    115  CE1       45.6480   34.4210   19.1570 C.ar  106  HIS106      0.1986
    116  NE2       44.3910   34.8240   19.1770 N.ar  106  HIS106     -0.2212
    117  N         46.3210   32.9860   22.3410 N.3   115  GLY115     -0.1210
    118  CA        46.7560   31.5970   22.3170 C.3   115  GLY115      0.1956
    119  C         46.8280   30.9700   20.9350 C.2   115  GLY115      0.2611
    120  O         46.4660   31.5980   19.9280 O.2   115  GLY115     -0.2717
    121  N         47.2790   29.7190   20.8830 N.am  116  ALA116     -0.1979
    122  CA        47.5960   29.0700   19.6090 C.3   116  ALA116      0.1597
    123  C         46.4300   28.2860   18.9940 C.2   116  ALA116      0.2287
    124  O         46.5280   27.8190   17.8550 O.2   116  ALA116     -0.2864
    125  CB        48.7990   28.1500   19.7900 C.3   116  ALA116      0.0319
    126  N         47.9460   42.5210   14.7760 N.3   135  PHE135     -0.1241
    127  CA        48.4380   43.3220   15.8880 C.3   135  PHE135      0.1605
    128  C         49.9550   43.4530   15.8990 C.2   135  PHE135      0.2264
    129  O         50.6660   42.6880   15.2390 O.2   135  PHE135     -0.2867
    130  CB        47.9390   42.7460   17.2210 C.3   135  PHE135      0.0534
    131  CG        48.6250   41.4690   17.6480 C.ar  135  PHE135     -0.0203
    132  CD1       48.1760   40.2330   17.1920 C.ar  135  PHE135     -0.0042
    133  CD2       49.6890   41.5100   18.5420 C.ar  135  PHE135     -0.0042
    134  CE1       48.7880   39.0610   17.6080 C.ar  135  PHE135     -0.0003
    135  CE2       50.3120   40.3570   18.9540 C.ar  135  PHE135     -0.0003
    136  CZ        49.8630   39.1240   18.4880 C.ar  135  PHE135     -0.0000
    137  N         53.4490   43.0150   17.5300 N.3   137  ALA137     -0.1231
    138  CA        54.0900   42.1360   18.5120 C.3   137  ALA137      0.1694
    139  C         54.7600   42.9250   19.6180 C.2   137  ALA137      0.2592
    140  O         55.5440   43.8350   19.3380 O.2   137  ALA137     -0.2718
    141  CB        55.1200   41.2410   17.8350 C.3   137  ALA137      0.0304
    142  N         54.4700   42.5690   20.8690 N.am  138  ASP138     -0.1974
    143  CA        55.2570   43.0880   21.9760 C.3   138  ASP138      0.1709
    144  C         55.8580   41.9330   22.7900 C.2   138  ASP138      0.2293
    145  O         55.8710   40.7830   22.3360 O.2   138  ASP138     -0.2864
    146  CB        54.4240   44.0410   22.8590 C.3   138  ASP138      0.1436
    147  CG        53.3290   43.3410   23.6740 C.2   138  ASP138      0.3671
    148  OD1       53.2610   42.0920   23.7510 O.co2 138  ASP138     -0.2456
    149  OD2       52.5230   44.0820   24.2800 O.co2 138  ASP138     -0.2456
    150  N         54.9020   40.3620   25.3050 N.3   140  GLY140     -0.1210
    151  CA        53.9680   39.3770   25.8270 C.3   140  GLY140      0.1956
    152  C         53.4290   38.4960   24.7150 C.2   140  GLY140      0.2612
    153  O         53.8220   38.6430   23.5550 O.2   140  GLY140     -0.2717
    154  N         52.5250   37.5840   25.0580 N.am  141  LEU141     -0.1965
    155  CA        52.0000   36.6230   24.0890 C.3   141  LEU141      0.1728
    156  C         50.5980   37.0210   23.6070 C.2   141  LEU141      0.2616
    157  O         49.6150   36.8920   24.3470 O.2   141  LEU141     -0.2715
    158  CB        51.9870   35.2210   24.7060 C.3   141  LEU141      0.0311
    159  CG        51.9480   34.0110   23.7750 C.3   141  LEU141      0.0022
    160  CD1       52.9910   34.1320   22.6710 C.3   141  LEU141      0.0001
    161  CD2       52.1760   32.7350   24.5760 C.3   141  LEU141      0.0001
    162  N         50.5250   37.5040   22.3660 N.am  142  ASP142     -0.1957
    163  CA        49.2850   37.9920   21.7460 C.3   142  ASP142      0.1840
    164  C         48.6790   39.1940   22.4930 C.2   142  ASP142      0.2622
    165  O         47.4660   39.4280   22.4370 O.2   142  ASP142     -0.2715
    166  CB        48.2460   36.8650   21.6400 C.3   142  ASP142      0.1450
    167  CG        48.7270   35.6880   20.8080 C.2   142  ASP142      0.3671
    168  OD1       49.6780   35.8440   20.0130 O.co2 142  ASP142     -0.2456
    169  OD2       48.1280   34.5970   20.9390 O.co2 142  ASP142     -0.2456
    170  N         49.5300   39.9720   23.1540 N.am  143  THR143     -0.1951
    171  CA        49.0700   41.0820   23.9900 C.3   143  THR143      0.1897
    172  C         49.2750   42.4420   23.3270 C.2   143  THR143      0.2313
    173  O         48.7350   43.4550   23.7830 O.2   143  THR143     -0.2863
    174  CB        49.7960   41.0900   25.3440 C.3   143  THR143      0.1794
    175  OG1       51.1780   40.7800   25.1330 O.3   143  THR143     -0.2208
    176  CG2       49.2020   40.0510   26.2740 C.3   143  THR143      0.0378
    177  N         43.0100   33.8250   27.6190 N.3   200  TYR200     -0.1227
    178  CA        44.0390   33.0120   26.9670 C.3   200  TYR200      0.1736
    179  C         43.6690   31.5500   27.1760 C.2   200  TYR200      0.2595
    180  O         43.2370   31.1740   28.2650 O.2   200  TYR200     -0.2718
    181  CB        45.4330   33.3220   27.5360 C.3   200  TYR200      0.0548
    182  CG        46.5880   32.5410   26.9210 C.ar  200  TYR200     -0.0200
    183  CD1       47.4490   33.1400   26.0070 C.ar  200  TYR200     -0.0009
    184  CD2       46.8390   31.2200   27.2800 C.ar  200  TYR200     -0.0009
    185  CE1       48.5170   32.4400   25.4560 C.ar  200  TYR200      0.0417
    186  CE2       47.9000   30.5130   26.7350 C.ar  200  TYR200      0.0417
    187  CZ        48.7340   31.1280   25.8200 C.ar  200  TYR200      0.1957
    188  OH        49.7910   30.4280   25.2710 O.3   200  TYR200     -0.2866
    189  N         43.8240   30.7230   26.1460 N.am  201  GLU201     -0.1965
    190  CA        43.5110   29.3040   26.2900 C.3   201  GLU201      0.1733
    191  C         44.6240   28.4150   25.7260 C.2   201  GLU201      0.2616
    192  O         45.4010   28.8350   24.8530 O.2   201  GLU201     -0.2715
    193  CB        42.1700   28.9730   25.6130 C.3   201  GLU201      0.0429
    194  CG        40.9270   29.5520   26.3070 C.3   201  GLU201      0.1163
    195  CD        40.4500   30.8590   25.6850 C.2   201  GLU201      0.3649
    196  OE1       40.7240   31.0890   24.4870 O.co2 201  GLU201     -0.2457
    197  OE2       39.7960   31.6570   26.3940 O.co2 201  GLU201     -0.2457
    198  N         44.6790   27.1850   26.2310 N.am  202  CYS202     -0.1954
    199  CA        45.7380   26.2340   25.9040 C.3   202  CYS202      0.1843
    200  C         45.6890   25.7420   24.4550 C.2   202  CYS202      0.2625
    201  O         44.6760   25.9050   23.7640 O.2   202  CYS202     -0.2714
    202  CB        45.6550   25.0370   26.8540 C.3   202  CYS202      0.0997
    203  SG        44.0980   24.1110   26.6920 S.3   202  CYS202     -0.0797
    204  N         46.7890   25.1460   23.9970 N.am  203  ILE203     -0.1977
    205  CA        46.8280   24.5270   22.6740 C.3   203  ILE203      0.1596
    206  C         45.9730   23.2680   22.6840 C.2   203  ILE203      0.2287
    207  O         46.0960   22.4350   23.5830 O.2   203  ILE203     -0.2864
    208  CB        48.2680   24.1550   22.2380 C.3   203  ILE203      0.0276
    209  CG1       49.1610   25.3950   22.1700 C.3   203  ILE203      0.0022
    210  CG2       48.2580   23.4430   20.8860 C.3   203  ILE203      0.0022
    211  CD1       50.6080   25.0860   21.7950 C.3   203  ILE203      0.0001
    212  N         45.4730   19.7630   21.6660 N.3   205  LYS205     -0.1245
    213  CA        46.1290   18.5750   21.1270 C.3   205  LYS205      0.1561
    214  C         45.1560   17.4170   21.2930 C.2   205  LYS205      0.2260
    215  O         44.1130   17.5860   21.9260 O.2   205  LYS205     -0.2867
    216  CB        47.4520   18.2920   21.8460 C.3   205  LYS205      0.0271
    217  CG        48.3440   19.5120   22.0340 C.3   205  LYS205      0.0035
    218  CD        49.3630   19.2690   23.1480 C.3   205  LYS205      0.0206
    219  CE        49.7950   20.5700   23.8280 C.3   205  LYS205      0.1093
    220  NZ        50.9220   21.2530   23.1310 N.3   205  LYS205     -0.1314
@<TRIPOS>BOND
     1    29    27   ar
     2    29    30   ar
     3    27    25   ar
     4   103   101   ar
     5   103   105   ar
     6   106   105    1
     7   101   100   ar
     8   105   104   ar
     9    12    13    1
    10   100    99    1
    11   100   102   ar
    12   104   102   ar
    13    14    13    1
    14    14    15    2
    15    99    96    1
    16    30    28   ar
    17    25    24    1
    18    25    26   ar
    19    24    21    1
    20    13    16    1
    21    20    21    1
    22    21    22    1
    23    28    26   ar
    24    23    22    2
    25    96    95    1
    26    96    97    1
    27    22    31   am
    28    95    89   am
    29    16    17    1
    30    18    17    1
    31    31    32    1
    32    17    19    1
    33    89    90    2
    34    89    88    1
    35    97    98    2
    36    97   107   am
    37    87    88    1
    38    88    91    1
    39    32    35    1
    40    32    33    1
    41   107   108    1
    42    35    36    1
    43   110   109    2
    44   109   108    1
    45   126   127    1
    46   108   111    1
    47    33    37   am
    48    33    34    2
    49    91    93    1
    50    91    92    1
    51   129   128    2
    52    37    38    1
    53    42    41    1
    54    92    94    1
    55    82    81    2
    56    41    38    1
    57   127   128    1
    58   127   130    1
    59    38    39    1
    60    70    68    1
    61   111   112    1
    62    51    49   am
    63    81    80    1
    64    68    67    1
    65    80    79    1
    66    80    83    1
    67    69    67    1
    68    86    84    1
    69   132   134   ar
    70   132   131   ar
    71   130   131    1
    72   137   138    1
    73    43    39   am
    74    43    44    1
    75    39    40    2
    76   112   114   ar
    77   112   113   ar
    78   134   136   ar
    79    67    64    1
    80   131   133   ar
    81    49    48    1
    82    49    50    2
    83   141   138    1
    84   124   123    2
    85    48    47    1
    86    83    85    1
    87    83    84    1
    88   114   116   ar
    89   113   115   ar
    90    46    45    2
    91    47    44    1
    92   136   135   ar
    93   138   139    1
    94   133   135   ar
    95    44    45    1
    96   123   122    1
    97    64    63    1
    98    64    65    1
    99    45    52   am
   100   115   116   ar
   101   140   139    2
   102    74    73    2
   103   122   125    1
   104   122   121    1
   105   139   142   am
   106    63    54   am
   107    65    66    2
   108   120   119    2
   109   168   167   ar
   110    73    72    1
   111    54    55    2
   112    54    53    1
   113    52    53    1
   114   167   169   ar
   115   167   166    1
   116   142   143    1
   117   121   119   am
   118   210   208    1
   119     1     2    1
   120    53    56    1
   121   119   118    1
   122   213   214    1
   123   213   212    1
   124   213   216    1
   125    72    71    1
   126    72    75    1
   127   214   215    2
   128   166   163    1
   129   163   162    1
   130   163   164    1
   131   211   209    1
   132    78    77    1
   133   216   217    1
   134   143   144    1
   135   143   146    1
   136   217   218    1
   137   209   208    1
   138    77    76    1
   139   208   205    1
   140     2     3    1
   141     2     5    1
   142   118   117    1
   143   145   144    2
   144   162   156   am
   145    75    76    1
   146   165   164    2
   147    56    57    1
   148   164   170   am
   149     6     5    1
   150     6     7    1
   151     4     3    2
   152   160   159    1
   153   205   206    1
   154   205   204    1
   155   206   207    2
   156   146   147    1
   157    57    59   ar
   158    57    58   ar
   159   220   219    1
   160   218   219    1
   161   170   171    1
   162    59    61   ar
   163    58    60   ar
   164   172   173    2
   165   172   171    1
   166     7     8    1
   167   153   152    2
   168   156   155    1
   169   156   157    2
   170   147   148   ar
   171   147   149   ar
   172    61    62   ar
   173    60    62   ar
   174   201   200    2
   175     8     9    2
   176   159   161    1
   177   159   158    1
   178   171   174    1
   179   204   200   am
   180   155   158    1
   181   155   154    1
   182   200   199    1
   183   196   195   ar
   184   152   154   am
   185   152   151    1
   186   192   191    2
   187     9    11    1
   188     9    10    1
   189   175   174    1
   190   188   187    1
   191   150   151    1
   192   174   176    1
   193   185   187   ar
   194   185   183   ar
   195   193   190    1
   196   193   194    1
   197   195   194    1
   198   195   197   ar
   199   191   198   am
   200   191   190    1
   201   187   186   ar
   202   199   198    1
   203   199   202    1
   204   183   182   ar
   205   189   190    1
   206   189   179   am
   207   203   202    1
   208   186   184   ar
   209   182   184   ar
   210   182   181    1
   211   178   179    1
   212   178   181    1
   213   178   177    1
   214   179   180    2
