@<TRIPOS>MOLECULE
tmp/4qpeA00.pdb
 148 141 0 0 0
SMALL
GASTEIGER

@<TRIPOS>ATOM
      1  N         20.9720  -41.7090    8.8090 N.3   113  GLN113     -0.1245
      2  CA        20.0300  -42.1410    7.7880 C.3   113  GLN113      0.1566
      3  C         20.7330  -43.1540    6.8990 C.2   113  GLN113      0.2260
      4  O         21.6790  -42.8140    6.1870 O.2   113  GLN113     -0.2867
      5  CB        19.5160  -40.9580    6.9710 C.3   113  GLN113      0.0367
      6  CG        18.5750  -41.3470    5.8450 C.3   113  GLN113      0.0905
      7  CD        17.4340  -42.2380    6.3130 C.2   113  GLN113      0.2608
      8  OE1       16.8880  -42.0480    7.3990 O.2   113  GLN113     -0.2717
      9  NE2       17.0770  -43.2230    5.4970 N.am  113  GLN113     -0.0878
     10  N         18.9660  -45.9620    4.9860 N.3   115  GLU115     -0.1231
     11  CA        18.2830  -46.4590    3.7930 C.3   115  GLU115      0.1684
     12  C         18.4720  -45.4880    2.6290 C.2   115  GLU115      0.2434
     13  O         18.2980  -44.2830    2.7970 O.2   115  GLU115     -0.2733
     14  CB        16.7870  -46.6790    4.0360 C.3   115  GLU115      0.0402
     15  CG        16.1010  -47.3290    2.8310 C.3   115  GLU115      0.1161
     16  CD        14.6030  -47.4920    2.9850 C.2   115  GLU115      0.3649
     17  OE1       14.0550  -47.0830    4.0260 O.co2 115  GLU115     -0.2457
     18  OE2       13.9730  -48.0340    2.0520 O.co2 115  GLU115     -0.2457
     19  N         18.8090  -46.0100    1.4360 N.am  116  PRO116     -0.2729
     20  CA        19.0430  -47.4180    1.0900 C.3   116  PRO116      0.1401
     21  C         20.4550  -47.9080    1.4080 C.2   116  PRO116      0.2269
     22  O         20.6100  -49.0140    1.9270 O.2   116  PRO116     -0.2865
     23  CB        18.7950  -47.4450   -0.4190 C.3   116  PRO116      0.0296
     24  CG        19.1850  -46.0900   -0.8750 C.3   116  PRO116      0.0237
     25  CD        18.8160  -45.1490    0.2400 C.3   116  PRO116      0.0939
     26  N         16.5630  -33.3820    7.2530 N.3   248  PHE248     -0.1227
     27  CA        16.2090  -34.7270    6.8150 C.3   248  PHE248      0.1736
     28  C         15.7650  -34.6990    5.3550 C.2   248  PHE248      0.2595
     29  O         15.0350  -33.8000    4.9420 O.2   248  PHE248     -0.2718
     30  CB        15.1030  -35.2950    7.7040 C.3   248  PHE248      0.0547
     31  CG        15.0220  -36.7940    7.6950 C.ar  248  PHE248     -0.0202
     32  CD1       15.9760  -37.5560    8.3490 C.ar  248  PHE248     -0.0042
     33  CD2       13.9820  -37.4410    7.0510 C.ar  248  PHE248     -0.0042
     34  CE1       15.8990  -38.9350    8.3490 C.ar  248  PHE248     -0.0003
     35  CE2       13.9000  -38.8200    7.0480 C.ar  248  PHE248     -0.0003
     36  CZ        14.8600  -39.5670    7.6980 C.ar  248  PHE248     -0.0000
     37  N         16.2090  -35.6850    4.5800 N.am  249  ASN249     -0.1974
     38  CA        15.9830  -35.6900    3.1350 C.3   249  ASN249      0.1688
     39  C         14.5530  -36.0470    2.7260 C.2   249  ASN249      0.2292
     40  O         14.0840  -35.6090    1.6760 O.2   249  ASN249     -0.2864
     41  CB        16.9510  -36.6650    2.4600 C.3   249  ASN249      0.1181
     42  CG        18.3710  -36.1300    2.3950 C.2   249  ASN249      0.2629
     43  OD1       18.5910  -34.9180    2.3440 O.2   249  ASN249     -0.2716
     44  ND2       19.3430  -37.0360    2.3890 N.am  249  ASN249     -0.0877
     45  N         10.5420  -37.7580    4.6080 N.3   250  GLY250     -0.1210
     46  CA         9.5750  -37.5440    5.6680 C.3   250  GLY250      0.1956
     47  C          9.9400  -38.2590    6.9520 C.2   250  GLY250      0.2611
     48  O          9.9110  -37.6630    8.0260 O.2   250  GLY250     -0.2717
     49  N         10.2830  -39.5400    6.8470 N.am  251  ALA251     -0.1979
     50  CA        10.6060  -40.3330    8.0290 C.3   251  ALA251      0.1597
     51  C         11.3060  -41.6390    7.6620 C.2   251  ALA251      0.2287
     52  O         11.4280  -41.9800    6.4850 O.2   251  ALA251     -0.2864
     53  CB         9.3430  -40.6190    8.8280 C.3   251  ALA251      0.0319
     54  N         11.8610  -45.8680    9.1020 N.3   252  GLU252     -0.1245
     55  CA        11.2580  -46.8890    9.9560 C.3   252  GLU252      0.1567
     56  C         12.2590  -47.7560   10.7180 C.2   252  GLU252      0.2260
     57  O         11.9880  -48.9330   10.9580 O.2   252  GLU252     -0.2867
     58  CB        10.3620  -47.8070    9.1150 C.3   252  GLU252      0.0388
     59  CG        11.1150  -48.7030    8.1200 C.3   252  GLU252      0.1160
     60  CD        11.1650  -48.1320    6.7140 C.2   252  GLU252      0.3649
     61  OE1       11.0030  -46.9010    6.5560 O.co2 252  GLU252     -0.2457
     62  OE2       11.3660  -48.9250    5.7660 O.co2 252  GLU252     -0.2457
     63  N          1.9360  -40.4150    8.4110 N.3   282  VAL282     -0.1245
     64  CA         3.3430  -40.8060    8.3980 C.3   282  VAL282      0.1561
     65  C          3.7360  -41.5520    9.6740 C.2   282  VAL282      0.2260
     66  O          4.4740  -42.5310    9.6080 O.2   282  VAL282     -0.2867
     67  CB         4.2600  -39.5800    8.2040 C.3   282  VAL282      0.0252
     68  CG1        5.7330  -39.9620    8.3520 C.3   282  VAL282      0.0019
     69  CG2        4.0190  -38.9680    6.8290 C.3   282  VAL282      0.0019
     70  N          2.3740  -44.8390    9.0890 N.3   285  HIS285     -0.1226
     71  CA         3.1990  -45.4550    8.0520 C.3   285  HIS285      0.1752
     72  C          4.4720  -46.0880    8.6170 C.2   285  HIS285      0.2595
     73  O          4.7580  -47.2590    8.3640 O.2   285  HIS285     -0.2718
     74  CB         3.5580  -44.4070    6.9940 C.3   285  HIS285      0.0759
     75  CG         4.3830  -44.9380    5.8630 C.ar  285  HIS285      0.0818
     76  ND1        3.8390  -45.2840    4.6450 N.ar  285  HIS285     -0.2268
     77  CD2        5.7130  -45.1700    5.7600 C.ar  285  HIS285      0.1154
     78  CE1        4.7970  -45.7110    3.8430 C.ar  285  HIS285      0.1986
     79  NE2        5.9440  -45.6520    4.4950 N.ar  285  HIS285     -0.2212
     80  N          5.2300  -45.3200    9.3930 N.am  286  GLU286     -0.1979
     81  CA         6.4990  -45.8060    9.9230 C.3   286  GLU286      0.1602
     82  C          6.2980  -46.9550   10.9100 C.2   286  GLU286      0.2287
     83  O          7.1270  -47.8620   10.9820 O.2   286  GLU286     -0.2864
     84  CB         7.2790  -44.6740   10.5990 C.3   286  GLU286      0.0415
     85  CG         7.6040  -43.4900    9.6980 C.3   286  GLU286      0.1163
     86  CD         8.1770  -43.9020    8.3550 C.2   286  GLU286      0.3649
     87  OE1        8.9600  -44.8730    8.3060 O.co2 286  GLU286     -0.2457
     88  OE2        7.8360  -43.2530    7.3450 O.co2 286  GLU286     -0.2457
     89  N          5.4590  -50.1940    9.0840 N.3   289  HIS289     -0.1241
     90  CA         6.6580  -50.7760    8.4880 C.3   289  HIS289      0.1621
     91  C          7.2750  -51.8640    9.3670 C.2   289  HIS289      0.2264
     92  O          8.0430  -52.6930    8.8810 O.2   289  HIS289     -0.2867
     93  CB         7.7070  -49.6930    8.2280 C.3   289  HIS289      0.0745
     94  CG         7.7280  -49.1810    6.8210 C.ar  289  HIS289      0.0817
     95  ND1        7.5480  -49.9960    5.7230 N.ar  289  HIS289     -0.2268
     96  CD2        7.9230  -47.9330    6.3330 C.ar  289  HIS289      0.1154
     97  CE1        7.6260  -49.2710    4.6210 C.ar  289  HIS289      0.1986
     98  NE2        7.8540  -48.0160    4.9640 N.ar  289  HIS289     -0.2212
     99  N          7.0260  -50.5340    0.5160 N.3   308  GLU308     -0.1245
    100  CA         6.5100  -49.1690    0.4210 C.3   308  GLU308      0.1567
    101  C          5.0990  -49.1210   -0.1530 C.2   308  GLU308      0.2260
    102  O          4.2440  -48.4060    0.3630 O.2   308  GLU308     -0.2867
    103  CB         7.4410  -48.2950   -0.4220 C.3   308  GLU308      0.0388
    104  CG         8.8110  -48.0590    0.2000 C.3   308  GLU308      0.1160
    105  CD         8.7300  -47.4520    1.5880 C.2   308  GLU308      0.3649
    106  OE1        7.6970  -46.8290    1.9130 O.co2 308  GLU308     -0.2457
    107  OE2        9.7000  -47.6030    2.3590 O.co2 308  GLU308     -0.2457
    108  N         18.5990  -44.1060   -4.9810 N.3   360  ASN360     -0.1240
    109  CA        17.9440  -42.9580   -4.3600 C.3   360  ASN360      0.1653
    110  C         16.9140  -42.3010   -5.2800 C.2   360  ASN360      0.2266
    111  O         16.0080  -41.6110   -4.8120 O.2   360  ASN360     -0.2867
    112  CB        18.9840  -41.9150   -3.9360 C.3   360  ASN360      0.1155
    113  CG        19.8130  -42.3600   -2.7440 C.2   360  ASN360      0.2627
    114  OD1       19.3110  -43.0120   -1.8310 O.2   360  ASN360     -0.2716
    115  ND2       21.0910  -41.9980   -2.7440 N.am  360  ASN360     -0.0877
    116  N         12.7890  -43.7740   -5.1260 N.3   363  TYR363     -0.1241
    117  CA        11.8250  -43.5710   -4.0540 C.3   363  TYR363      0.1605
    118  C         10.7700  -42.6060   -4.5780 C.2   363  TYR363      0.2264
    119  O         10.6630  -41.4640   -4.1320 O.2   363  TYR363     -0.2867
    120  CB        12.5180  -43.0530   -2.7960 C.3   363  TYR363      0.0534
    121  CG        13.2820  -44.1460   -2.0850 C.ar  363  TYR363     -0.0201
    122  CD1       14.4790  -44.6250   -2.6000 C.ar  363  TYR363     -0.0009
    123  CD2       12.7930  -44.7210   -0.9180 C.ar  363  TYR363     -0.0009
    124  CE1       15.1750  -45.6340   -1.9710 C.ar  363  TYR363      0.0417
    125  CE2       13.4850  -45.7330   -0.2790 C.ar  363  TYR363      0.0417
    126  CZ        14.6750  -46.1840   -0.8130 C.ar  363  TYR363      0.1957
    127  OH        15.3700  -47.1880   -0.1870 O.3   363  TYR363     -0.2866
    128  N          5.7100  -45.8290   -4.6830 N.3   367  TYR367     -0.1241
    129  CA         4.9010  -45.5930   -3.4910 C.3   367  TYR367      0.1605
    130  C          3.4040  -45.5930   -3.7810 C.2   367  TYR367      0.2264
    131  O          2.6750  -46.4750   -3.3280 O.2   367  TYR367     -0.2867
    132  CB         5.2880  -44.2590   -2.8450 C.3   367  TYR367      0.0534
    133  CG         6.4970  -44.3380   -1.9420 C.ar  367  TYR367     -0.0201
    134  CD1        7.7620  -44.5770   -2.4610 C.ar  367  TYR367     -0.0009
    135  CD2        6.3740  -44.1650   -0.5690 C.ar  367  TYR367     -0.0009
    136  CE1        8.8700  -44.6470   -1.6390 C.ar  367  TYR367      0.0417
    137  CE2        7.4780  -44.2320    0.2620 C.ar  367  TYR367      0.0417
    138  CZ         8.7230  -44.4740   -0.2800 C.ar  367  TYR367      0.1957
    139  OH         9.8270  -44.5450    0.5350 O.3   367  TYR367     -0.2866
    140  N         20.6920  -35.8590   -3.5950 N.3   799  GLN799     -0.1245
    141  CA        19.3100  -36.3360   -3.5250 C.3   799  GLN799      0.1566
    142  C         18.3050  -35.2110   -3.7230 C.2   799  GLN799      0.2260
    143  O         17.3200  -35.3690   -4.4440 O.2   799  GLN799     -0.2867
    144  CB        19.0510  -37.0280   -2.1880 C.3   799  GLN799      0.0367
    145  CG        19.6340  -38.4280   -2.1010 C.3   799  GLN799      0.0905
    146  CD        19.3580  -39.0880   -0.7690 C.2   799  GLN799      0.2608
    147  OE1       20.2450  -39.2090    0.0720 O.2   799  GLN799     -0.2717
    148  NE2       18.1220  -39.5260   -0.5740 N.am  799  GLN799     -0.0878
@<TRIPOS>BOND
     1   110   111    2
     2   110   109    1
     3   116   117    1
     4   108   109    1
     5   128   129    1
     6   118   119    2
     7   118   117    1
     8   143   142    2
     9   109   112    1
    10   117   120    1
    11   112   113    1
    12   130   129    1
    13   130   131    2
    14   142   141    1
    15   140   141    1
    16   141   144    1
    17   129   132    1
    18   132   133    1
    19   120   121    1
    20   113   115   am
    21   113   114    2
    22   122   121   ar
    23   122   124   ar
    24   134   133   ar
    25   134   136   ar
    26   144   145    1
    27   145   146    1
    28   121   123   ar
    29   124   126   ar
    30   133   135   ar
    31   136   138   ar
    32   123   125   ar
    33    24    23    1
    34    24    25    1
    35   126   125   ar
    36   126   127    1
    37   146   148   am
    38   146   147    2
    39   135   137   ar
    40   103   104    1
    41   103   100    1
    42    23    20    1
    43   138   137   ar
    44   138   139    1
    45   101   102    2
    46   101   100    1
    47   104   105    1
    48    25    19    1
    49   100    99    1
    50    20    21    1
    51    20    19    1
    52    21    22    2
    53    19    12   am
    54   105   106   ar
    55   105   107   ar
    56    40    39    2
    57    18    16   ar
    58    43    42    2
    59    44    42   am
    60    42    41    1
    61    41    38    1
    62    12    13    2
    63    12    11    1
    64    39    38    1
    65    15    16    1
    66    15    14    1
    67    16    17   ar
    68    38    37    1
    69    11    14    1
    70    11    10    1
    71    78    79   ar
    72    78    76   ar
    73    79    77   ar
    74    37    28   am
    75    45    46    1
    76    97    98   ar
    77    97    95   ar
    78    76    75   ar
    79    29    28    2
    80    98    96   ar
    81    28    27    1
    82     9     7   am
    83    46    47    1
    84    95    94   ar
    85    77    75   ar
    86    62    60   ar
    87     6     7    1
    88     6     5    1
    89    75    74    1
    90     4     3    2
    91     7     8    2
    92    96    94   ar
    93    52    51    2
    94    61    60   ar
    95    60    59    1
    96    27    26    1
    97    27    30    1
    98    94    93    1
    99    69    67    1
   100    49    47   am
   101    49    50    1
   102     3     2    1
   103    47    48    2
   104     5     2    1
   105    74    71    1
   106    35    33   ar
   107    35    36   ar
   108    33    31   ar
   109    88    86   ar
   110    51    50    1
   111    31    30    1
   112    31    32   ar
   113    36    34   ar
   114     2     1    1
   115    50    53    1
   116    71    72    1
   117    71    70    1
   118    59    58    1
   119    67    68    1
   120    67    64    1
   121    93    90    1
   122    87    86   ar
   123    32    34   ar
   124    86    85    1
   125    73    72    2
   126    64    63    1
   127    64    65    1
   128    90    89    1
   129    90    91    1
   130    72    80   am
   131    92    91    2
   132    54    55    1
   133    58    55    1
   134    80    81    1
   135    66    65    2
   136    85    84    1
   137    81    84    1
   138    81    82    1
   139    55    56    1
   140    56    57    2
   141    82    83    2
