@<TRIPOS>MOLECULE
tmp/4qpfA00.pdb
 193 179 0 0 0
SMALL
GASTEIGER

@<TRIPOS>ATOM
      1  N          2.0820  -30.8330   19.2410 N.3    47  ARG47      -0.1245
      2  CA         2.2670  -29.4290   19.6760 C.3    47  ARG47       0.1563
      3  C          1.6620  -28.5260   18.6830 C.2    47  ARG47       0.2260
      4  O          0.9810  -27.5640   19.0040 O.2    47  ARG47      -0.2867
      5  CB         3.7410  -29.0490   19.8830 C.3    47  ARG47       0.0307
      6  CG         4.3690  -29.8280   20.9730 C.3    47  ARG47       0.0489
      7  CD         5.8210  -29.5130   21.0580 C.3    47  ARG47       0.2205
      8  NE         6.4510  -30.5250   21.8570 N.pl3  47  ARG47      -0.0865
      9  CZ         7.6610  -30.3950   22.3550 C.cat  47  ARG47       0.5346
     10  NH1        8.3730  -29.2880   22.1390 N.pl3  47  ARG47       0.1354
     11  NH2        8.1580  -31.3850   23.0390 N.pl3  47  ARG47       0.1354
     12  N         15.3470  -26.8580   17.6560 N.3    86  PHE86      -0.1227
     13  CA        15.9200  -27.3200   18.9030 C.3    86  PHE86       0.1736
     14  C         16.4270  -28.7470   19.0130 C.2    86  PHE86       0.2595
     15  O         17.4820  -28.9790   19.5950 O.2    86  PHE86      -0.2718
     16  CB        14.9130  -27.0310   20.0840 C.3    86  PHE86       0.0547
     17  CG        14.9820  -25.5870   20.6540 C.ar   86  PHE86      -0.0202
     18  CD1       13.9200  -24.7090   20.5790 C.ar   86  PHE86      -0.0042
     19  CD2       16.1340  -25.1280   21.2620 C.ar   86  PHE86      -0.0042
     20  CE1       14.0190  -23.4400   21.0360 C.ar   86  PHE86      -0.0003
     21  CE2       16.2440  -23.8210   21.7360 C.ar   86  PHE86      -0.0003
     22  CZ        15.1600  -23.0090   21.6320 C.ar   86  PHE86      -0.0000
     23  N         15.7170  -29.6560   18.3880 N.am   87  LEU87      -0.1980
     24  CA        16.0770  -31.0700   18.3830 C.3    87  LEU87       0.1596
     25  C         17.3380  -31.3210   17.4900 C.2    87  LEU87       0.2287
     26  O         18.2010  -32.1520   17.8890 O.2    87  LEU87      -0.2864
     27  CB        14.9250  -31.9430   17.9010 C.3    87  LEU87       0.0297
     28  CG        13.6810  -31.8820   18.7190 C.3    87  LEU87       0.0022
     29  CD1       12.6530  -32.8370   18.1640 C.3    87  LEU87       0.0001
     30  CD2       14.0560  -32.3600   20.1370 C.3    87  LEU87       0.0001
     31  N         20.0500  -30.1650   19.7140 N.3    90  ASP90      -0.1225
     32  CA        20.1520  -31.0210   20.8820 C.3    90  ASP90       0.1805
     33  C         20.8080  -32.3770   20.5670 C.2    90  ASP90       0.2597
     34  O         21.5890  -32.9220   21.3970 O.2    90  ASP90      -0.2718
     35  CB        18.7400  -31.2910   21.4640 C.3    90  ASP90       0.1424
     36  CG        18.6750  -32.1420   22.6530 C.2    90  ASP90       0.3668
     37  OD1       19.0400  -31.6610   23.7860 O.co2  90  ASP90      -0.2456
     38  OD2       18.3480  -33.3190   22.4820 O.co2  90  ASP90      -0.2456
     39  N         20.4830  -32.9400   19.4060 N.am   91  ASP91      -0.1974
     40  CA        21.0030  -34.2340   19.0790 C.3    91  ASP91       0.1709
     41  C         22.5610  -34.1720   18.9260 C.2    91  ASP91       0.2293
     42  O         23.2720  -35.1280   19.2720 O.2    91  ASP91      -0.2864
     43  CB        20.3330  -34.7430   17.8150 C.3    91  ASP91       0.1436
     44  CG        18.9690  -35.3710   18.0810 C.2    91  ASP91       0.3671
     45  OD1       18.6930  -35.7460   19.2550 O.co2  91  ASP91      -0.2456
     46  OD2       18.1560  -35.5320   17.1120 O.co2  91  ASP91      -0.2456
     47  N         24.0120  -33.7750   22.5750 N.3    94  ASP94      -0.1239
     48  CA        23.7460  -34.9840   23.3590 C.3    94  ASP94       0.1674
     49  C         24.4100  -36.2430   22.7580 C.2    94  ASP94       0.2266
     50  O         24.2970  -37.3440   23.3230 O.2    94  ASP94      -0.2867
     51  CB        22.2160  -35.1840   23.5370 C.3    94  ASP94       0.1410
     52  CG        21.5470  -34.1230   24.4830 C.2    94  ASP94       0.3668
     53  OD1       22.3230  -33.3970   25.1200 O.co2  94  ASP94      -0.2456
     54  OD2       20.3100  -34.1330   24.5470 O.co2  94  ASP94      -0.2456
     55  N         23.6030  -37.9090   20.0600 N.3    96  SER96      -0.1217
     56  CA        22.5220  -38.9110   19.8430 C.3    96  SER96       0.1889
     57  C         22.7290  -39.6170   18.5340 C.2    96  SER96       0.2288
     58  O         23.4910  -39.1140   17.6650 O.2    96  SER96      -0.2866
     59  CB        21.0830  -38.2960   19.9700 C.3    96  SER96       0.2089
     60  OG        20.8570  -37.9430   21.3780 O.3    96  SER96      -0.2183
     61  N         16.7430  -40.3500   15.7300 N.3    99  ARG99      -0.1245
     62  CA        15.6100  -39.4630   16.0200 C.3    99  ARG99       0.1563
     63  C         14.4850  -39.7190   15.0390 C.2    99  ARG99       0.2260
     64  O         14.7080  -39.6920   13.8210 O.2    99  ARG99      -0.2867
     65  CB        16.0950  -37.9920   15.8940 C.3    99  ARG99       0.0307
     66  CG        15.0510  -36.8770   15.9400 C.3    99  ARG99       0.0489
     67  CD        14.4660  -36.5320   17.2910 C.3    99  ARG99       0.2205
     68  NE        15.4630  -35.9970   18.1770 N.pl3  99  ARG99      -0.0865
     69  CZ        15.2240  -35.7540   19.4640 C.cat  99  ARG99       0.5346
     70  NH1       14.0250  -36.0360   19.9270 N.pl3  99  ARG99       0.1354
     71  NH2       16.1590  -35.2480   20.2360 N.pl3  99  ARG99       0.1354
     72  N         13.8960  -21.6810   26.6940 N.3   154  THR154     -0.1218
     73  CA        14.2950  -23.0310   26.3690 C.3   154  THR154      0.1862
     74  C         15.8380  -23.1080   26.3700 C.2   154  THR154      0.2287
     75  O         16.4550  -24.0720   26.8370 O.2   154  THR154     -0.2866
     76  CB        13.6750  -23.4240   24.9800 C.3   154  THR154      0.1770
     77  OG1       12.2610  -23.3670   25.0970 O.3   154  THR154     -0.2211
     78  CG2       14.0470  -24.7950   24.6000 C.3   154  THR154      0.0375
     79  N         18.3500  -25.4220   28.3960 N.3   158  GLN158     -0.1245
     80  CA        19.4010  -26.1960   27.7870 C.3   158  GLN158      0.1566
     81  C         20.7510  -25.9270   28.4880 C.2   158  GLN158      0.2260
     82  O         21.5670  -26.8150   28.7020 O.2   158  GLN158     -0.2867
     83  CB        19.5120  -25.9200   26.2260 C.3   158  GLN158      0.0367
     84  CG        18.4130  -26.5520   25.4190 C.3   158  GLN158      0.0905
     85  CD        18.4310  -28.0650   25.4520 C.2   158  GLN158      0.2608
     86  OE1       17.9830  -28.6640   26.4520 O.2   158  GLN158     -0.2717
     87  NE2       18.9890  -28.6860   24.4230 N.am  158  GLN158     -0.0878
     88  N         20.7480  -27.8130   31.7290 N.3   161  ASP161     -0.1239
     89  CA        20.9140  -29.2250   31.3740 C.3   161  ASP161      0.1674
     90  C         22.3920  -29.5720   31.1370 C.2   161  ASP161      0.2266
     91  O         22.9220  -30.5740   31.7080 O.2   161  ASP161     -0.2867
     92  CB        20.0430  -29.4990   30.0970 C.3   161  ASP161      0.1410
     93  CG        20.1430  -30.9410   29.5560 C.2   161  ASP161      0.3668
     94  OD1       21.1070  -31.2370   28.8060 O.co2 161  ASP161     -0.2456
     95  OD2       19.2600  -31.7610   29.8570 O.co2 161  ASP161     -0.2456
     96  N         13.7820  -26.0320   30.1870 N.3   187  LYS187     -0.1231
     97  CA        14.1210  -26.7050   28.8860 C.3   187  LYS187      0.1693
     98  C         12.9650  -27.3260   28.1530 C.2   187  LYS187      0.2592
     99  O         13.0390  -27.5970   26.9220 O.2   187  LYS187     -0.2718
    100  CB        15.2730  -27.6810   29.0090 C.3   187  LYS187      0.0285
    101  CG        14.8530  -29.0770   29.5500 C.3   187  LYS187      0.0035
    102  CD        15.9550  -30.0920   29.4010 C.3   187  LYS187      0.0206
    103  CE        15.5580  -31.4570   30.0360 C.3   187  LYS187      0.1093
    104  NZ        16.5180  -32.5580   29.7570 N.3   187  LYS187     -0.1314
    105  N         11.8440  -27.5840   28.8460 N.am  188  THR188     -0.1953
    106  CA        10.6980  -28.2280   28.2230 C.3   188  THR188      0.1897
    107  C          9.3350  -27.6050   28.4730 C.2   188  THR188      0.2313
    108  O          8.5310  -27.5570   27.5380 O.2   188  THR188     -0.2863
    109  CB        10.6460  -29.7620   28.5950 C.3   188  THR188      0.1794
    110  OG1       11.9040  -30.3500   28.1690 O.3   188  THR188     -0.2208
    111  CG2        9.5040  -30.4990   27.9340 C.3   188  THR188      0.0378
    112  N          8.1680  -24.4210   25.9850 N.3   191  TYR191     -0.1241
    113  CA         8.0130  -24.5900   24.5470 C.3   191  TYR191      0.1605
    114  C          7.1690  -25.7500   24.1050 C.2   191  TYR191      0.2264
    115  O          6.8670  -25.8470   22.8840 O.2   191  TYR191     -0.2867
    116  CB         9.3770  -24.5760   23.8540 C.3   191  TYR191      0.0534
    117  CG        10.1010  -25.8610   23.5790 C.ar  191  TYR191     -0.0201
    118  CD1       10.8370  -26.0450   22.4090 C.ar  191  TYR191     -0.0009
    119  CD2       10.1950  -26.8670   24.4950 C.ar  191  TYR191     -0.0009
    120  CE1       11.5310  -27.2190   22.1860 C.ar  191  TYR191      0.0417
    121  CE2       10.8400  -28.0730   24.2270 C.ar  191  TYR191      0.0417
    122  CZ        11.4860  -28.2390   23.0730 C.ar  191  TYR191      0.1957
    123  OH        12.1550  -29.3950   22.8860 O.3   191  TYR191     -0.2866
    124  N          5.7780  -34.3450   31.0140 N.3   226  PHE226     -0.1227
    125  CA         6.1570  -34.8260   29.7560 C.3   226  PHE226      0.1736
    126  C          7.6680  -35.1140   29.7440 C.2   226  PHE226      0.2595
    127  O          8.1080  -36.0780   29.1970 O.2   226  PHE226     -0.2718
    128  CB         5.8070  -33.7950   28.6790 C.3   226  PHE226      0.0547
    129  CG         6.1150  -34.2680   27.2830 C.ar  226  PHE226     -0.0202
    130  CD1        5.2090  -35.0330   26.6200 C.ar  226  PHE226     -0.0042
    131  CD2        7.3220  -34.0010   26.6690 C.ar  226  PHE226     -0.0042
    132  CE1        5.4640  -35.5360   25.3870 C.ar  226  PHE226     -0.0003
    133  CE2        7.6030  -34.5180   25.4030 C.ar  226  PHE226     -0.0003
    134  CZ         6.6510  -35.2810   24.7540 C.ar  226  PHE226     -0.0000
    135  N          8.4530  -34.2250   30.3560 N.am  227  GLN227     -0.1979
    136  CA         9.9300  -34.4170   30.4500 C.3   227  GLN227      0.1601
    137  C         10.2910  -35.6080   31.3450 C.2   227  GLN227      0.2287
    138  O         11.2220  -36.3540   31.0910 O.2   227  GLN227     -0.2864
    139  CB        10.6830  -33.1180   30.9040 C.3   227  GLN227      0.0394
    140  CG        12.2050  -33.2740   30.7370 C.3   227  GLN227      0.0908
    141  CD        12.6600  -33.5910   29.3310 C.2   227  GLN227      0.2608
    142  OE1       12.1480  -32.9810   28.3880 O.2   227  GLN227     -0.2717
    143  NE2       13.5420  -34.5990   29.1600 N.am  227  GLN227     -0.0878
    144  N          9.7040  -38.5550   29.2670 N.3   230  ASP230     -0.1225
    145  CA        10.8080  -38.6150   28.3400 C.3   230  ASP230      0.1805
    146  C         12.0700  -39.2450   28.9690 C.2   230  ASP230      0.2597
    147  O         12.7460  -40.0900   28.3470 O.2   230  ASP230     -0.2718
    148  CB        11.0990  -37.2270   27.7360 C.3   230  ASP230      0.1424
    149  CG        12.2690  -37.2610   26.7900 C.2   230  ASP230      0.3668
    150  OD1       12.0580  -37.6800   25.6490 O.co2 230  ASP230     -0.2456
    151  OD2       13.4030  -36.9560   27.1780 O.co2 230  ASP230     -0.2456
    152  N         12.3670  -38.8800   30.2030 N.am  231  ASP231     -0.1974
    153  CA        13.5280  -39.3930   30.9180 C.3   231  ASP231      0.1709
    154  C         13.3240  -40.8960   31.2400 C.2   231  ASP231      0.2293
    155  O         14.2210  -41.7250   31.0510 O.2   231  ASP231     -0.2864
    156  CB        13.7860  -38.6750   32.1980 C.3   231  ASP231      0.1436
    157  CG        14.2550  -37.2350   32.0410 C.2   231  ASP231      0.3671
    158  OD1       14.4730  -36.7320   30.9160 O.co2 231  ASP231     -0.2456
    159  OD2       14.3980  -36.5520   33.0590 O.co2 231  ASP231     -0.2456
    160  N         13.8260  -42.8760   27.9470 N.3   234  ASP234     -0.1239
    161  CA        15.2040  -42.8730   27.4630 C.3   234  ASP234      0.1674
    162  C         15.8350  -44.2600   27.6440 C.2   234  ASP234      0.2266
    163  O         16.5830  -44.7570   26.8540 O.2   234  ASP234     -0.2867
    164  CB        16.0490  -41.8310   28.2090 C.3   234  ASP234      0.1410
    165  CG        17.3530  -41.5160   27.4780 C.2   234  ASP234      0.3668
    166  OD1       17.2430  -40.8930   26.4210 O.co2 234  ASP234     -0.2456
    167  OD2       18.4140  -41.8350   28.0030 O.co2 234  ASP234     -0.2456
    168  N         13.9520  -43.2170   18.9700 N.3   244  LYS244     -0.1245
    169  CA        15.2910  -42.7220   19.3470 C.3   244  LYS244      0.1561
    170  C         15.9840  -43.6120   20.3690 C.2   244  LYS244      0.2260
    171  O         15.3080  -44.2610   21.1450 O.2   244  LYS244     -0.2867
    172  CB        15.1800  -41.2930   19.8970 C.3   244  LYS244      0.0271
    173  CG        14.3850  -41.1270   21.1950 C.3   244  LYS244      0.0035
    174  CD        14.1270  -39.6270   21.4870 C.3   244  LYS244      0.0206
    175  CE        13.1270  -39.3770   22.6000 C.3   244  LYS244      0.1093
    176  NZ        12.5090  -38.0190   22.5830 N.3   244  LYS244     -0.1314
    177  N         21.1200  -40.7650   28.1270 N.3   248  ASP248     -0.1239
    178  CA        21.2330  -39.9990   29.3410 C.3   248  ASP248      0.1674
    179  C         22.3360  -40.5000   30.3140 C.2   248  ASP248      0.2266
    180  O         23.0460  -39.6680   30.8880 O.2   248  ASP248     -0.2867
    181  CB        19.9040  -39.9060   30.1160 C.3   248  ASP248      0.1410
    182  CG        18.8450  -39.0480   29.4230 C.2   248  ASP248      0.3668
    183  OD1       17.6320  -39.1740   29.7500 O.co2 248  ASP248     -0.2456
    184  OD2       19.2120  -38.2460   28.5020 O.co2 248  ASP248     -0.2456
    185  N         23.5540  -37.2140   32.5480 N.3   253  LYS253     -0.1245
    186  CA        22.4250  -36.2690   32.6420 C.3   253  LYS253      0.1561
    187  C         21.7570  -36.3290   34.0160 C.2   253  LYS253      0.2260
    188  O         21.6650  -37.4420   34.5990 O.2   253  LYS253     -0.2867
    189  CB        21.3740  -36.5660   31.6100 C.3   253  LYS253      0.0271
    190  CG        21.8340  -36.3230   30.1720 C.3   253  LYS253      0.0035
    191  CD        22.3750  -34.9230   29.8860 C.3   253  LYS253      0.0206
    192  CE        22.3850  -34.6850   28.3740 C.3   253  LYS253      0.1093
    193  NZ        22.7600  -33.2870   27.8840 N.3   253  LYS253     -0.1314
@<TRIPOS>BOND
     1    64    63    2
     2    63    62    1
     3    61    62    1
     4    65    66    1
     5    65    62    1
     6    66    67    1
     7    46    44   ar
     8    67    68    1
     9    25    26    2
    10    25    24    1
    11    12    13    1
    12    58    57    2
    13    43    44    1
    14    43    40    1
    15    27    24    1
    16    27    28    1
    17    44    45   ar
    18    29    28    1
    19    68    69    2
    20    24    23    1
    21    23    14   am
    22    57    56    1
    23     3     4    2
    24     3     2    1
    25    28    30    1
    26    13    14    1
    27    13    16    1
    28    41    40    1
    29    41    42    2
    30   168   169    1
    31    14    15    2
    32    40    39    1
    33     1     2    1
    34   169   172    1
    35   169   170    1
    36    39    33   am
    37    69    70    1
    38    69    71    1
    39     2     5    1
    40    31    32    1
    41    56    59    1
    42    56    55    1
    43     5     6    1
    44   172   173    1
    45    59    60    1
    46    16    17    1
    47   170   171    2
    48    33    32    1
    49    33    34    2
    50    18    17   ar
    51    18    20   ar
    52    17    19   ar
    53    32    35    1
    54     6     7    1
    55    20    22   ar
    56     7     8    1
    57   173   174    1
    58    19    21   ar
    59    35    36    1
    60   174   175    1
    61    22    21   ar
    62     8     9    2
    63    10     9    1
    64   120   118   ar
    65   120   122   ar
    66     9    11    1
    67   118   117   ar
    68    38    36   ar
    69    47    48    1
    70   176   175    1
    71    36    37   ar
    72    49    50    2
    73    49    48    1
    74   115   114    2
    75   123   122    1
    76   122   121   ar
    77    48    51    1
    78    51    52    1
    79   117   116    1
    80   117   119   ar
    81   116   113    1
    82   114   113    1
    83   121   119   ar
    84    87    85   am
    85    52    54   ar
    86    52    53   ar
    87   113   112    1
    88    78    76    1
    89   134   132   ar
    90   134   133   ar
    91    76    77    1
    92    76    73    1
    93   132   130   ar
    94   133   131   ar
    95    84    85    1
    96    84    83    1
    97    85    86    2
    98   150   149   ar
    99    83    80    1
   100    73    74    1
   101    73    72    1
   102    74    75    2
   103   166   165   ar
   104   130   129   ar
   105   131   129   ar
   106   149   151   ar
   107   149   148    1
   108   163   162    2
   109    99    98    2
   110   129   128    1
   111   161   162    1
   112   161   160    1
   113   161   164    1
   114   165   167   ar
   115   165   164    1
   116   108   107    2
   117   148   145    1
   118    80    79    1
   119    80    81    1
   120   193   192    1
   121   111   109    1
   122   177   178    1
   123    98   105   am
   124    98    97    1
   125   110   109    1
   126   106   107    1
   127   106   109    1
   128   106   105    1
   129   145   146    1
   130   145   144    1
   131   147   146    2
   132   192   191    1
   133   142   141    2
   134    81    82    2
   135   184   182   ar
   136   128   125    1
   137    94    93   ar
   138    97   100    1
   139    97    96    1
   140   146   152   am
   141   100   101    1
   142   143   141   am
   143   127   126    2
   144   141   140    1
   145   178   181    1
   146   178   179    1
   147   102   101    1
   148   102   103    1
   149   182   183   ar
   150   182   181    1
   151    93    95   ar
   152    93    92    1
   153   126   125    1
   154   126   135   am
   155   125   124    1
   156   104   103    1
   157   191   190    1
   158    92    89    1
   159   190   189    1
   160   152   153    1
   161   179   180    2
   162   135   136    1
   163   136   139    1
   164   136   137    1
   165   140   139    1
   166   158   157   ar
   167   153   154    1
   168   153   156    1
   169   155   154    2
   170   138   137    2
   171    90    89    1
   172    90    91    2
   173    89    88    1
   174   189   186    1
   175   157   156    1
   176   157   159   ar
   177   185   186    1
   178   186   187    1
   179   187   188    2
