@<TRIPOS>MOLECULE
tmp/4qplC00.pdb
 200 192 0 0 0
SMALL
GASTEIGER

@<TRIPOS>ATOM
      1  N        -28.9260   20.0220   20.4890 N.3    28  TYR28      -0.1227
      2  CA       -30.0940   19.1870   20.7990 C.3    28  TYR28       0.1736
      3  C        -29.7310   17.7000   20.6460 C.2    28  TYR28       0.2595
      4  O        -30.0330   16.8720   21.5260 O.2    28  TYR28      -0.2718
      5  CB       -31.2720   19.4810   19.8640 C.3    28  TYR28       0.0548
      6  CG       -32.4820   18.5840   20.0670 C.ar   28  TYR28      -0.0200
      7  CD1      -33.1610   18.5540   21.2810 C.ar   28  TYR28      -0.0009
      8  CD2      -32.9420   17.7680   19.0480 C.ar   28  TYR28      -0.0009
      9  CE1      -34.2440   17.7350   21.4810 C.ar   28  TYR28       0.0417
     10  CE2      -34.0390   16.9500   19.2410 C.ar   28  TYR28       0.0417
     11  CZ       -34.6800   16.9260   20.4670 C.ar   28  TYR28       0.1957
     12  OH       -35.7740   16.1170   20.6670 O.3    28  TYR28      -0.2866
     13  N        -29.0780   17.3800   19.5470 N.am   29  LEU29      -0.1980
     14  CA       -28.7990   15.9480   19.2570 C.3    29  LEU29       0.1596
     15  C        -27.7260   15.2880   20.1410 C.2    29  LEU29       0.2287
     16  O        -27.7050   14.0530   20.3220 O.2    29  LEU29      -0.2864
     17  CB       -28.4940   15.7870   17.7740 C.3    29  LEU29       0.0297
     18  CG       -29.7000   15.9960   16.8570 C.3    29  LEU29       0.0022
     19  CD1      -29.2120   15.8680   15.4330 C.3    29  LEU29       0.0001
     20  CD2      -30.8440   15.0330   17.1380 C.3    29  LEU29       0.0001
     21  N        -29.7660   14.5550   23.2300 N.3    32  LYS32      -0.1245
     22  CA       -30.5290   13.3590   22.9220 C.3    32  LYS32       0.1561
     23  C        -29.6400   12.1090   22.9950 C.2    32  LYS32       0.2260
     24  O        -30.0360   11.1110   23.5960 O.2    32  LYS32      -0.2867
     25  CB       -31.1930   13.5050   21.5530 C.3    32  LYS32       0.0271
     26  CG       -32.2320   12.4680   21.2550 C.3    32  LYS32       0.0035
     27  CD       -33.1990   12.9370   20.1540 C.3    32  LYS32       0.0206
     28  CE       -34.1150   11.7910   19.7800 C.3    32  LYS32       0.1093
     29  NZ       -35.2750   12.2050   18.9350 N.3    32  LYS32      -0.1314
     30  N        -29.8100    8.6000   26.2250 N.3    36  TRP36      -0.1241
     31  CA       -29.9090    7.1280   26.2330 C.3    36  TRP36       0.1605
     32  C        -29.1930    6.5560   27.4680 C.2    36  TRP36       0.2264
     33  O        -29.6380    5.5680   28.0430 O.2    36  TRP36      -0.2867
     34  CB       -29.3300    6.4780   24.9630 C.3    36  TRP36       0.0550
     35  CG       -29.8000    7.0400   23.6320 C.ar   36  TRP36       0.0003
     36  CD1      -29.0050    7.3430   22.5680 C.ar   36  TRP36       0.0946
     37  CD2      -31.1430    7.3680   23.2300 C.ar   36  TRP36       0.0152
     38  NE1      -29.7570    7.8240   21.5230 N.ar   36  TRP36      -0.2442
     39  CE2      -31.0720    7.8530   21.8990 C.ar   36  TRP36       0.0810
     40  CE3      -32.3940    7.3010   23.8570 C.ar   36  TRP36       0.0012
     41  CZ2      -32.2040    8.2700   21.1810 C.ar   36  TRP36       0.0191
     42  CZ3      -33.5240    7.7180   23.1400 C.ar   36  TRP36       0.0001
     43  CH2      -33.4140    8.2020   21.8160 C.ar   36  TRP36       0.0015
     44  N        -35.7430   13.1860    6.2220 N.3    78  TYR78      -0.1241
     45  CA       -35.9020   11.7810    6.6060 C.3    78  TYR78       0.1605
     46  C        -37.3520   11.5650    7.0610 C.2    78  TYR78       0.2264
     47  O        -38.0030   12.4520    7.6200 O.2    78  TYR78      -0.2867
     48  CB       -34.8700   11.3390    7.6750 C.3    78  TYR78       0.0534
     49  CG       -34.9770   12.0520    9.0140 C.ar   78  TYR78      -0.0201
     50  CD1      -34.3750   13.3010    9.2120 C.ar   78  TYR78      -0.0009
     51  CD2      -35.7210   11.5070   10.0740 C.ar   78  TYR78      -0.0009
     52  CE1      -34.4560   13.9450   10.4410 C.ar   78  TYR78       0.0417
     53  CE2      -35.8120   12.1650   11.2990 C.ar   78  TYR78       0.0417
     54  CZ       -35.1730   13.3920   11.4620 C.ar   78  TYR78       0.1957
     55  OH       -35.2830   14.0590   12.6460 O.3    78  TYR78      -0.2866
     56  N        -43.5400    9.9760   11.0670 N.3    81  ARG81      -0.1245
     57  CA       -44.9230    9.5590   11.0280 C.3    81  ARG81       0.1563
     58  C        -45.7400   10.6740   10.3780 C.2    81  ARG81       0.2260
     59  O        -45.7320   11.8110   10.8570 O.2    81  ARG81      -0.2867
     60  CB       -45.4400    9.2600   12.4440 C.3    81  ARG81       0.0307
     61  CG       -46.8680    8.7180   12.4840 C.3    81  ARG81       0.0489
     62  CD       -47.4160    8.5790   13.9040 C.3    81  ARG81       0.2205
     63  NE       -46.5780    7.7160   14.7470 N.pl3  81  ARG81      -0.0865
     64  CZ       -45.6560    8.1370   15.6190 C.cat  81  ARG81       0.5346
     65  NH1      -45.4200    9.4340   15.8080 N.pl3  81  ARG81       0.1354
     66  NH2      -44.9590    7.2470   16.3200 N.pl3  81  ARG81       0.1354
     67  N        -39.2090   14.9490    8.2930 N.3    85  TRP85      -0.1241
     68  CA       -38.3270   15.7560    9.1210 C.3    85  TRP85       0.1605
     69  C        -37.1680   16.2890    8.2600 C.2    85  TRP85       0.2264
     70  O        -36.6480   15.5820    7.4100 O.2    85  TRP85      -0.2867
     71  CB       -37.7420   14.9000   10.2400 C.3    85  TRP85       0.0550
     72  CG       -38.6820   14.4580   11.3050 C.ar   85  TRP85       0.0003
     73  CD1      -39.2240   13.2120   11.4520 C.ar   85  TRP85       0.0946
     74  CD2      -39.1530   15.2340   12.4100 C.ar   85  TRP85       0.0152
     75  NE1      -40.0200   13.1750   12.5650 N.ar   85  TRP85      -0.2442
     76  CE2      -39.9960   14.4060   13.1710 C.ar   85  TRP85       0.0810
     77  CE3      -38.9570   16.5670   12.8250 C.ar   85  TRP85       0.0012
     78  CZ2      -40.6270   14.8520   14.3400 C.ar   85  TRP85       0.0191
     79  CZ3      -39.5950   17.0110   13.9620 C.ar   85  TRP85       0.0001
     80  CH2      -40.4120   16.1590   14.7210 C.ar   85  TRP85       0.0015
     81  N        -33.2740   17.0290    8.0020 N.3    87  TYR87      -0.1227
     82  CA       -31.9690   16.8070    8.6330 C.3    87  TYR87       0.1736
     83  C        -31.4030   18.0970    9.2040 C.2    87  TYR87       0.2595
     84  O        -31.5530   19.1400    8.5960 O.2    87  TYR87      -0.2718
     85  CB       -30.9530   16.2430    7.6380 C.3    87  TYR87       0.0548
     86  CG       -31.0690   14.7320    7.4090 C.ar   87  TYR87      -0.0200
     87  CD1      -30.4190   13.8460    8.2350 C.ar   87  TYR87      -0.0009
     88  CD2      -31.8110   14.2260    6.3480 C.ar   87  TYR87      -0.0009
     89  CE1      -30.4790   12.4640    8.0110 C.ar   87  TYR87       0.0417
     90  CE2      -31.9030   12.8560    6.1260 C.ar   87  TYR87       0.0417
     91  CZ       -31.2490   11.9880    6.9750 C.ar   87  TYR87       0.1957
     92  OH       -31.3100   10.6360    6.7810 O.3    87  TYR87      -0.2866
     93  N        -30.7390   18.0020   10.3490 N.am   88  ASP88      -0.1974
     94  CA       -29.9160   19.1110   10.8440 C.3    88  ASP88       0.1709
     95  C        -28.8730   19.5220    9.7940 C.2    88  ASP88       0.2293
     96  O        -28.4470   18.7140    8.9570 O.2    88  ASP88      -0.2864
     97  CB       -29.2290   18.7280   12.1650 C.3    88  ASP88       0.1436
     98  CG       -28.0090   17.8390   11.9620 C.2    88  ASP88       0.3671
     99  OD1      -28.1090   16.5780   12.0010 O.co2  88  ASP88      -0.2456
    100  OD2      -26.9240   18.3950   11.7220 O.co2  88  ASP88      -0.2456
    101  N        -25.6600   10.2470   14.6670 N.3   110  ILE110     -0.1231
    102  CA       -26.8940   10.9780   14.9490 C.3   110  ILE110      0.1692
    103  C        -27.4070   10.5390   16.3060 C.2   110  ILE110      0.2591
    104  O        -27.7450    9.3700   16.5090 O.2   110  ILE110     -0.2718
    105  CB       -27.9630   10.7290   13.8620 C.3   110  ILE110      0.0266
    106  CG1      -27.4210   11.0510   12.4670 C.3   110  ILE110      0.0019
    107  CG2      -29.2210   11.5480   14.1390 C.3   110  ILE110      0.0020
    108  CD1      -28.4500   10.8800   11.3670 C.3   110  ILE110      0.0001
    109  N        -27.4390   11.4820   17.2390 N.am  111  ALA111     -0.1980
    110  CA       -27.9030   11.2300   18.6080 C.3   111  ALA111      0.1597
    111  C        -27.3590    9.9520   19.2290 C.2   111  ALA111      0.2287
    112  O        -28.1180    9.0960   19.6910 O.2   111  ALA111     -0.2864
    113  CB       -29.4190   11.2340   18.6320 C.3   111  ALA111      0.0319
    114  N        -25.3570    5.9710   11.9330 N.3   115  TYR115     -0.1241
    115  CA       -26.3140    5.6040   10.9050 C.3   115  TYR115      0.1605
    116  C        -25.6290    5.4690    9.5530 C.2   115  TYR115      0.2264
    117  O        -24.5990    6.1050    9.2810 O.2   115  TYR115     -0.2867
    118  CB       -27.4160    6.6580   10.8210 C.3   115  TYR115      0.0534
    119  CG       -28.4380    6.5700   11.9220 C.ar  115  TYR115     -0.0201
    120  CD1      -28.1460    7.0180   13.1900 C.ar  115  TYR115     -0.0009
    121  CD2      -29.7060    6.0460   11.6810 C.ar  115  TYR115     -0.0009
    122  CE1      -29.0630    6.9340   14.2140 C.ar  115  TYR115      0.0417
    123  CE2      -30.6390    5.9480   12.6880 C.ar  115  TYR115      0.0417
    124  CZ       -30.3180    6.3980   13.9610 C.ar  115  TYR115      0.1957
    125  OH       -31.2270    6.3280   15.0010 O.3   115  TYR115     -0.2866
    126  N        -32.0860    5.5440    5.4720 N.3   124  GLN124     -0.1245
    127  CA       -31.1230    5.5300    6.5420 C.3   124  GLN124      0.1566
    128  C        -31.5330    4.4940    7.5820 C.2   124  GLN124      0.2260
    129  O        -32.6800    4.2730    7.7780 O.2   124  GLN124     -0.2867
    130  CB       -31.0090    6.8800    7.2570 C.3   124  GLN124      0.0367
    131  CG       -32.2720    7.3430    7.9560 C.3   124  GLN124      0.0905
    132  CD       -32.0330    8.2510    9.1480 C.2   124  GLN124      0.2608
    133  OE1      -31.5190    9.3490    9.0060 O.2   124  GLN124     -0.2717
    134  NE2      -32.4390    7.8220   10.2900 N.am  124  GLN124     -0.0878
    135  N        -29.6700    2.4470   11.4680 N.3   126  ARG126     -0.1245
    136  CA       -28.5190    2.2730   12.3660 C.3   126  ARG126      0.1563
    137  C        -27.6340    1.1600   11.8660 C.2   126  ARG126      0.2260
    138  O        -28.1010    0.0480   11.5950 O.2   126  ARG126     -0.2867
    139  CB       -28.9420    1.9230   13.7990 C.3   126  ARG126      0.0307
    140  CG       -29.4860    3.0760   14.5680 C.3   126  ARG126      0.0489
    141  CD       -29.5400    2.8050   16.0620 C.3   126  ARG126      0.2205
    142  NE       -30.0510    3.9960   16.7360 N.pl3 126  ARG126     -0.0865
    143  CZ       -30.4630    4.0590   17.9990 C.cat 126  ARG126      0.5346
    144  NH1      -30.4160    2.9970   18.7870 N.pl3 126  ARG126      0.1354
    145  NH2      -30.9170    5.2130   18.4750 N.pl3 126  ARG126      0.1354
    146  N        -33.5380   -2.0720   13.4210 N.3   131  GLY131     -0.1210
    147  CA       -33.9940   -0.7130   13.6030 C.3   131  GLY131      0.1956
    148  C        -34.8510   -0.3260   12.4390 C.2   131  GLY131      0.2611
    149  O        -34.9360   -1.0470   11.4380 O.2   131  GLY131     -0.2717
    150  N        -35.4920    0.8190   12.5870 N.am  132  ARG132     -0.1979
    151  CA       -36.3000    1.3940   11.5350 C.3   132  ARG132      0.1597
    152  C        -35.4080    1.7940   10.3740 C.2   132  ARG132      0.2287
    153  O        -34.3100    2.2990   10.5540 O.2   132  ARG132     -0.2864
    154  CB       -37.0730    2.6320   12.0560 C.3   132  ARG132      0.0334
    155  CG       -38.3190    2.9450   11.2340 C.3   132  ARG132      0.0492
    156  CD       -39.1180    4.1280   11.7700 C.3   132  ARG132      0.2205
    157  NE       -40.1120    4.5890   10.7920 N.pl3 132  ARG132     -0.0865
    158  CZ       -40.8920    5.6660   10.9310 C.cat 132  ARG132      0.5346
    159  NH1      -40.8260    6.4330   12.0190 N.pl3 132  ARG132      0.1354
    160  NH2      -41.7540    5.9830    9.9690 N.pl3 132  ARG132      0.1354
    161  N        -35.6620    4.4590    7.6740 N.3   134  ARG134     -0.1245
    162  CA       -36.4340    5.6330    7.2870 C.3   134  ARG134      0.1563
    163  C        -36.0620    6.0540    5.8790 C.2   134  ARG134      0.2260
    164  O        -34.8880    6.0590    5.5120 O.2   134  ARG134     -0.2867
    165  CB       -36.1810    6.7730    8.2640 C.3   134  ARG134      0.0307
    166  CG       -36.6580    6.4850    9.6860 C.3   134  ARG134      0.0489
    167  CD       -36.2690    7.6190   10.6180 C.3   134  ARG134      0.2205
    168  NE       -36.5780    7.3220   12.0060 N.pl3 134  ARG134     -0.0865
    169  CZ       -37.6330    7.7640   12.6930 C.cat 134  ARG134      0.5346
    170  NH1      -38.5360    8.5540   12.1290 N.pl3 134  ARG134      0.1354
    171  NH2      -37.7910    7.4160   13.9780 N.pl3 134  ARG134      0.1354
    172  N        -42.4670   18.3680    9.4100 N.3   146  LYS146     -0.1245
    173  CA       -42.7620   18.2230   10.8330 C.3   146  LYS146      0.1561
    174  C        -41.8730   19.0980   11.6940 C.2   146  LYS146      0.2260
    175  O        -42.2490   19.4770   12.7920 O.2   146  LYS146     -0.2867
    176  CB       -42.5480   16.7690   11.2790 C.3   146  LYS146      0.0271
    177  CG       -43.4510   15.7640   10.5860 C.3   146  LYS146      0.0035
    178  CD       -43.3210   14.3880   11.2150 C.3   146  LYS146      0.0206
    179  CE       -43.9240   14.3930   12.6190 C.3   146  LYS146      0.1093
    180  NZ       -44.3430   13.0390   13.0780 N.3   146  LYS146     -0.1314
    181  N        -34.7980   17.8630   12.6770 N.3   149  ALA149     -0.1231
    182  CA       -34.0470   16.9910   13.5600 C.3   149  ALA149      0.1694
    183  C        -34.7530   16.5700   14.8550 C.2   149  ALA149      0.2592
    184  O        -34.1180   16.3610   15.8740 O.2   149  ALA149     -0.2718
    185  CB       -32.6770   17.5990   13.8510 C.3   149  ALA149      0.0304
    186  N        -36.0590   16.3790   14.7920 N.am  150  GLY150     -0.1957
    187  CA       -36.8650   16.1070   15.9750 C.3   150  GLY150      0.1869
    188  C        -37.4360   17.3340   16.6910 C.2   150  GLY150      0.2309
    189  O        -38.2370   17.1890   17.6190 O.2   150  GLY150     -0.2863
    190  N        -39.9390   20.3220   16.7150 N.3   152  ARG152     -0.1245
    191  CA       -41.1940   20.6370   16.0390 C.3   152  ARG152      0.1563
    192  C        -41.3380   22.1420   15.8550 C.2   152  ARG152      0.2260
    193  O        -40.9580   22.9010   16.7310 O.2   152  ARG152     -0.2867
    194  CB       -42.3990   20.0860   16.8250 C.3   152  ARG152      0.0307
    195  CG       -42.4910   18.5810   16.7280 C.3   152  ARG152      0.0489
    196  CD       -43.5730   17.9490   17.5920 C.3   152  ARG152      0.2205
    197  NE       -43.2480   16.5210   17.7480 N.pl3 152  ARG152     -0.0865
    198  CZ       -43.5600   15.5410   16.8870 C.cat 152  ARG152      0.5346
    199  NH1      -44.2640   15.7820   15.7750 N.pl3 152  ARG152      0.1354
    200  NH2      -43.1710   14.2900   17.1520 N.pl3 152  ARG152      0.1354
@<TRIPOS>BOND
     1   126   127    1
     2   164   163    2
     3   163   162    1
     4    90    88   ar
     5    90    91   ar
     6    44    45    1
     7    88    86   ar
     8   127   130    1
     9   127   128    1
    10    45    46    1
    11    45    48    1
    12    92    91    1
    13    91    89   ar
    14    46    47    2
    15   130   131    1
    16   162   161    1
    17   162   165    1
    18    86    85    1
    19    86    87   ar
    20    70    69    2
    21   128   129    2
    22    85    82    1
    23    48    49    1
    24   131   132    1
    25    81    82    1
    26    89    87   ar
    27    69    68    1
    28   165   166    1
    29    67    68    1
    30    84    83    2
    31    82    83    1
    32    96    95    2
    33   133   132    2
    34    49    50   ar
    35    49    51   ar
    36    68    71    1
    37   132   134   am
    38    83    93   am
    39    50    52   ar
    40   117   116    2
    41   172   173    1
    42   116   115    1
    43   166   167    1
    44    95    94    1
    45   160   158    1
    46    51    53   ar
    47    71    72    1
    48    93    94    1
    49   152   153    2
    50   152   151    1
    51    58    59    2
    52    58    57    1
    53    52    54   ar
    54   177   178    1
    55   177   176    1
    56   167   168    1
    57   157   158    2
    58   157   156    1
    59   118   115    1
    60   118   119    1
    61   173   176    1
    62   173   174    1
    63    94    97    1
    64   115   114    1
    65   158   159    1
    66    57    56    1
    67    57    60    1
    68   178   179    1
    69   155   156    1
    70   155   154    1
    71    53    54   ar
    72    72    73   ar
    73    72    74   ar
    74   108   106    1
    75   149   148    2
    76    73    75   ar
    77    54    55    1
    78   135   136    1
    79   151   154    1
    80   151   150    1
    81   138   137    2
    82   121   119   ar
    83   121   123   ar
    84   174   175    2
    85   100    98   ar
    86   137   136    1
    87   119   120   ar
    88    98    99   ar
    89    98    97    1
    90   168   169    2
    91   170   169    1
    92   136   139    1
    93    74    77   ar
    94    74    76   ar
    95   148   150   am
    96   148   147    1
    97    60    61    1
    98   106   105    1
    99    61    62    1
   100    75    76   ar
   101   179   180    1
   102   181   182    1
   103   123   124   ar
   104   169   171    1
   105    77    79   ar
   106    76    78   ar
   107   120   122   ar
   108   146   147    1
   109   182   185    1
   110   182   183    1
   111   139   140    1
   112   105   107    1
   113   105   102    1
   114    62    63    1
   115   124   122   ar
   116   124   125    1
   117    79    80   ar
   118    78    80   ar
   119   140   141    1
   120   101   102    1
   121    63    64    2
   122   186   183   am
   123   186   187    1
   124   183   184    2
   125   102   103    1
   126    19    18    1
   127    64    65    1
   128    64    66    1
   129   199   198    1
   130   192   191    1
   131   192   193    2
   132   187   188    1
   133   191   190    1
   134   191   194    1
   135   141   142    1
   136   103   104    2
   137   103   109   am
   138   188   189    2
   139   195   194    1
   140   195   196    1
   141   142   143    2
   142    18    20    1
   143    18    17    1
   144   198   200    1
   145   198   197    2
   146   109   110    1
   147   196   197    1
   148    17    14    1
   149   143   145    1
   150   143   144    1
   151   110   113    1
   152   110   111    1
   153    29    28    1
   154     8    10   ar
   155     8     6   ar
   156   111   112    2
   157    10    11   ar
   158    14    13    1
   159    14    15    1
   160    13     3   am
   161    28    27    1
   162     5     6    1
   163     5     2    1
   164     6     7   ar
   165    15    16    2
   166    27    26    1
   167    11    12    1
   168    11     9   ar
   169     1     2    1
   170     3     2    1
   171     3     4    2
   172    41    43   ar
   173    41    39   ar
   174    26    25    1
   175     7     9   ar
   176    38    39   ar
   177    38    36   ar
   178    25    22    1
   179    43    42   ar
   180    39    37   ar
   181    36    35   ar
   182    22    23    1
   183    22    21    1
   184    23    24    2
   185    42    40   ar
   186    37    35   ar
   187    37    40   ar
   188    35    34    1
   189    34    31    1
   190    30    31    1
   191    31    32    1
   192    32    33    2
