@<TRIPOS>MOLECULE
tmp/4qpnA00.pdb
 201 193 0 0 0
SMALL
GASTEIGER

@<TRIPOS>ATOM
      1  N         -3.1640   34.7470   11.1940 N.3    29  VAL29      -0.1231
      2  CA        -3.6610   33.6120   11.9570 C.3    29  VAL29       0.1692
      3  C         -4.2520   34.0250   13.3040 C.2    29  VAL29       0.2591
      4  O         -5.0590   33.2930   13.8630 O.2    29  VAL29      -0.2718
      5  CB        -2.5800   32.5350   12.1760 C.3    29  VAL29       0.0266
      6  CG1       -2.1080   31.9560   10.8510 C.3    29  VAL29       0.0020
      7  CG2       -1.4240   33.0150   13.0010 C.3    29  VAL29       0.0020
      8  N         -3.8640   35.1880   13.8210 N.am   30  ALA30      -0.1980
      9  CA        -4.3760   35.6710   15.1090 C.3    30  ALA30       0.1597
     10  C         -5.8650   35.9500   15.0870 C.2    30  ALA30       0.2287
     11  O         -6.4960   36.0710   16.1340 O.2    30  ALA30      -0.2864
     12  CB        -3.6200   36.8820   15.6070 C.3    30  ALA30       0.0319
     13  N         -8.2850   33.9470   13.8640 N.3    32  ARG32      -0.1231
     14  CA        -9.1310   32.8140   13.8610 C.3    32  ARG32       0.1694
     15  C         -9.1450   32.1190   15.2390 C.2    32  ARG32       0.2592
     16  O         -8.1690   32.1340   15.9590 O.2    32  ARG32      -0.2718
     17  CB        -8.6090   31.8910   12.7660 C.3    32  ARG32       0.0321
     18  CG        -9.5270   30.7490   12.4220 C.3    32  ARG32       0.0489
     19  CD        -8.9190   29.8920   11.3520 C.3    32  ARG32       0.2205
     20  NE        -8.6120   30.6700   10.1550 N.pl3  32  ARG32      -0.0865
     21  CZ        -9.4630   31.0300    9.2170 C.cat  32  ARG32       0.5346
     22  NH1       -8.9960   31.7690    8.2080 N.pl3  32  ARG32       0.1354
     23  NH2      -10.7280   30.6750    9.3190 N.pl3  32  ARG32       0.1354
     24  N        -10.2410   31.4250   15.5230 N.am   33  VAL33      -0.1966
     25  CA       -10.3020   30.4530   16.6010 C.3    33  VAL33       0.1727
     26  C         -9.8450   29.1250   16.0330 C.2    33  VAL33       0.2616
     27  O        -10.4820   28.5650   15.1440 O.2    33  VAL33      -0.2715
     28  CB       -11.7140   30.3030   17.1950 C.3    33  VAL33       0.0290
     29  CG1      -11.7260   29.2280   18.2740 C.3    33  VAL33       0.0023
     30  CG2      -12.2740   31.6100   17.7530 C.3    33  VAL33       0.0023
     31  N         -8.6980   28.6110   16.4730 N.am   34  TRP34      -0.1974
     32  CA        -8.1350   27.3650   15.9460 C.3    34  TRP34       0.1640
     33  C         -8.5790   26.1910   16.8180 C.2    34  TRP34       0.2290
     34  O         -9.0810   26.3130   17.9120 O.2    34  TRP34      -0.2864
     35  CB        -6.6150   27.5080   15.8920 C.3    34  TRP34       0.0576
     36  CG        -6.1830   28.5630   14.9220 C.ar   34  TRP34       0.0006
     37  CD1       -5.9010   29.8670   15.1970 C.ar   34  TRP34       0.0946
     38  CD2       -5.9650   28.4100   13.4870 C.ar   34  TRP34       0.0152
     39  NE1       -5.5150   30.5400   14.0670 N.ar   34  TRP34      -0.2442
     40  CE2       -5.5800   29.6800   12.9940 C.ar   34  TRP34       0.0810
     41  CE3       -6.0860   27.3460   12.5770 C.ar   34  TRP34       0.0012
     42  CZ2       -5.2750   29.8990   11.6670 C.ar   34  TRP34       0.0191
     43  CZ3       -5.8160   27.5840   11.2630 C.ar   34  TRP34       0.0001
     44  CH2       -5.4090   28.8420   10.8260 C.ar   34  TRP34       0.0015
     45  N         -7.9110   25.3810   20.6520 N.3    37  ALA37      -0.1245
     46  CA        -8.5890   26.2500   21.5910 C.3    37  ALA37       0.1562
     47  C         -9.9160   25.6830   22.0230 C.2    37  ALA37       0.2260
     48  O        -10.2680   25.6940   23.1880 O.2    37  ALA37      -0.2867
     49  CB        -8.7760   27.6270   21.0090 C.3    37  ALA37       0.0290
     50  N         -2.2860   33.6690   29.7050 N.3    58  GLU58      -0.1245
     51  CA        -2.3810   33.0100   28.4120 C.3    58  GLU58       0.1567
     52  C         -1.3990   33.6330   27.4570 C.2    58  GLU58       0.2260
     53  O         -1.2960   34.8440   27.3420 O.2    58  GLU58      -0.2867
     54  CB        -3.7860   33.1390   27.8430 C.3    58  GLU58       0.0388
     55  CG        -3.8960   32.3870   26.5240 C.3    58  GLU58       0.1160
     56  CD        -5.2430   32.3890   25.8690 C.2    58  GLU58       0.3649
     57  OE1       -6.1320   33.2060   26.2680 O.co2  58  GLU58      -0.2457
     58  OE2       -5.4170   31.5690   24.9380 O.co2  58  GLU58      -0.2457
     59  N         -0.0480   33.8430   23.3480 N.3    60  GLY60      -0.1210
     60  CA        -0.5390   33.6540   21.9740 C.3    60  GLY60       0.1956
     61  C         -2.0290   33.5050   21.9320 C.2    60  GLY60       0.2612
     62  O         -2.5250   32.6420   21.2030 O.2    60  GLY60      -0.2717
     63  N         -2.7560   34.3520   22.6580 N.am   61  ALA61      -0.1965
     64  CA        -4.1850   34.1560   22.8020 C.3    61  ALA61       0.1728
     65  C         -5.0470   34.3090   21.5520 C.2    61  ALA61       0.2617
     66  O         -6.1660   33.7830   21.5230 O.2    61  ALA61      -0.2715
     67  CB        -4.7090   35.0760   23.8850 C.3    61  ALA61       0.0334
     68  N         -4.5760   35.0630   20.5730 N.am   62  GLY62      -0.1940
     69  CA        -5.3200   35.2190   19.2860 C.3    62  GLY62       0.2014
     70  C         -6.5980   36.0800   19.4960 C.2    62  GLY62       0.2639
     71  O         -6.5280   37.2880   19.6270 O.2    62  GLY62      -0.2714
     72  N         -7.7240   35.3950   19.5570 N.am   63  THR63      -0.1950
     73  CA        -8.9870   36.0230   19.9070 C.3    63  THR63       0.1897
     74  C         -9.1850   36.2260   21.4050 C.2    63  THR63       0.2313
     75  O        -10.0310   37.0320   21.7930 O.2    63  THR63      -0.2863
     76  CB       -10.1850   35.1720   19.4120 C.3    63  THR63       0.1794
     77  OG1      -10.1790   33.8820   20.0580 O.3    63  THR63      -0.2208
     78  CG2      -10.2130   35.0590   17.8960 C.3    63  THR63       0.0378
     79  N        -10.1300   33.6090   23.4120 N.3    65  ILE65      -0.1231
     80  CA       -11.1600   32.7140   23.8450 C.3    65  ILE65       0.1692
     81  C        -10.7950   31.9030   25.0790 C.2    65  ILE65       0.2591
     82  O        -11.5890   31.8100   26.0000 O.2    65  ILE65      -0.2718
     83  CB       -11.6310   31.7900   22.6720 C.3    65  ILE65       0.0266
     84  CG1      -12.8140   30.9380   23.0770 C.3    65  ILE65       0.0019
     85  CG2      -10.5230   30.9260   22.1260 C.3    65  ILE65       0.0020
     86  CD1      -13.3860   30.1480   21.9070 C.3    65  ILE65       0.0001
     87  N         -9.6030   31.2750   25.1320 N.am   66  VAL66      -0.1980
     88  CA        -9.2550   30.4200   26.2660 C.3    66  VAL66       0.1595
     89  C         -9.1410   31.2250   27.5390 C.2    66  VAL66       0.2287
     90  O         -9.6850   30.8470   28.5820 O.2    66  VAL66      -0.2864
     91  CB        -7.9600   29.6600   25.9680 C.3    66  VAL66       0.0276
     92  CG1       -7.5150   28.8950   27.1830 C.3    66  VAL66       0.0022
     93  CG2       -8.1090   28.7600   24.7300 C.3    66  VAL66       0.0022
     94  N         -0.5770   38.3970   23.7380 N.3    81  ASP81      -0.1225
     95  CA        -0.2560   38.0740   22.3510 C.3    81  ASP81       0.1805
     96  C          0.7320   39.1490   21.9030 C.2    81  ASP81       0.2597
     97  O          1.1720   40.0070   22.7030 O.2    81  ASP81      -0.2718
     98  CB        -1.4940   37.9740   21.4840 C.3    81  ASP81       0.1424
     99  CG        -1.3320   37.0860   20.2370 C.2    81  ASP81       0.3668
    100  OD1       -0.5750   37.4400   19.3200 O.co2  81  ASP81      -0.2456
    101  OD2       -2.0040   36.0370   20.1980 O.co2  81  ASP81      -0.2456
    102  N          1.0230   39.1580   20.6170 N.am   82  LEU82      -0.1979
    103  CA         1.7170   40.2820   20.0000 C.3    82  LEU82       0.1596
    104  C          0.7720   41.5150   19.9580 C.2    82  LEU82       0.2287
    105  O         -0.4450   41.3730   19.9410 O.2    82  LEU82      -0.2864
    106  CB         2.1390   39.9150   18.6030 C.3    82  LEU82       0.0297
    107  CG         3.1820   38.7980   18.5680 C.3    82  LEU82       0.0022
    108  CD1        3.4410   38.3580   17.1400 C.3    82  LEU82       0.0001
    109  CD2        4.4890   39.2180   19.1870 C.3    82  LEU82       0.0001
    110  N         -0.3740   43.2230   17.5920 N.3    84  LEU84      -0.1245
    111  CA        -1.3590   43.2010   16.5500 C.3    84  LEU84       0.1561
    112  C         -2.6960   42.5890   16.9480 C.2    84  LEU84       0.2260
    113  O         -3.7350   42.9010   16.3010 O.2    84  LEU84      -0.2867
    114  CB        -0.8050   42.5250   15.2710 C.3    84  LEU84       0.0270
    115  CG        -0.3100   41.0210   15.3700 C.3    84  LEU84       0.0019
    116  CD1       -1.4270   40.0250   15.1290 C.3    84  LEU84       0.0001
    117  CD2        0.8100   40.7700   14.3580 C.3    84  LEU84       0.0001
    118  N          2.8770   40.3570   25.0010 N.3   108  LEU108     -0.1231
    119  CA         4.0350   39.5320   25.4510 C.3   108  LEU108      0.1693
    120  C          4.5570   38.8000   24.2020 C.2   108  LEU108      0.2593
    121  O          4.0570   37.7390   23.8180 O.2   108  LEU108     -0.2718
    122  CB         3.6660   38.5800   26.5630 C.3   108  LEU108      0.0284
    123  CG         4.8650   38.0570   27.3560 C.3   108  LEU108      0.0019
    124  CD1        4.3600   37.3150   28.5520 C.3   108  LEU108      0.0001
    125  CD2        5.8270   37.2180   26.5430 C.3   108  LEU108      0.0001
    126  N          5.6020   39.3720   23.6110 N.am  109  SER109     -0.1938
    127  CA         6.3190   38.7360   22.4940 C.3   109  SER109      0.2055
    128  C          7.2790   37.7400   23.1360 C.2   109  SER109      0.2643
    129  O          8.1330   38.0980   23.9490 O.2   109  SER109     -0.2714
    130  CB         7.0690   39.8000   21.7170 C.3   109  SER109      0.2130
    131  OG         7.7740   39.1760   20.6710 O.3   109  SER109     -0.2179
    132  N          7.0950   36.4630   22.8150 N.am  110  TRP110     -0.1973
    133  CA         7.7970   35.4070   23.5370 C.3   110  TRP110      0.1640
    134  C          9.3140   35.6320   23.5230 C.2   110  TRP110      0.2290
    135  O          9.9200   35.8600   22.4810 O.2   110  TRP110     -0.2864
    136  CB         7.5170   34.0170   22.9080 C.3   110  TRP110      0.0576
    137  CG         6.0650   33.7100   22.8060 C.ar  110  TRP110      0.0006
    138  CD1        5.0390   34.2180   23.5810 C.ar  110  TRP110      0.0946
    139  CD2        5.4430   32.8920   21.7870 C.ar  110  TRP110      0.0152
    140  NE1        3.8400   33.7000   23.1420 N.ar  110  TRP110     -0.2442
    141  CE2        4.0610   32.9100   22.0090 C.ar  110  TRP110      0.0810
    142  CE3        5.9250   32.1650   20.6950 C.ar  110  TRP110      0.0012
    143  CZ2        3.1790   32.2500   21.1900 C.ar  110  TRP110      0.0191
    144  CZ3        5.0450   31.5270   19.8930 C.ar  110  TRP110      0.0001
    145  CH2        3.6830   31.5710   20.1290 C.ar  110  TRP110      0.0015
    146  N         -2.9040   27.6200   23.6070 N.3   127  ALA127     -0.1231
    147  CA        -3.5730   26.7710   22.6430 C.3   127  ALA127      0.1694
    148  C         -3.0970   27.1520   21.2510 C.2   127  ALA127      0.2592
    149  O         -3.0270   28.3300   20.9030 O.2   127  ALA127     -0.2718
    150  CB        -5.0910   26.9350   22.7330 C.3   127  ALA127      0.0304
    151  N         -2.7540   26.1610   20.4390 N.am  128  ASP128     -0.1960
    152  CA        -2.3140   26.4580   19.0450 C.3   128  ASP128      0.1840
    153  C         -1.1630   27.4070   18.9720 C.2   128  ASP128      0.2621
    154  O         -1.1090   28.1920   18.0220 O.2   128  ASP128     -0.2715
    155  CB        -3.5240   26.9530   18.1890 C.3   128  ASP128      0.1450
    156  CG        -4.6970   26.0110   18.2360 C.2   128  ASP128      0.3671
    157  OD1       -4.6250   24.9050   17.6560 O.co2 128  ASP128     -0.2456
    158  OD2       -5.7970   26.3940   18.8120 O.co2 128  ASP128     -0.2456
    159  N         -0.2050   27.3030   19.8760 N.am  129  ILE129     -0.1977
    160  CA         0.9410   28.1860   19.8870 C.3   129  ILE129      0.1596
    161  C          2.2520   27.4860   19.5840 C.2   129  ILE129      0.2287
    162  O          3.2960   28.1270   19.6140 O.2   129  ILE129     -0.2864
    163  CB         1.0720   29.0660   21.1380 C.3   129  ILE129      0.0276
    164  CG1        1.2430   28.2420   22.3920 C.3   129  ILE129      0.0022
    165  CG2       -0.1200   30.0440   21.2270 C.3   129  ILE129      0.0022
    166  CD1        1.7360   29.1030   23.5760 C.3   129  ILE129      0.0001
    167  N          3.9280   26.0530   16.6070 N.3   131  TYR131     -0.1227
    168  CA         3.8100   26.0090   15.1510 C.3   131  TYR131      0.1736
    169  C          4.9210   26.6990   14.4060 C.2   131  TYR131      0.2595
    170  O          4.9990   26.5620   13.1770 O.2   131  TYR131     -0.2718
    171  CB         2.4270   26.5410   14.6630 C.3   131  TYR131      0.0548
    172  CG         2.2070   28.0250   14.7400 C.ar  131  TYR131     -0.0200
    173  CD1        2.1060   28.6900   15.9490 C.ar  131  TYR131     -0.0009
    174  CD2        2.0310   28.7520   13.5730 C.ar  131  TYR131     -0.0009
    175  CE1        1.8930   30.0530   15.9940 C.ar  131  TYR131      0.0417
    176  CE2        1.8100   30.1050   13.5930 C.ar  131  TYR131      0.0417
    177  CZ         1.7670   30.7840   14.8060 C.ar  131  TYR131      0.1957
    178  OH         1.5500   32.1350   14.8910 O.3   131  TYR131     -0.2866
    179  N          5.7100   27.5040   15.1060 N.am  132  LEU132     -0.1980
    180  CA         6.8060   28.2780   14.4980 C.3   132  LEU132      0.1596
    181  C          8.1260   27.8270   15.0840 C.2   132  LEU132      0.2287
    182  O          8.5410   28.2820   16.1310 O.2   132  LEU132     -0.2864
    183  CB         6.6100   29.7600   14.7160 C.3   132  LEU132      0.0297
    184  CG         5.3600   30.4160   14.1200 C.3   132  LEU132      0.0022
    185  CD1        5.1290   31.8190   14.6560 C.3   132  LEU132      0.0001
    186  CD2        5.3550   30.3610   12.6160 C.3   132  LEU132      0.0001
    187  N         10.7720   29.9850   16.8010 N.3   135  THR135     -0.1218
    188  CA        10.3620   30.5740   18.0650 C.3   135  THR135      0.1862
    189  C         10.4930   29.6580   19.2430 C.2   135  THR135      0.2287
    190  O         10.3360   30.1140   20.3670 O.2   135  THR135     -0.2866
    191  CB         8.7630   31.0000   18.0430 C.3   135  THR135      0.1770
    192  OG1        7.8690   29.7690   18.1980 O.3   135  THR135     -0.2211
    193  CG2        8.4590   31.9090   17.0060 C.3   135  THR135      0.0375
    194  N         12.4200   30.6470   22.3890 N.3   138  LEU138     -0.1245
    195  CA        11.7980   31.8320   22.9680 C.3   138  LEU138      0.1561
    196  C         10.5710   31.4220   23.7910 C.2   138  LEU138      0.2260
    197  O         10.3740   31.9160   24.9180 O.2   138  LEU138     -0.2867
    198  CB        11.4250   32.8390   21.8920 C.3   138  LEU138      0.0270
    199  CG        12.5810   33.4250   21.0850 C.3   138  LEU138      0.0019
    200  CD1       12.0460   34.2570   19.9730 C.3   138  LEU138      0.0001
    201  CD2       13.5310   34.2330   21.9330 C.3   138  LEU138      0.0001
@<TRIPOS>BOND
     1    22    21    1
     2    21    23    1
     3    21    20    2
     4    20    19    1
     5    44    43   ar
     6    44    42   ar
     7     6     5    1
     8     1     2    1
     9    43    41   ar
    10    19    18    1
    11    42    40   ar
    12     2     5    1
    13     2     3    1
    14     5     7    1
    15    18    17    1
    16    41    38   ar
    17   186   184    1
    18    17    14    1
    19    40    38   ar
    20    40    39   ar
    21   170   169    2
    22     3     8   am
    23     3     4    2
    24    38    36   ar
    25   174   176   ar
    26   174   172   ar
    27   176   177   ar
    28     8     9    1
    29    14    13    1
    30    14    15    1
    31    39    37   ar
    32   184   185    1
    33   184   183    1
    34   117   115    1
    35   169   179   am
    36   169   168    1
    37   180   183    1
    38   180   181    1
    39   180   179    1
    40   171   172    1
    41   171   168    1
    42   172   173   ar
    43   177   178    1
    44   177   175   ar
    45    36    37   ar
    46    36    35    1
    47   181   182    2
    48    10     9    1
    49    10    11    2
    50     9    12    1
    51   116   115    1
    52    27    26    2
    53   168   167    1
    54    15    24   am
    55    15    16    2
    56   114   115    1
    57   114   111    1
    58    24    25    1
    59    35    32    1
    60    32    31    1
    61    32    33    1
    62   173   175   ar
    63    26    31   am
    64    26    25    1
    65   113   112    2
    66   111   112    1
    67   111   110    1
    68    25    28    1
    69   187   188    1
    70    33    34    2
    71   193   191    1
    72   108   107    1
    73    28    30    1
    74    28    29    1
    75   157   156   ar
    76    78    76    1
    77   154   153    2
    78   191   188    1
    79   191   192    1
    80   188   189    1
    81   155   156    1
    82   155   152    1
    83   156   158   ar
    84   107   106    1
    85   107   109    1
    86   106   103    1
    87   153   152    1
    88   153   159   am
    89   152   151    1
    90   189   190    2
    91    69    70    1
    92    69    68    1
    93   100    99   ar
    94    76    73    1
    95    76    77    1
    96    70    72   am
    97    70    71    2
    98    72    73    1
    99   161   162    2
   100   161   160    1
   101   159   160    1
   102   160   163    1
   103   144   145   ar
   104   144   142   ar
   105    73    74    1
   106   105   104    2
   107   104   103    1
   108   200   199    1
   109   103   102    1
   110   145   143   ar
   111   101    99   ar
   112    99    98    1
   113   151   148   am
   114    68    65   am
   115   102    96   am
   116    45    46    1
   117   131   130    1
   118   142   139   ar
   119   149   148    2
   120    49    46    1
   121   199   198    1
   122   199   201    1
   123   163   165    1
   124   163   164    1
   125   143   141   ar
   126    62    61    2
   127   148   147    1
   128    74    75    2
   129    98    95    1
   130    66    65    2
   131    65    64    1
   132    46    47    1
   133   130   127    1
   134   139   141   ar
   135   139   137   ar
   136   198   195    1
   137    96    95    1
   138    96    97    2
   139    86    84    1
   140    61    60    1
   141    61    63   am
   142    60    59    1
   143   141   140   ar
   144    47    48    2
   145    85    83    1
   146    95    94    1
   147   194   195    1
   148   164   166    1
   149   135   134    2
   150   127   128    1
   151   127   126    1
   152   147   150    1
   153   147   146    1
   154    63    64    1
   155    83    84    1
   156    83    80    1
   157    64    67    1
   158   137   136    1
   159   137   138   ar
   160   132   128   am
   161   132   133    1
   162   136   133    1
   163   195   196    1
   164   128   129    2
   165   140   138   ar
   166    79    80    1
   167   134   133    1
   168   126   120   am
   169   196   197    2
   170   121   120    2
   171    80    81    1
   172   120   119    1
   173    93    91    1
   174    58    56   ar
   175   118   119    1
   176    81    87   am
   177    81    82    2
   178    87    88    1
   179   119   122    1
   180    56    57   ar
   181    56    55    1
   182    91    88    1
   183    91    92    1
   184    88    89    1
   185    55    54    1
   186   125   123    1
   187   122   123    1
   188    53    52    2
   189   123   124    1
   190    52    51    1
   191    89    90    2
   192    54    51    1
   193    51    50    1
