@<TRIPOS>MOLECULE
tmp/4qppB01.pdb
 134 128 0 0 0
SMALL
GASTEIGER

@<TRIPOS>ATOM
      1  N        -31.0690   24.1120   13.6870 N.3    95  GLU95      -0.1245
      2  CA       -32.2600   24.8380   13.2780 C.3    95  GLU95       0.1567
      3  C        -33.2410   25.0380   14.4420 C.2    95  GLU95       0.2260
      4  O        -33.9460   26.0410   14.4830 O.2    95  GLU95      -0.2867
      5  CB       -32.9440   24.1290   12.0990 C.3    95  GLU95       0.0388
      6  CG       -32.1890   24.2320   10.7660 C.3    95  GLU95       0.1160
      7  CD       -31.2250   23.0760   10.4870 C.2    95  GLU95       0.3649
      8  OE1      -30.9150   22.2850   11.4050 O.co2  95  GLU95      -0.2457
      9  OE2      -30.7700   22.9600    9.3270 O.co2  95  GLU95      -0.2457
     10  N        -21.2320   19.8900   -2.3380 N.3   116  LEU116     -0.1245
     11  CA       -22.6480   20.0720   -2.0090 C.3   116  LEU116      0.1561
     12  C        -23.5000   18.7980   -1.9300 C.2   116  LEU116      0.2260
     13  O        -24.7140   18.8960   -1.7970 O.2   116  LEU116     -0.2867
     14  CB       -23.2880   21.0330   -3.0150 C.3   116  LEU116      0.0270
     15  CG       -22.6410   22.4110   -3.1280 C.3   116  LEU116      0.0019
     16  CD1      -23.2190   23.1880   -4.2980 C.3   116  LEU116      0.0001
     17  CD2      -22.8150   23.1840   -1.8340 C.3   116  LEU116      0.0001
     18  N        -24.5690   22.9420    4.4490 N.3   121  LEU121     -0.1231
     19  CA       -24.5120   24.3560    4.0860 C.3   121  LEU121      0.1693
     20  C        -25.7500   25.1580    4.4950 C.2   121  LEU121      0.2592
     21  O        -25.6270   26.2990    4.9430 O.2   121  LEU121     -0.2718
     22  CB       -24.2840   24.5310    2.5890 C.3   121  LEU121      0.0284
     23  CG       -24.0810   25.9820    2.1490 C.3   121  LEU121      0.0019
     24  CD1      -22.9660   26.6500    2.9470 C.3   121  LEU121      0.0001
     25  CD2      -23.7760   26.0350    0.6650 C.3   121  LEU121      0.0001
     26  N        -26.9350   24.5770    4.3320 N.am  122  SER122     -0.1952
     27  CA       -28.1700   25.2940    4.6460 C.3   122  SER122      0.1924
     28  C        -28.3370   25.4840    6.1520 C.2   122  SER122      0.2314
     29  O        -28.7990   26.5330    6.6010 O.2   122  SER122     -0.2863
     30  CB       -29.3820   24.5790    4.0560 C.3   122  SER122      0.2116
     31  OG       -29.3590   24.7000    2.6440 O.3   122  SER122     -0.2180
     32  N        -28.6250   29.1020    7.6600 N.3   126  HIS126     -0.1241
     33  CA       -29.7440   29.3040    8.5650 C.3   126  HIS126      0.1621
     34  C        -29.2520   29.8500    9.8990 C.2   126  HIS126      0.2264
     35  O        -29.7840   30.8360   10.4070 O.2   126  HIS126     -0.2867
     36  CB       -30.4900   27.9860    8.7930 C.3   126  HIS126      0.0745
     37  CG       -31.6250   28.0940    9.7640 C.ar  126  HIS126      0.0817
     38  ND1      -31.4440   28.0500   11.1310 N.ar  126  HIS126     -0.2268
     39  CD2      -32.9550   28.2530    9.5650 C.ar  126  HIS126      0.1154
     40  CE1      -32.6140   28.1730   11.7320 C.ar  126  HIS126      0.1986
     41  NE2      -33.5470   28.2960   10.8040 N.ar  126  HIS126     -0.2212
     42  N        -28.5330   31.2300   -0.1680 N.3   218  GLU218     -0.1245
     43  CA       -29.4580   30.0980   -0.0940 C.3   218  GLU218      0.1567
     44  C        -30.3800   29.9920   -1.3230 C.2   218  GLU218      0.2260
     45  O        -30.6160   28.8900   -1.8190 O.2   218  GLU218     -0.2867
     46  CB       -30.2790   30.1920    1.2040 C.3   218  GLU218      0.0388
     47  CG       -31.4490   29.2160    1.3390 C.3   218  GLU218      0.1160
     48  CD       -31.0330   27.7550    1.3190 C.2   218  GLU218      0.3649
     49  OE1      -31.7520   26.9430    0.7040 O.co2 218  GLU218     -0.2457
     50  OE2      -29.9960   27.4150    1.9200 O.co2 218  GLU218     -0.2457
     51  N        -28.3810   29.2630   -4.6720 N.3   221  LEU221     -0.1231
     52  CA       -27.9420   27.8720   -4.7020 C.3   221  LEU221      0.1693
     53  C        -29.0150   26.9630   -5.2730 C.2   221  LEU221      0.2591
     54  O        -28.7210   26.1020   -6.0970 O.2   221  LEU221     -0.2718
     55  CB       -27.5630   27.3900   -3.3010 C.3   221  LEU221      0.0284
     56  CG       -26.3640   28.0580   -2.6310 C.3   221  LEU221      0.0019
     57  CD1      -26.1720   27.4760   -1.2410 C.3   221  LEU221      0.0001
     58  CD2      -25.0990   27.8980   -3.4530 C.3   221  LEU221      0.0001
     59  N        -30.2550   27.1610   -4.8350 N.am  222  GLU222     -0.1979
     60  CA       -31.3850   26.3590   -5.3170 C.3   222  GLU222      0.1602
     61  C        -31.5640   26.4360   -6.8440 C.2   222  GLU222      0.2287
     62  O        -31.9960   25.4650   -7.4670 O.2   222  GLU222     -0.2864
     63  CB       -32.6780   26.7670   -4.6010 C.3   222  GLU222      0.0415
     64  CG       -32.7280   26.3440   -3.1380 C.3   222  GLU222      0.1163
     65  CD       -33.9870   26.8020   -2.4140 C.2   222  GLU222      0.3649
     66  OE1      -34.0100   26.7170   -1.1690 O.co2 222  GLU222     -0.2457
     67  OE2      -34.9550   27.2420   -3.0750 O.co2 222  GLU222     -0.2457
     68  N        -25.5460   25.9750   -8.8980 N.3   225  VAL225     -0.1245
     69  CA       -24.2170   26.5720   -8.8000 C.3   225  VAL225      0.1561
     70  C        -23.3880   26.0950   -9.9830 C.2   225  VAL225      0.2260
     71  O        -23.2110   24.8970  -10.1730 O.2   225  VAL225     -0.2867
     72  CB       -23.4960   26.1430   -7.5040 C.3   225  VAL225      0.0252
     73  CG1      -22.2840   27.0230   -7.2510 C.3   225  VAL225      0.0019
     74  CG2      -24.4400   26.1990   -6.3180 C.3   225  VAL225      0.0019
     75  N        -24.1430   22.4770  -10.8100 N.3   297  LEU297     -0.1231
     76  CA       -24.4580   21.6130   -9.6780 C.3   297  LEU297      0.1693
     77  C        -25.8660   21.9570   -9.2280 C.2   297  LEU297      0.2592
     78  O        -26.2100   23.1320   -9.1290 O.2   297  LEU297     -0.2718
     79  CB       -23.4690   21.8250   -8.5370 C.3   297  LEU297      0.0284
     80  CG       -22.1290   21.1080   -8.6910 C.3   297  LEU297      0.0019
     81  CD1      -21.4000   21.5310   -9.9560 C.3   297  LEU297      0.0001
     82  CD2      -21.2640   21.3590   -7.4630 C.3   297  LEU297      0.0001
     83  N        -26.6660   20.9220   -8.9740 N.am  298  LEU298     -0.1966
     84  CA       -28.0950   21.0510   -8.7090 C.3   298  LEU298      0.1713
     85  C        -28.5550   20.0490   -7.6580 C.2   298  LEU298      0.2458
     86  O        -27.9220   19.0070   -7.4780 O.2   298  LEU298     -0.2730
     87  CB       -28.8850   20.7480   -9.9780 C.3   298  LEU298      0.0310
     88  CG       -28.9550   21.7820  -11.0990 C.3   298  LEU298      0.0022
     89  CD1      -29.3360   21.0990  -12.3990 C.3   298  LEU298      0.0001
     90  CD2      -29.9580   22.8720  -10.7650 C.3   298  LEU298      0.0001
     91  N        -29.6800   20.3480   -6.9790 N.am  299  PRO299     -0.2727
     92  CA       -30.4000   19.3450   -6.1900 C.3   299  PRO299      0.1402
     93  C        -31.1200   18.3570   -7.0960 C.2   299  PRO299      0.2269
     94  O        -31.7260   18.7730   -8.0790 O.2   299  PRO299     -0.2865
     95  CB       -31.4340   20.1690   -5.4180 C.3   299  PRO299      0.0296
     96  CG       -31.0500   21.5920   -5.5950 C.3   299  PRO299      0.0237
     97  CD       -30.3150   21.6710   -6.8830 C.3   299  PRO299      0.0939
     98  N        -33.3970   16.2810   -2.7630 N.3   304  PRO304     -0.2102
     99  CA       -32.6550   17.4990   -3.1020 C.3   304  PRO304      0.1504
    100  C        -31.3050   17.6460   -2.3680 C.2   304  PRO304      0.2576
    101  O        -30.4790   18.4620   -2.7740 O.2   304  PRO304     -0.2718
    102  CB       -33.6370   18.6200   -2.7480 C.3   304  PRO304      0.0282
    103  CG       -34.5210   18.0400   -1.7000 C.3   304  PRO304      0.0208
    104  CD       -34.6060   16.5650   -1.9680 C.3   304  PRO304      0.0893
    105  N        -31.0820   16.8620   -1.3120 N.am  305  ARG305     -0.1966
    106  CA       -29.7730   16.7940   -0.6440 C.3   305  ARG305      0.1729
    107  C        -28.7570   15.9160   -1.3970 C.2   305  ARG305      0.2616
    108  O        -27.5640   15.9290   -1.0910 O.2   305  ARG305     -0.2715
    109  CB       -29.9380   16.2830    0.7900 C.3   305  ARG305      0.0348
    110  CG       -30.7070   17.2380    1.6960 C.3   305  ARG305      0.0492
    111  CD       -30.9340   16.6710    3.0930 C.3   305  ARG305      0.2205
    112  NE       -29.8060   15.8630    3.5670 N.pl3 305  ARG305     -0.0865
    113  CZ       -28.6100   16.3350    3.9430 C.cat 305  ARG305      0.5346
    114  NH1      -28.3280   17.6390    3.9070 N.pl3 305  ARG305      0.1354
    115  NH2      -27.6730   15.4810    4.3470 N.pl3 305  ARG305      0.1354
    116  N        -29.2450   15.1500   -2.3680 N.am  306  ARG306     -0.1963
    117  CA       -28.4120   14.3710   -3.2760 C.3   306  ARG306      0.1729
    118  C        -27.9570   15.2580   -4.4400 C.2   306  ARG306      0.2616
    119  O        -28.7290   16.0670   -4.9520 O.2   306  ARG306     -0.2715
    120  CB       -29.2250   13.1770   -3.7800 C.3   306  ARG306      0.0348
    121  CG       -28.5560   12.2810   -4.8090 C.3   306  ARG306      0.0492
    122  CD       -29.2450   10.9210   -4.8220 C.3   306  ARG306      0.2205
    123  NE       -29.0420   10.1850   -6.0700 N.pl3 306  ARG306     -0.0865
    124  CZ       -29.8810   10.1720   -7.1090 C.cat 306  ARG306      0.5346
    125  NH1      -31.0140   10.8730   -7.0930 N.pl3 306  ARG306      0.1354
    126  NH2      -29.5790    9.4480   -8.1820 N.pl3 306  ARG306      0.1354
    127  N        -26.7120   15.0870   -4.8670 N.am  307  LEU307     -0.1977
    128  CA       -26.0940   15.9760   -5.8420 C.3   307  LEU307      0.1596
    129  C        -26.3290   15.4920   -7.2710 C.2   307  LEU307      0.2287
    130  O        -26.1750   14.3100   -7.5740 O.2   307  LEU307     -0.2864
    131  CB       -24.5920   16.1060   -5.5880 C.3   307  LEU307      0.0297
    132  CG       -23.8220   16.9980   -6.5670 C.3   307  LEU307      0.0022
    133  CD1      -24.3010   18.4360   -6.4950 C.3   307  LEU307      0.0001
    134  CD2      -22.3360   16.9370   -6.2870 C.3   307  LEU307      0.0001
@<TRIPOS>BOND
     1    89    88    1
     2    88    90    1
     3    88    87    1
     4    75    76    1
     5    71    70    2
     6    70    69    1
     7    87    84    1
     8    81    80    1
     9    76    77    1
    10    76    79    1
    11    77    78    2
    12    77    83   am
    13    83    84    1
    14    68    69    1
    15    69    72    1
    16    84    85    1
    17    80    79    1
    18    80    82    1
    19   126   124    1
    20    94    93    2
    21    85    86    2
    22    85    91   am
    23   130   129    2
    24    72    73    1
    25    72    74    1
    26    62    61    2
    27   129   128    1
    28   124   125    1
    29   124   123    2
    30    93    92    1
    31    91    97    1
    32    91    92    1
    33    97    96    1
    34    61    60    1
    35   132   133    1
    36   132   134    1
    37   132   131    1
    38    92    95    1
    39    54    53    2
    40   123   122    1
    41   128   131    1
    42   128   127    1
    43    96    95    1
    44    60    59    1
    45    60    63    1
    46    53    59   am
    47    53    52    1
    48   119   118    2
    49   127   118   am
    50   122   121    1
    51   121   120    1
    52    52    51    1
    53    52    55    1
    54    63    64    1
    55   118   117    1
    56    16    15    1
    57   120   117    1
    58    58    56    1
    59    55    56    1
    60   117   116    1
    61    64    65    1
    62    15    14    1
    63    15    17    1
    64    99    98    1
    65    99   102    1
    66    99   100    1
    67    67    65   ar
    68    14    11    1
    69   101   100    2
    70    98   104    1
    71   102   103    1
    72    56    57    1
    73    65    66   ar
    74   100   105   am
    75   116   107   am
    76    10    11    1
    77    11    12    1
    78   104   103    1
    79    12    13    2
    80    45    44    2
    81   107   108    2
    82   107   106    1
    83    44    43    1
    84   105   106    1
    85   106   109    1
    86    42    43    1
    87    43    46    1
    88    25    23    1
    89    49    48   ar
    90   109   110    1
    91    46    47    1
    92    48    47    1
    93    48    50   ar
    94   110   111    1
    95    23    22    1
    96    23    24    1
    97    22    19    1
    98    31    30    1
    99   111   112    1
   100   112   113    2
   101   114   113    1
   102   113   115    1
   103    30    27    1
   104    19    18    1
   105    19    20    1
   106    26    20   am
   107    26    27    1
   108    20    21    2
   109    27    28    1
   110    28    29    2
   111    32    33    1
   112    33    36    1
   113    33    34    1
   114    36    37    1
   115     9     7   ar
   116    39    37   ar
   117    39    41   ar
   118    37    38   ar
   119    34    35    2
   120     7     6    1
   121     7     8   ar
   122     6     5    1
   123    41    40   ar
   124    38    40   ar
   125     5     2    1
   126     2     1    1
   127     2     3    1
   128     3     4    2
