@<TRIPOS>MOLECULE
tmp/4qpsA00.pdb
 163 151 0 0 0
SMALL
GASTEIGER

@<TRIPOS>ATOM
      1  N        -10.8920   -5.0080   14.5970 N.3    15  LEU15      -0.1231
      2  CA       -12.1520   -5.1530   15.3400 C.3    15  LEU15       0.1693
      3  C        -12.7030   -6.5530   15.3170 C.2    15  LEU15       0.2592
      4  O        -13.2890   -7.0000   16.2930 O.2    15  LEU15      -0.2718
      5  CB       -13.2140   -4.1380   14.8710 C.3    15  LEU15       0.0284
      6  CG       -12.9490   -2.6560   15.1640 C.3    15  LEU15       0.0019
      7  CD1      -13.8540   -1.7800   14.3580 C.3    15  LEU15       0.0001
      8  CD2      -13.1200   -2.3060   16.6530 C.3    15  LEU15       0.0001
      9  N        -12.5350   -7.2380   14.2070 N.am   16  GLY16      -0.1957
     10  CA       -13.0190   -8.6030   14.0640 C.3    16  GLY16       0.1869
     11  C        -12.4410   -9.2890   12.8530 C.2    16  GLY16       0.2309
     12  O        -11.8730   -8.6360   11.9770 O.2    16  GLY16      -0.2863
     13  N        -12.4340   -6.7210    9.8960 N.3    22  VAL22      -0.1245
     14  CA       -12.8970   -5.3420   10.0560 C.3    22  VAL22       0.1561
     15  C        -11.8210   -4.6560   10.9040 C.2    22  VAL22       0.2260
     16  O        -11.4630   -5.1800   11.9600 O.2    22  VAL22      -0.2867
     17  CB       -14.2980   -5.2440   10.7100 C.3    22  VAL22       0.0252
     18  CG1      -14.6810   -3.7920   10.9620 C.3    22  VAL22       0.0019
     19  CG2      -15.3600   -5.9390    9.8480 C.3    22  VAL22       0.0019
     20  N        -14.6720    2.1410   10.3120 N.3    39  ALA39      -0.1245
     21  CA       -14.4580    0.6870   10.3150 C.3    39  ALA39       0.1562
     22  C        -14.2650    0.2840    8.8680 C.2    39  ALA39       0.2260
     23  O        -15.0760    0.6450    8.0120 O.2    39  ALA39      -0.2867
     24  CB       -15.6720   -0.0240   10.9040 C.3    39  ALA39       0.0290
     25  N        -13.7090   -2.8160    6.1650 N.3    41  LYS41      -0.1245
     26  CA       -13.8090   -4.2660    5.9280 C.3    41  LYS41       0.1561
     27  C        -13.0040   -4.5860    4.7050 C.2    41  LYS41       0.2260
     28  O        -13.1040   -3.8630    3.7040 O.2    41  LYS41      -0.2867
     29  CB       -15.2730   -4.7390    5.7160 C.3    41  LYS41       0.0271
     30  CG       -15.3900   -6.2710    5.5160 C.3    41  LYS41       0.0035
     31  CD       -16.8150   -6.7320    5.1650 C.3    41  LYS41       0.0206
     32  CE       -16.8480   -8.1620    4.6670 C.3    41  LYS41       0.1093
     33  NZ       -18.2480   -8.6600    4.4860 N.3    41  LYS41      -0.1314
     34  N        -22.2690   -7.1550   -2.1800 N.3    52  GLU52      -0.1245
     35  CA       -22.4210   -6.4980   -0.8750 C.3    52  GLU52       0.1567
     36  C        -22.4340   -4.9730   -0.9410 C.2    52  GLU52       0.2260
     37  O        -23.2600   -4.3310   -0.2770 O.2    52  GLU52      -0.2867
     38  CB       -21.3490   -6.9980    0.0830 C.3    52  GLU52       0.0388
     39  CG       -21.6100   -6.6250    1.5290 C.3    52  GLU52       0.1160
     40  CD       -20.5080   -6.9810    2.5010 C.2    52  GLU52       0.3649
     41  OE1      -19.5790   -7.7330    2.1260 O.co2  52  GLU52      -0.2457
     42  OE2      -20.6110   -6.5520    3.6700 O.co2  52  GLU52      -0.2457
     43  N        -26.0710   -0.1240    9.8140 N.3    65  VAL65      -0.1245
     44  CA       -24.7310    0.4630    9.7900 C.3    65  VAL65       0.1561
     45  C        -24.5540    1.3010    8.5080 C.2    65  VAL65       0.2260
     46  O        -24.9030    0.8550    7.4120 O.2    65  VAL65      -0.2867
     47  CB       -23.6080   -0.5790   10.0230 C.3    65  VAL65       0.0252
     48  CG1      -23.5810   -1.6290    8.9220 C.3    65  VAL65       0.0019
     49  CG2      -22.2400    0.0930   10.1860 C.3    65  VAL65       0.0019
     50  N        -14.1400   -1.8660    1.9350 N.3    76  LEU76      -0.1245
     51  CA       -15.3910   -1.1950    2.2260 C.3    76  LEU76       0.1561
     52  C        -15.2240   -0.3660    3.5010 C.2    76  LEU76       0.2260
     53  O        -14.7390   -0.8850    4.5000 O.2    76  LEU76      -0.2867
     54  CB       -16.4690   -2.2820    2.3640 C.3    76  LEU76       0.0270
     55  CG       -17.7850   -1.9160    2.9890 C.3    76  LEU76       0.0019
     56  CD1      -18.6730   -1.1950    2.0070 C.3    76  LEU76       0.0001
     57  CD2      -18.4680   -3.1560    3.4970 C.3    76  LEU76       0.0001
     58  N        -16.9730    1.8320    6.4290 N.3    78  MET78      -0.1230
     59  CA       -18.2530    1.9780    7.1240 C.3    78  MET78       0.1702
     60  C        -18.0970    2.8540    8.3460 C.2    78  MET78       0.2592
     61  O        -16.9890    2.9840    8.8670 O.2    78  MET78      -0.2718
     62  CB       -18.7040    0.5800    7.6110 C.3    78  MET78       0.0401
     63  CG       -18.6460   -0.4980    6.5490 C.3    78  MET78       0.0596
     64  SD       -19.9100   -0.1930    5.3050 S.3    78  MET78      -0.1393
     65  CE       -21.3470   -0.6630    6.1940 C.3    78  MET78       0.0692
     66  N        -19.2120    3.3500    8.8870 N.am   79  GLU79      -0.1966
     67  CA       -19.1080    4.0970   10.1260 C.3    79  GLU79       0.1733
     68  C        -18.6540    3.1330   11.2270 C.2    79  GLU79       0.2616
     69  O        -18.7920    1.8910   11.1090 O.2    79  GLU79      -0.2715
     70  CB       -20.4280    4.7720   10.5020 C.3    79  GLU79       0.0429
     71  CG       -21.5080    3.7910   10.8970 C.3    79  GLU79       0.1163
     72  CD       -22.7870    4.3730   11.4550 C.2    79  GLU79       0.3649
     73  OE1      -22.7380    5.4370   12.1090 O.co2  79  GLU79      -0.2457
     74  OE2      -23.8460    3.7420   11.2510 O.co2  79  GLU79      -0.2457
     75  N        -18.0580    3.7030   12.2560 N.am   80  TYR80      -0.1960
     76  CA       -17.5860    2.9090   13.3840 C.3    80  TYR80       0.1771
     77  C        -18.5440    3.1230   14.5500 C.2    80  TYR80       0.2619
     78  O        -18.8580    4.2680   14.8920 O.2    80  TYR80      -0.2715
     79  CB       -16.1500    3.3210   13.7100 C.3    80  TYR80       0.0574
     80  CG       -15.6610    2.8040   15.0410 C.ar   80  TYR80      -0.0198
     81  CD1      -15.5690    1.4350   15.2910 C.ar   80  TYR80      -0.0009
     82  CD2      -15.3280    3.6830   16.0680 C.ar   80  TYR80      -0.0009
     83  CE1      -15.0970    0.9510   16.5180 C.ar   80  TYR80       0.0417
     84  CE2      -14.8940    3.2120   17.3080 C.ar   80  TYR80       0.0417
     85  CZ       -14.7750    1.8460   17.5260 C.ar   80  TYR80       0.1957
     86  OH       -14.3470    1.3840   18.7480 O.3    80  TYR80      -0.2866
     87  N        -19.0390    2.0130   15.1440 N.am   81  LEU81      -0.1977
     88  CA       -19.9990    2.0470   16.2660 C.3    81  LEU81       0.1596
     89  C        -19.2120    1.7590   17.5400 C.2    81  LEU81       0.2287
     90  O        -18.7270    0.6490   17.7100 O.2    81  LEU81      -0.2864
     91  CB       -21.1090    1.0260   16.0110 C.3    81  LEU81       0.0297
     92  CG       -22.2700    1.6000   15.1940 C.3    81  LEU81       0.0022
     93  CD1      -21.8640    1.8950   13.8080 C.3    81  LEU81       0.0001
     94  CD2      -23.3930    0.6730   15.1450 C.3    81  LEU81       0.0001
     95  N        -19.2470   -1.4840   20.0010 N.3    84  GLY84      -0.1210
     96  CA       -18.9300   -2.7780   19.4030 C.3    84  GLY84       0.1956
     97  C        -20.0660   -3.7770   19.2740 C.2    84  GLY84       0.2612
     98  O        -21.1980   -3.3690   19.1020 O.2    84  GLY84      -0.2717
     99  N        -19.7380   -5.0950   19.2740 N.am   85  CYS85      -0.1970
    100  CA       -20.7120   -6.1780   19.0440 C.3    85  CYS85       0.1712
    101  C        -21.6620   -6.2770   20.2260 C.2    85  CYS85       0.2296
    102  O        -21.2100   -6.2470   21.3520 O.2    85  CYS85      -0.2864
    103  CB       -19.9210   -7.4930   18.9570 C.3    85  CYS85       0.0983
    104  SG       -19.0600   -7.4550   17.3600 S.3    85  CYS85      -0.0798
    105  N        -23.2240   -8.9000   21.2740 N.3    87  ARG87      -0.1231
    106  CA       -22.8130  -10.0810   22.0280 C.3    87  ARG87       0.1694
    107  C        -21.7720   -9.7420   23.1030 C.2    87  ARG87       0.2592
    108  O        -21.9140  -10.2080   24.2360 O.2    87  ARG87      -0.2718
    109  CB       -22.3640  -11.2110   21.0660 C.3    87  ARG87       0.0321
    110  CG       -21.9510  -12.4990   21.7450 C.3    87  ARG87       0.0489
    111  CD       -21.3960  -13.5100   20.7570 C.3    87  ARG87       0.2205
    112  NE       -20.1290  -13.0770   20.1580 N.pl3  87  ARG87      -0.0865
    113  CZ       -19.5260  -13.6940   19.1480 C.cat  87  ARG87       0.5346
    114  NH1      -20.0650  -14.7810   18.6060 N.pl3  87  ARG87       0.1354
    115  NH2      -18.3800  -13.2280   18.6690 N.pl3  87  ARG87       0.1354
    116  N        -20.7640   -8.8780   22.7920 N.am   88  ASP88      -0.1974
    117  CA       -19.7490   -8.5120   23.7820 C.3    88  ASP88       0.1709
    118  C        -20.3100   -7.5310   24.7840 C.2    88  ASP88       0.2293
    119  O        -20.0250   -7.6320   25.9770 O.2    88  ASP88      -0.2864
    120  CB       -18.5170   -7.8270   23.1390 C.3    88  ASP88       0.1436
    121  CG       -17.6680   -8.6560   22.1960 C.2    88  ASP88       0.3671
    122  OD1      -17.6070   -9.8850   22.3750 O.co2  88  ASP88      -0.2456
    123  OD2      -17.0140   -8.0650   21.3250 O.co2  88  ASP88      -0.2456
    124  N        -24.2270  -11.4820   17.2540 N.3   129  ARG129     -0.1231
    125  CA       -22.8170  -11.2320   16.9210 C.3   129  ARG129      0.1694
    126  C        -22.6660  -10.1820   15.7970 C.2   129  ARG129      0.2592
    127  O        -21.5580   -9.7000   15.6090 O.2   129  ARG129     -0.2718
    128  CB       -22.1030  -12.5480   16.5190 C.3   129  ARG129      0.0321
    129  CG       -22.6390  -13.1500   15.2180 C.3   129  ARG129      0.0489
    130  CD       -22.0610  -14.5030   14.8140 C.3   129  ARG129      0.2205
    131  NE       -22.7540  -14.9810   13.6080 N.pl3 129  ARG129     -0.0865
    132  CZ       -23.7940  -15.8160   13.5980 C.cat 129  ARG129      0.5346
    133  NH1      -24.2370  -16.3480   14.7260 N.pl3 129  ARG129      0.1354
    134  NH2      -24.3900  -16.1320   12.4540 N.pl3 129  ARG129      0.1354
    135  N        -23.7500   -9.9050   14.9960 N.am  130  ASN130     -0.1974
    136  CA       -23.6830   -8.8910   13.9470 C.3   130  ASN130      0.1688
    137  C        -24.5810   -7.6810   14.1860 C.2   130  ASN130      0.2292
    138  O        -24.8180   -6.8780   13.2890 O.2   130  ASN130     -0.2864
    139  CB       -23.7620   -9.4560   12.5350 C.3   130  ASN130      0.1181
    140  CG       -24.9080  -10.3610   12.3180 C.2   130  ASN130      0.2629
    141  OD1      -26.0420  -10.0100   12.6070 O.2   130  ASN130     -0.2716
    142  ND2      -24.6050  -11.5880   11.9000 N.am  130  ASN130     -0.0877
    143  N        -24.5780   -4.2560   16.2670 N.3   132  LEU132     -0.1245
    144  CA       -23.5220   -3.4250   16.8320 C.3   132  LEU132      0.1561
    145  C        -24.1440   -2.3730   17.6860 C.2   132  LEU132      0.2260
    146  O        -25.3070   -2.0380   17.4810 O.2   132  LEU132     -0.2867
    147  CB       -22.6980   -2.7880   15.7060 C.3   132  LEU132      0.0270
    148  CG       -21.9610   -3.6900   14.7420 C.3   132  LEU132      0.0019
    149  CD1      -21.3040   -2.8510   13.6740 C.3   132  LEU132      0.0001
    150  CD2      -20.9090   -4.5890   15.4530 C.3   132  LEU132      0.0001
    151  N        -25.5450   -4.9220   11.2010 N.3   142  ALA142     -0.1231
    152  CA       -24.3350   -4.9370   10.3950 C.3   142  ALA142      0.1694
    153  C        -24.2470   -6.2950    9.6970 C.2   142  ALA142      0.2592
    154  O        -25.1410   -7.1500    9.8140 O.2   142  ALA142     -0.2718
    155  CB       -23.1290   -4.7500   11.3160 C.3   142  ALA142      0.0304
    156  N        -23.1390   -6.5050    9.0140 N.am  143  ASP143     -0.1974
    157  CA       -22.7950   -7.7490    8.3340 C.3   143  ASP143      0.1709
    158  C        -23.7540   -8.0500    7.2070 C.2   143  ASP143      0.2293
    159  O        -24.7280   -8.7820    7.3780 O.2   143  ASP143     -0.2864
    160  CB       -22.6100   -8.9370    9.2920 C.3   143  ASP143      0.1436
    161  CG       -21.9180  -10.1630    8.6940 C.2   143  ASP143      0.3671
    162  OD1      -21.5130  -10.1050    7.4970 O.co2 143  ASP143     -0.2456
    163  OD2      -21.8290  -11.1990    9.3980 O.co2 143  ASP143     -0.2456
@<TRIPOS>BOND
     1    34    35    1
     2    36    35    1
     3    36    37    2
     4    35    38    1
     5    38    39    1
     6    39    40    1
     7    50    51    1
     8    56    55    1
     9    41    40   ar
    10    51    54    1
    11    51    52    1
    12    54    55    1
    13    40    42   ar
    14    55    57    1
    15    52    53    2
    16    28    27    2
    17    33    32    1
    18    32    31    1
    19    27    26    1
    20    31    30    1
    21    64    65    1
    22    64    63    1
    23    30    29    1
    24    29    26    1
    25    26    25    1
    26    58    59    1
    27    63    62    1
    28    59    62    1
    29    59    60    1
    30   158   159    2
    31   158   157    1
    32    46    45    2
    33   162   161   ar
    34    23    22    2
    35   157   156    1
    36   157   160    1
    37    60    61    2
    38    60    66   am
    39    45    44    1
    40   161   160    1
    41   161   163   ar
    42    22    21    1
    43    66    67    1
    44    48    47    1
    45   156   153   am
    46   153   154    2
    47   153   152    1
    48    44    43    1
    49    44    47    1
    50    19    17    1
    51    13    14    1
    52    47    49    1
    53    14    17    1
    54    14    15    1
    55    67    70    1
    56    67    68    1
    57    20    21    1
    58    21    24    1
    59   152   151    1
    60   152   155    1
    61    70    71    1
    62    17    18    1
    63    71    72    1
    64    15    16    2
    65    69    68    2
    66    68    75   am
    67    74    72   ar
    68    72    73   ar
    69   142   140   am
    70    12    11    2
    71    75    76    1
    72   140   139    1
    73   140   141    2
    74   134   132    1
    75   139   136    1
    76    11    10    1
    77   138   137    2
    78    76    79    1
    79    76    77    1
    80   132   131    2
    81   132   133    1
    82   131   130    1
    83   149   148    1
    84    79    80    1
    85    93    92    1
    86   136   137    1
    87   136   135    1
    88    10     9    1
    89     9     3   am
    90     7     6    1
    91    77    78    2
    92    77    87   am
    93     1     2    1
    94   148   150    1
    95   148   147    1
    96   130   129    1
    97     5     6    1
    98     5     2    1
    99   135   126   am
   100    80    81   ar
   101    80    82   ar
   102    87    88    1
   103    94    92    1
   104     6     8    1
   105    92    91    1
   106   129   128    1
   107    81    83   ar
   108     3     2    1
   109     3     4    2
   110   127   126    2
   111   147   144    1
   112   126   125    1
   113    91    88    1
   114    82    84   ar
   115    88    89    1
   116   143   144    1
   117    83    85   ar
   118   128   125    1
   119   144   145    1
   120   125   124    1
   121    84    85   ar
   122   104   103    1
   123   146   145    2
   124    85    86    1
   125    89    90    2
   126   114   113    1
   127   115   113    1
   128   103   100    1
   129   100    99    1
   130   100   101    1
   131    98    97    2
   132   113   112    2
   133    99    97   am
   134    97    96    1
   135    96    95    1
   136   112   111    1
   137   101   102    2
   138   111   110    1
   139   109   110    1
   140   109   106    1
   141   105   106    1
   142   123   121   ar
   143   106   107    1
   144   121   122   ar
   145   121   120    1
   146   116   107   am
   147   116   117    1
   148   107   108    2
   149   120   117    1
   150   117   118    1
   151   118   119    2
