@<TRIPOS>MOLECULE
tmp/4qq7A00.pdb
 155 149 0 0 0
SMALL
GASTEIGER

@<TRIPOS>ATOM
      1  N         26.4680   72.5970   19.1640 N.3    11  CYS11      -0.1221
      2  CA        27.5130   71.5780   19.1240 C.3    11  CYS11       0.1794
      3  C         27.8750   71.2160   17.7000 C.2    11  CYS11       0.2443
      4  O         27.0280   70.7350   16.9610 O.2    11  CYS11      -0.2733
      5  CB        27.0650   70.3200   19.8650 C.3    11  CYS11       0.0970
      6  SG        28.1790   68.9030   19.5920 S.3    11  CYS11      -0.0800
      7  N         29.1370   71.4450   17.3020 N.am   12  PRO12      -0.2718
      8  CA        29.4800   71.1780   15.8910 C.3    12  PRO12       0.1535
      9  C         29.4050   69.6900   15.5680 C.2    12  PRO12       0.2598
     10  O         29.1350   69.3010   14.4390 O.2    12  PRO12      -0.2715
     11  CB        30.9130   71.7030   15.7500 C.3    12  PRO12       0.0310
     12  CG        31.4600   71.7620   17.2230 C.3    12  PRO12       0.0237
     13  CD        30.2470   72.0440   18.0720 C.3    12  PRO12       0.0939
     14  N         29.6680   68.8550   16.5580 N.am   13  PHE13      -0.1974
     15  CA        29.5630   67.4260   16.3270 C.3    13  PHE13       0.1639
     16  C         28.1060   67.0010   16.1070 C.2    13  PHE13       0.2290
     17  O         27.7940   66.1820   15.2210 O.2    13  PHE13      -0.2864
     18  CB        30.1850   66.6820   17.4980 C.3    13  PHE13       0.0560
     19  CG        31.6490   66.9540   17.6580 C.ar   13  PHE13      -0.0200
     20  CD1       32.5750   66.2860   16.8640 C.ar   13  PHE13      -0.0042
     21  CD2       32.1070   67.8860   18.5920 C.ar   13  PHE13      -0.0042
     22  CE1       33.9430   66.5290   16.9950 C.ar   13  PHE13      -0.0003
     23  CE2       33.4720   68.1370   18.7270 C.ar   13  PHE13      -0.0003
     24  CZ        34.3920   67.4410   17.9210 C.ar   13  PHE13      -0.0000
     25  N         26.8320   67.6960   12.5350 N.3    16  ARG16      -0.1245
     26  CA        27.1300   66.6570   11.5550 C.3    16  ARG16       0.1563
     27  C         25.9290   65.7250   11.4370 C.2    16  ARG16       0.2260
     28  O         25.4400   65.4440   10.3330 O.2    16  ARG16      -0.2867
     29  CB        28.3670   65.8470   11.9560 C.3    16  ARG16       0.0307
     30  CG        29.6550   66.6100   12.0390 C.3    16  ARG16       0.0489
     31  CD        30.7360   65.6930   12.5920 C.3    16  ARG16       0.2205
     32  NE        32.0800   66.1750   12.3070 N.pl3  16  ARG16      -0.0865
     33  CZ        33.1830   65.6240   12.8060 C.cat  16  ARG16       0.5346
     34  NH1       33.0860   64.5980   13.6540 N.pl3  16  ARG16       0.1354
     35  NH2       34.3760   66.1170   12.4850 N.pl3  16  ARG16       0.1354
     36  N         23.7010   72.3950   26.9640 N.3    35  LEU35      -0.1245
     37  CA        24.9680   71.9940   27.5630 C.3    35  LEU35       0.1561
     38  C         25.4380   72.9150   28.6890 C.2    35  LEU35       0.2260
     39  O         26.4560   72.6400   29.3220 O.2    35  LEU35      -0.2867
     40  CB        26.0430   71.9170   26.4790 C.3    35  LEU35       0.0270
     41  CG        25.9140   70.7250   25.5260 C.3    35  LEU35       0.0019
     42  CD1       27.0530   70.6900   24.4870 C.3    35  LEU35       0.0001
     43  CD2       25.8870   69.4410   26.3470 C.3    35  LEU35       0.0001
     44  N         23.3920   70.5880   31.4880 N.3    38  LYS38      -0.1245
     45  CA        23.3240   69.2450   30.9090 C.3    38  LYS38       0.1561
     46  C         22.5520   68.2560   31.7890 C.2    38  LYS38       0.2260
     47  O         22.8880   68.0690   32.9650 O.2    38  LYS38      -0.2867
     48  CB        24.7430   68.7300   30.6510 C.3    38  LYS38       0.0271
     49  CG        24.8100   67.3660   29.9760 C.3    38  LYS38       0.0035
     50  CD        26.2200   67.0650   29.4990 C.3    38  LYS38       0.0206
     51  CE        27.2240   67.0240   30.6430 C.3    38  LYS38       0.1093
     52  NZ        28.6250   66.8360   30.1400 N.3    38  LYS38      -0.1314
     53  N         30.8590   59.2100   28.4610 N.3    48  TYR48      -0.1227
     54  CA        31.7360   60.3650   28.2720 C.3    48  TYR48       0.1736
     55  C         30.9810   61.6840   28.4720 C.2    48  TYR48       0.2596
     56  O         31.5760   62.7690   28.4420 O.2    48  TYR48      -0.2718
     57  CB        32.3920   60.3150   26.8880 C.3    48  TYR48       0.0548
     58  CG        33.2870   59.1090   26.7120 C.ar   48  TYR48      -0.0200
     59  CD1       34.5830   59.0990   27.2260 C.ar   48  TYR48      -0.0009
     60  CD2       32.8380   57.9770   26.0430 C.ar   48  TYR48      -0.0009
     61  CE1       35.4060   57.9920   27.0760 C.ar   48  TYR48       0.0417
     62  CE2       33.6560   56.8620   25.8870 C.ar   48  TYR48       0.0417
     63  CZ        34.9360   56.8760   26.4060 C.ar   48  TYR48       0.1957
     64  OH        35.7420   55.7740   26.2610 O.3    48  TYR48      -0.2866
     65  N         29.6740   61.5670   28.7110 N.am   49  GLY49      -0.1942
     66  CA        28.8080   62.6980   28.9830 C.3    49  GLY49       0.2014
     67  C         28.6900   63.6860   27.8350 C.2    49  GLY49       0.2639
     68  O         28.4490   64.8700   28.0530 O.2    49  GLY49      -0.2714
     69  N         28.8110   63.2020   26.6040 N.am   50  GLN50      -0.1963
     70  CA        28.7810   64.1000   25.4670 C.3    50  GLN50       0.1733
     71  C         27.6040   63.8480   24.5500 C.2    50  GLN50       0.2616
     72  O         27.0150   62.7620   24.4900 O.2    50  GLN50      -0.2715
     73  CB        30.0750   64.0080   24.6450 C.3    50  GLN50       0.0408
     74  CG        31.3180   64.5260   25.3640 C.3    50  GLN50       0.0908
     75  CD        32.5990   64.1640   24.6330 C.2    50  GLN50       0.2608
     76  OE1       32.6330   63.1950   23.8700 O.2    50  GLN50      -0.2717
     77  NE2       33.6580   64.9420   24.8570 N.am   50  GLN50      -0.0878
     78  N         27.2790   64.9080   23.8380 N.am   51  VAL51      -0.1964
     79  CA        26.3220   64.8920   22.7730 C.3    51  VAL51       0.1712
     80  C         27.1910   64.9980   21.5140 C.2    51  VAL51       0.2458
     81  O         28.3000   65.5430   21.6080 O.2    51  VAL51      -0.2730
     82  CB        25.3460   66.0630   23.0140 C.3    51  VAL51       0.0289
     83  CG1       25.8530   67.3400   22.4260 C.3    51  VAL51       0.0023
     84  CG2       23.9500   65.7310   22.6500 C.3    51  VAL51       0.0023
     85  N         26.7370   64.4830   20.3410 N.am   52  PRO52      -0.2727
     86  CA        25.4620   63.8210   20.0320 C.3    52  PRO52       0.1402
     87  C         25.3400   62.3950   20.5460 C.2    52  PRO52       0.2269
     88  O         26.3400   61.7010   20.7340 O.2    52  PRO52      -0.2865
     89  CB        25.4200   63.8460   18.5020 C.3    52  PRO52       0.0296
     90  CG        26.8910   63.8160   18.0810 C.3    52  PRO52       0.0237
     91  CD        27.5850   64.6400   19.1340 C.3    52  PRO52       0.0939
     92  N         29.4120   59.3780   19.5360 N.3    63  GLU63      -0.1231
     93  CA        30.4670   59.6890   18.5600 C.3    63  GLU63       0.1699
     94  C         29.8360   59.9750   17.2000 C.2    63  GLU63       0.2593
     95  O         29.3390   59.0670   16.5380 O.2    63  GLU63      -0.2718
     96  CB        31.4970   58.5610   18.4480 C.3    63  GLU63       0.0402
     97  CG        32.1670   58.2210   19.7650 C.3    63  GLU63       0.1161
     98  CD        33.0380   59.3450   20.2710 C.2    63  GLU63       0.3649
     99  OE1       33.6990   59.9930   19.4310 O.co2  63  GLU63      -0.2457
    100  OE2       33.0430   59.5880   21.4970 O.co2  63  GLU63      -0.2457
    101  N         29.8590   61.2410   16.7950 N.am   64  SER64      -0.1938
    102  CA        29.1360   61.6900   15.5980 C.3    64  SER64       0.2055
    103  C         29.4090   60.8400   14.3360 C.2    64  SER64       0.2643
    104  O         28.4730   60.4700   13.6260 O.2    64  SER64      -0.2714
    105  CB        29.4590   63.1660   15.3250 C.3    64  SER64       0.2130
    106  OG        30.8740   63.3630   15.3120 O.3    64  SER64      -0.2179
    107  N         30.6730   60.5140   14.0650 N.am   65  ASN65      -0.1971
    108  CA        30.9910   59.7250   12.8750 C.3    65  ASN65       0.1688
    109  C         30.4710   58.2800   12.9390 C.2    65  ASN65       0.2292
    110  O         30.1000   57.7060   11.9140 O.2    65  ASN65      -0.2864
    111  CB        32.5130   59.7420   12.6160 C.3    65  ASN65       0.1181
    112  CG        32.9690   61.0860   12.0210 C.2    65  ASN65       0.2629
    113  OD1       32.1320   61.9200   11.6820 O.2    65  ASN65      -0.2716
    114  ND2       34.2760   61.3010   11.9100 N.am   65  ASN65      -0.0877
    115  N         39.6850   64.0160   12.3090 N.3    99  GLU99      -0.1245
    116  CA        39.4670   64.0190   13.7440 C.3    99  GLU99       0.1567
    117  C         40.7840   64.3380   14.4350 C.2    99  GLU99       0.2260
    118  O         40.8130   65.1370   15.3660 O.2    99  GLU99      -0.2867
    119  CB        38.9070   62.6850   14.2350 C.3    99  GLU99       0.0388
    120  CG        37.5100   62.3720   13.7170 C.3    99  GLU99       0.1160
    121  CD        36.4890   63.4450   14.0540 C.2    99  GLU99       0.3649
    122  OE1       36.0760   63.5300   15.2250 O.co2  99  GLU99      -0.2457
    123  OE2       36.1430   64.2380   13.1570 O.co2  99  GLU99      -0.2457
    124  N         37.4790   70.2700   19.7150 N.3   107  SER107     -0.1217
    125  CA        37.1340   69.7750   21.0540 C.3   107  SER107      0.1889
    126  C         37.7420   70.6570   22.1130 C.2   107  SER107      0.2288
    127  O         37.1220   70.9320   23.1380 O.2   107  SER107     -0.2866
    128  CB        37.6060   68.3330   21.2730 C.3   107  SER107      0.2089
    129  OG        36.8070   67.4280   20.5490 O.3   107  SER107     -0.2183
    130  N         35.7350   73.7670   22.1760 N.3   110  GLU110     -0.1231
    131  CA        34.3750   73.6410   22.6640 C.3   110  GLU110      0.1699
    132  C         34.2960   73.2710   24.1390 C.2   110  GLU110      0.2592
    133  O         33.4380   73.7700   24.8660 O.2   110  GLU110     -0.2718
    134  CB        33.6110   72.6050   21.8420 C.3   110  GLU110      0.0402
    135  CG        33.3240   73.0350   20.4150 C.3   110  GLU110      0.1161
    136  CD        32.2580   74.1100   20.3510 C.2   110  GLU110      0.3649
    137  OE1       31.5110   74.2660   21.3430 O.co2 110  GLU110     -0.2457
    138  OE2       32.1690   74.8050   19.3160 O.co2 110  GLU110     -0.2457
    139  N         35.2020   72.4040   24.5780 N.am  111  ASN111     -0.1974
    140  CA        35.0480   71.7320   25.8660 C.3   111  ASN111      0.1688
    141  C         35.8970   72.3340   26.9870 C.2   111  ASN111      0.2292
    142  O         35.4910   72.3210   28.1460 O.2   111  ASN111     -0.2864
    143  CB        35.3570   70.2390   25.6940 C.3   111  ASN111      0.1181
    144  CG        34.3610   69.5370   24.7600 C.2   111  ASN111      0.2629
    145  OD1       33.1650   69.8560   24.7410 O.2   111  ASN111     -0.2716
    146  ND2       34.8640   68.6080   23.9520 N.am  111  ASN111     -0.0877
    147  N         37.2870   75.2780   29.1490 N.3   113  LYS113     -0.1245
    148  CA        36.7790   76.5970   29.5010 C.3   113  LYS113      0.1561
    149  C         37.6720   77.2920   30.5260 C.2   113  LYS113      0.2260
    150  O         38.6130   76.6920   31.0500 O.2   113  LYS113     -0.2867
    151  CB        35.3530   76.4900   30.0430 C.3   113  LYS113      0.0271
    152  CG        34.2760   76.6370   28.9810 C.3   113  LYS113      0.0035
    153  CD        33.7100   75.2940   28.5490 C.3   113  LYS113      0.0206
    154  CE        32.6880   75.4740   27.4470 C.3   113  LYS113      0.1093
    155  NZ        31.8980   74.2320   27.2330 N.3   113  LYS113     -0.1314
@<TRIPOS>BOND
     1    28    27    2
     2    27    26    1
     3    26    29    1
     4    26    25    1
     5   113   112    2
     6   114   112   am
     7   110   109    2
     8    29    30    1
     9   112   111    1
    10    30    31    1
    11    32    31    1
    12    32    33    2
    13   115   116    1
    14    35    33    1
    15   111   108    1
    16    33    34    1
    17   108   109    1
    18   108   107    1
    19   123   121   ar
    20   104   103    2
    21   120   121    1
    22   120   119    1
    23   116   119    1
    24   116   117    1
    25   121   122   ar
    26   107   103   am
    27   103   102    1
    28   117   118    2
    29    10     9    2
    30    17    16    2
    31   106   105    1
    32   105   102    1
    33     9     8    1
    34     9    14   am
    35   102   101    1
    36    11     8    1
    37    11    12    1
    38     8     7    1
    39    16    15    1
    40    15    14    1
    41    15    18    1
    42    95    94    2
    43   101    94   am
    44    20    22   ar
    45    20    19   ar
    46     4     3    2
    47    22    24   ar
    48    94    93    1
    49    12    13    1
    50     7     3   am
    51     7    13    1
    52    18    19    1
    53    19    21   ar
    54     3     2    1
    55    24    23   ar
    56    90    89    1
    57    90    91    1
    58    96    93    1
    59    96    97    1
    60    89    86    1
    61    93    92    1
    62    21    23   ar
    63     2     1    1
    64     2     5    1
    65    91    85    1
    66   138   136   ar
    67    99    98   ar
    68     6     5    1
    69   124   125    1
    70    97    98    1
    71    86    85    1
    72    86    87    1
    73    98   100   ar
    74    85    80   am
    75   136   135    1
    76   136   137   ar
    77   135   134    1
    78    87    88    2
    79   129   128    1
    80   125   128    1
    81   125   126    1
    82    80    81    2
    83    80    79    1
    84   134   131    1
    85   126   127    2
    86   130   131    1
    87    83    82    1
    88    84    82    1
    89   131   132    1
    90    79    82    1
    91    79    78    1
    92    78    71   am
    93    76    75    2
    94   146   144   am
    95   132   139   am
    96   132   133    2
    97    42    41    1
    98    72    71    2
    99    71    70    1
   100   139   140    1
   101    75    77   am
   102    75    74    1
   103    73    74    1
   104    73    70    1
   105   145   144    2
   106   144   143    1
   107    70    69    1
   108    41    43    1
   109    41    40    1
   110   143   140    1
   111   140   141    1
   112    62    60   ar
   113    62    63   ar
   114    60    58   ar
   115    64    63    1
   116    63    61   ar
   117    40    37    1
   118    69    67   am
   119    58    57    1
   120    58    59   ar
   121    57    54    1
   122    36    37    1
   123   141   142    2
   124    61    59   ar
   125   155   154    1
   126   154   153    1
   127    37    38    1
   128    67    68    2
   129    67    66    1
   130    54    53    1
   131    54    55    1
   132    56    55    2
   133    55    65   am
   134   153   152    1
   135    38    39    2
   136    65    66    1
   137   152   151    1
   138   147   148    1
   139    50    49    1
   140    50    51    1
   141   148   151    1
   142   148   149    1
   143    49    48    1
   144    52    51    1
   145   149   150    2
   146    48    45    1
   147    45    44    1
   148    45    46    1
   149    46    47    2
