@<TRIPOS>MOLECULE
tmp/4qq7B00.pdb
 106 102 0 0 0
SMALL
GASTEIGER

@<TRIPOS>ATOM
      1  N         55.3980   44.9410   16.7570 N.3    12  CYS12      -0.1221
      2  CA        54.3670   45.9660   16.8210 C.3    12  CYS12       0.1794
      3  C         52.9860   45.3710   17.0600 C.2    12  CYS12       0.2443
      4  O         52.5250   44.5580   16.2620 O.2    12  CYS12      -0.2733
      5  CB        54.3670   46.7790   15.5260 C.3    12  CYS12       0.0970
      6  SG        52.9760   47.8860   15.3310 S.3    12  CYS12      -0.0800
      7  N         52.3240   45.7530   18.1680 N.am   13  PRO13      -0.2718
      8  CA        51.0050   45.1600   18.4210 C.3    13  PRO13       0.1535
      9  C         49.9730   45.5730   17.3760 C.2    13  PRO13       0.2598
     10  O         49.0920   44.7880   17.0280 O.2    13  PRO13      -0.2715
     11  CB        50.6270   45.7070   19.8010 C.3    13  PRO13       0.0310
     12  CG        51.4780   46.8940   20.0120 C.3    13  PRO13       0.0237
     13  CD        52.7550   46.6320   19.2690 C.3    13  PRO13       0.0939
     14  N         50.1010   46.7810   16.8470 N.am   14  PHE14      -0.1974
     15  CA        49.1430   47.2340   15.8500 C.3    14  PHE14       0.1639
     16  C         49.3150   46.4210   14.5790 C.2    14  PHE14       0.2290
     17  O         48.3230   46.0480   13.9420 O.2    14  PHE14      -0.2864
     18  CB        49.2920   48.7300   15.5950 C.3    14  PHE14       0.0560
     19  CG        49.0170   49.5500   16.8060 C.ar   14  PHE14      -0.0200
     20  CD1       47.7110   49.8430   17.1760 C.ar   14  PHE14      -0.0042
     21  CD2       50.0570   49.9820   17.6150 C.ar   14  PHE14      -0.0042
     22  CE1       47.4430   50.5810   18.3210 C.ar   14  PHE14      -0.0003
     23  CE2       49.7980   50.7230   18.7650 C.ar   14  PHE14      -0.0003
     24  CZ        48.4930   51.0170   19.1200 C.ar   14  PHE14      -0.0000
     25  N         62.5500   49.7320   12.6840 N.3    36  LEU36      -0.1245
     26  CA        62.5310   51.1030   13.1880 C.3    36  LEU36       0.1561
     27  C         63.8450   51.4830   13.8920 C.2    36  LEU36       0.2260
     28  O         64.9350   50.9930   13.5550 O.2    36  LEU36      -0.2867
     29  CB        61.3440   51.3000   14.1360 C.3    36  LEU36       0.0270
     30  CG        59.9570   51.3120   13.4950 C.3    36  LEU36       0.0019
     31  CD1       58.9190   51.3690   14.5910 C.3    36  LEU36       0.0001
     32  CD2       59.7690   52.4900   12.5740 C.3    36  LEU36       0.0001
     33  N         54.5410   58.1780    9.7340 N.3    48  GLY48      -0.1210
     34  CA        55.7330   57.3480    9.8340 C.3    48  GLY48       0.1956
     35  C         55.5650   56.0610   10.6200 C.2    48  GLY48       0.2612
     36  O         56.5110   55.5750   11.2490 O.2    48  GLY48      -0.2717
     37  N         54.3660   55.4950   10.5960 N.am   49  GLN49      -0.1965
     38  CA        54.1270   54.2950   11.3890 C.3    49  GLN49       0.1733
     39  C         53.7110   53.0790   10.5830 C.2    49  GLN49       0.2616
     40  O         53.1300   53.1840    9.4930 O.2    49  GLN49      -0.2715
     41  CB        53.0460   54.5570   12.4320 C.3    49  GLN49       0.0408
     42  CG        53.4100   55.5550   13.5010 C.3    49  GLN49       0.0908
     43  CD        52.2020   55.9340   14.3250 C.2    49  GLN49       0.2608
     44  OE1       51.0640   55.8120   13.8640 O.2    49  GLN49      -0.2717
     45  NE2       52.4360   56.3940   15.5470 N.am   49  GLN49      -0.0878
     46  N         53.9710   51.9220   11.1700 N.am   50  VAL50      -0.1964
     47  CA        53.4240   50.6710   10.6820 C.3    50  VAL50       0.1712
     48  C         52.2750   50.3300   11.6230 C.2    50  VAL50       0.2458
     49  O         52.2100   50.8440   12.7360 O.2    50  VAL50      -0.2730
     50  CB        54.4820   49.5460   10.6420 C.3    50  VAL50       0.0289
     51  CG1       55.5400   49.8970    9.6260 C.3    50  VAL50       0.0023
     52  CG2       55.0850   49.3420   12.0080 C.3    50  VAL50       0.0023
     53  N         51.3230   49.5110   11.1710 N.am   51  PRO51      -0.2727
     54  CA        51.2430   48.8610    9.8640 C.3    51  PRO51       0.1402
     55  C         50.8360   49.8240    8.7660 C.2    51  PRO51       0.2269
     56  O         50.1950   50.8450    9.0330 O.2    51  PRO51      -0.2865
     57  CB        50.1680   47.7930   10.0680 C.3    51  PRO51       0.0296
     58  CG        49.2740   48.3830   11.1210 C.3    51  PRO51       0.0237
     59  CD        50.2010   49.1310   12.0480 C.3    51  PRO51       0.0939
     60  N         46.8120   52.9770    9.8250 N.3    62  GLU62      -0.1231
     61  CA        45.9300   52.7470   10.9810 C.3    62  GLU62       0.1699
     62  C         45.3270   51.3430   10.8900 C.2    62  GLU62       0.2592
     63  O         44.5610   51.0250    9.9590 O.2    62  GLU62      -0.2718
     64  CB        44.8220   53.8030   11.0940 C.3    62  GLU62       0.0402
     65  CG        43.6990   53.4360   12.0710 C.3    62  GLU62       0.1161
     66  CD        43.9110   53.9900   13.4690 C.2    62  GLU62       0.3649
     67  OE1       45.0300   54.4480   13.7730 O.co2  62  GLU62      -0.2457
     68  OE2       42.9480   53.9730   14.2630 O.co2  62  GLU62      -0.2457
     69  N         45.6860   50.5020   11.8580 N.am   63  SER63      -0.1952
     70  CA        45.3410   49.0800   11.8610 C.3    63  SER63       0.1924
     71  C         43.8560   48.7910   11.6690 C.2    63  SER63       0.2314
     72  O         43.5050   47.9010   10.8930 O.2    63  SER63      -0.2863
     73  CB        45.8350   48.4050   13.1560 C.3    63  SER63       0.2116
     74  OG        45.3850   49.0750   14.3180 O.3    63  SER63      -0.2180
     75  N         40.4620   52.0180   21.4560 N.3    98  GLU98      -0.1245
     76  CA        41.5580   52.8980   21.0420 C.3    98  GLU98       0.1567
     77  C         41.7760   53.9940   22.0720 C.2    98  GLU98       0.2260
     78  O         42.9050   54.3090   22.4260 O.2    98  GLU98      -0.2867
     79  CB        41.2940   53.5220   19.6600 C.3    98  GLU98       0.0388
     80  CG        41.3050   52.5320   18.5080 C.3    98  GLU98       0.1160
     81  CD        42.6000   51.7490   18.4460 C.2    98  GLU98       0.3649
     82  OE1       43.6400   52.3150   18.0570 O.co2  98  GLU98      -0.2457
     83  OE2       42.5770   50.5660   18.8210 O.co2  98  GLU98      -0.2457
     84  N         50.2520   52.6770   23.0210 N.3   106  SER106     -0.1217
     85  CA        51.1190   53.5710   22.2560 C.3   106  SER106      0.1889
     86  C         52.1700   54.2210   23.1540 C.2   106  SER106      0.2288
     87  O         53.3210   54.3740   22.7570 O.2   106  SER106     -0.2866
     88  CB        50.3100   54.6580   21.5400 C.3   106  SER106      0.2089
     89  OG        49.5910   54.1320   20.4370 O.3   106  SER106     -0.2183
     90  N         54.7140   51.6800   23.8580 N.3   109  GLU109     -0.1231
     91  CA        55.4690   51.3010   22.6730 C.3   109  GLU109      0.1699
     92  C         56.3500   52.4240   22.1440 C.2   109  GLU109      0.2592
     93  O         57.4550   52.1730   21.6730 O.2   109  GLU109     -0.2718
     94  CB        54.5200   50.8240   21.5740 C.3   109  GLU109      0.0402
     95  CG        53.8610   49.4760   21.8820 C.3   109  GLU109      0.1161
     96  CD        54.8240   48.3120   21.7450 C.2   109  GLU109      0.3649
     97  OE1       55.8650   48.4850   21.0860 O.co2 109  GLU109     -0.2457
     98  OE2       54.5470   47.2240   22.2920 O.co2 109  GLU109     -0.2457
     99  N         55.8670   53.6590   22.2210 N.am  110  ASN110     -0.1974
    100  CA        56.4950   54.7450   21.4800 C.3   110  ASN110      0.1688
    101  C         57.4250   55.6430   22.3040 C.2   110  ASN110      0.2292
    102  O         58.4230   56.1350   21.7800 O.2   110  ASN110     -0.2864
    103  CB        55.4190   55.6030   20.8040 C.3   110  ASN110      0.1181
    104  CG        54.6390   54.8410   19.7280 C.2   110  ASN110      0.2629
    105  OD1       55.1850   53.9770   19.0440 O.2   110  ASN110     -0.2716
    106  ND2       53.3650   55.1900   19.5540 N.am  110  ASN110     -0.0877
@<TRIPOS>BOND
     1    55    56    2
     2    55    54    1
     3    40    39    2
     4    51    50    1
     5    33    34    1
     6    60    61    1
     7    34    35    1
     8    54    57    1
     9    54    53    1
    10    63    62    2
    11    57    58    1
    12    39    46   am
    13    39    38    1
    14    37    35   am
    15    37    38    1
    16    35    36    2
    17    50    47    1
    18    50    52    1
    19    47    46    1
    20    47    48    1
    21    62    61    1
    22    62    69   am
    23    72    71    2
    24    61    64    1
    25    64    65    1
    26    58    59    1
    27    53    48   am
    28    53    59    1
    29    38    41    1
    30    48    49    2
    31    71    70    1
    32    69    70    1
    33    70    73    1
    34    65    66    1
    35    41    42    1
    36    32    30    1
    37    25    26    1
    38    73    74    1
    39    26    27    1
    40    26    29    1
    41    66    67   ar
    42    66    68   ar
    43    30    29    1
    44    30    31    1
    45    42    43    1
    46    28    27    2
    47    44    43    2
    48    17    16    2
    49    43    45   am
    50    16    15    1
    51     6     5    1
    52     5     2    1
    53    18    15    1
    54    18    19    1
    55    15    14    1
    56     4     3    2
    57     1     2    1
    58    19    20   ar
    59    19    21   ar
    60     2     3    1
    61    14     9   am
    62    10     9    2
    63     3     7   am
    64    20    22   ar
    65     9     8    1
    66    21    23   ar
    67    82    81   ar
    68     7     8    1
    69     7    13    1
    70    22    24   ar
    71     8    11    1
    72    81    80    1
    73    81    83   ar
    74    80    79    1
    75    23    24   ar
    76   105   104    2
    77    13    12    1
    78   106   104   am
    79    79    76    1
    80   104   103    1
    81    11    12    1
    82    89    88    1
    83   103   100    1
    84    76    75    1
    85    76    77    1
    86    97    96   ar
    87   100    99    1
    88   100   101    1
    89    88    85    1
    90    94    95    1
    91    94    91    1
    92    93    92    2
    93    96    95    1
    94    96    98   ar
    95   102   101    2
    96    77    78    2
    97    92    99   am
    98    92    91    1
    99    85    84    1
   100    85    86    1
   101    91    90    1
   102    87    86    2
