@<TRIPOS>MOLECULE
tmp/4qq8D01.pdb
 148 146 0 0 0
SMALL
GASTEIGER

@<TRIPOS>ATOM
      1  N          9.4130  -81.9120   22.7040 N.3   392  GLY392     -0.1210
      2  CA         8.8800  -82.2450   24.0170 C.3   392  GLY392      0.1956
      3  C          9.5750  -81.4300   25.0880 C.2   392  GLY392      0.2612
      4  O         10.4100  -80.5480   24.7980 O.2   392  GLY392     -0.2717
      5  N          9.2050  -81.7050   26.3320 N.am  393  GLY393     -0.1942
      6  CA         9.6850  -80.9320   27.4660 C.3   393  GLY393      0.2014
      7  C         10.5030  -81.8290   28.3200 C.2   393  GLY393      0.2639
      8  O         11.7010  -81.9510   28.1300 O.2   393  GLY393     -0.2714
      9  N          9.8390  -82.5060   29.2330 N.am  394  LEU394     -0.1963
     10  CA        10.5260  -83.4740   30.0750 C.3   394  LEU394      0.1728
     11  C         11.3200  -84.4460   29.2040 C.2   394  LEU394      0.2616
     12  O         12.4540  -84.7780   29.5080 O.2   394  LEU394     -0.2715
     13  CB         9.5310  -84.2500   30.9220 C.3   394  LEU394      0.0311
     14  CG         8.7750  -83.4900   32.0010 C.3   394  LEU394      0.0022
     15  CD1        7.8600  -84.4500   32.7370 C.3   394  LEU394      0.0001
     16  CD2        9.7390  -82.8580   32.9730 C.3   394  LEU394      0.0001
     17  N         10.7170  -84.8610   28.0930 N.am  395  THR395     -0.1951
     18  CA        11.3460  -85.7680   27.1690 C.3   395  THR395      0.1897
     19  C         12.7750  -85.3480   26.8230 C.2   395  THR395      0.2313
     20  O         13.6670  -86.1810   26.8610 O.2   395  THR395     -0.2863
     21  CB        10.5070  -85.8690   25.9120 C.3   395  THR395      0.1794
     22  OG1        9.2750  -86.5170   26.2290 O.3   395  THR395     -0.2208
     23  CG2       11.2190  -86.6520   24.8280 C.3   395  THR395      0.0378
     24  N         13.2970  -70.0910   22.1840 N.3   417  LEU417     -0.1231
     25  CA        11.8720  -69.9850   22.0290 C.3   417  LEU417      0.1693
     26  C         11.0650  -71.1370   22.6480 C.2   417  LEU417      0.2592
     27  O          9.8510  -70.9950   22.9170 O.2   417  LEU417     -0.2718
     28  CB        11.5710  -69.8940   20.5510 C.3   417  LEU417      0.0284
     29  CG        10.2710  -69.1900   20.2080 C.3   417  LEU417      0.0019
     30  CD1       10.3700  -67.7050   20.5120 C.3   417  LEU417      0.0001
     31  CD2        9.9300  -69.4040   18.7420 C.3   417  LEU417      0.0001
     32  N         11.7280  -72.2680   22.8740 N.am  418  ASN418     -0.1960
     33  CA        11.0720  -73.4760   23.3950 C.3   418  ASN418      0.1819
     34  C          9.6980  -73.7250   22.7850 C.2   418  ASN418      0.2622
     35  O          8.7400  -73.9270   23.5000 O.2   418  ASN418     -0.2715
     36  CB        10.9630  -73.4450   24.9150 C.3   418  ASN418      0.1195
     37  CG        11.9090  -74.4280   25.5740 C.2   418  ASN418      0.2630
     38  OD1       13.1350  -74.2710   25.5110 O.2   418  ASN418     -0.2716
     39  ND2       11.3490  -75.4670   26.1850 N.am  418  ASN418     -0.0877
     40  N          9.6090  -73.7200   21.4610 N.am  419  SER419     -0.1936
     41  CA         8.3170  -73.8410   20.8400 C.3   419  SER419      0.2055
     42  C          8.0010  -75.3070   20.6250 C.2   419  SER419      0.2642
     43  O          8.6200  -75.9680   19.8020 O.2   419  SER419     -0.2714
     44  CB         8.2720  -73.0680   19.5280 C.3   419  SER419      0.2130
     45  OG         6.9210  -72.8890   19.1140 O.3   419  SER419     -0.2179
     46  N          7.0380  -75.8300   21.3710 N.am  420  MET420     -0.1976
     47  CA         6.6950  -77.2430   21.2590 C.3   420  MET420      0.1605
     48  C          6.0630  -77.4830   19.9100 C.2   420  MET420      0.2287
     49  O          5.2970  -76.6600   19.4110 O.2   420  MET420     -0.2864
     50  CB         5.7380  -77.6720   22.3760 C.3   420  MET420      0.0413
     51  CG         6.3140  -77.5260   23.7870 C.3   420  MET420      0.0598
     52  SD         7.7560  -78.5770   24.0850 S.3   420  MET420     -0.1393
     53  CE         8.8340  -77.5080   25.0230 C.3   420  MET420      0.0692
     54  N          7.5660  -85.6270   22.4510 N.3   446  GLY446     -0.1210
     55  CA         6.6390  -86.0010   23.5030 C.3   446  GLY446      0.1956
     56  C          5.2880  -86.2130   22.8970 C.2   446  GLY446      0.2612
     57  O          5.0310  -85.7750   21.7610 O.2   446  GLY446     -0.2717
     58  N          4.4040  -86.8530   23.6530 N.am  447  ASP447     -0.1959
     59  CA         3.0540  -87.1060   23.1490 C.3   447  ASP447      0.1840
     60  C          2.2810  -85.8110   22.8460 C.2   447  ASP447      0.2623
     61  O          1.4120  -85.7970   21.9910 O.2   447  ASP447     -0.2715
     62  CB         2.2480  -88.0640   24.0560 C.3   447  ASP447      0.1450
     63  CG         2.0800  -87.5640   25.4940 C.2   447  ASP447      0.3671
     64  OD1        3.0540  -87.0570   26.1070 O.co2 447  ASP447     -0.2456
     65  OD2        0.9470  -87.7150   26.0100 O.co2 447  ASP447     -0.2456
     66  N          2.5990  -84.7190   23.5350 N.am  448  GLY448     -0.1940
     67  CA         1.9540  -83.4370   23.2710 C.3   448  GLY448      0.2014
     68  C          2.4040  -82.8450   21.9580 C.2   448  GLY448      0.2639
     69  O          1.5710  -82.4510   21.1000 O.2   448  GLY448     -0.2714
     70  N          3.7220  -82.7920   21.8130 N.am  449  SER449     -0.1949
     71  CA         4.3780  -82.0270   20.7540 C.3   449  SER449      0.1924
     72  C          4.2140  -82.6480   19.3990 C.2   449  SER449      0.2314
     73  O          4.3370  -81.9980   18.3660 O.2   449  SER449     -0.2863
     74  CB         5.8680  -81.9260   21.0670 C.3   449  SER449      0.2116
     75  OG         6.0780  -81.2130   22.2650 O.3   449  SER449     -0.2180
     76  N          1.1110  -81.3450   17.1930 N.3   452  TYR452     -0.1241
     77  CA         1.1830  -80.1330   16.3930 C.3   452  TYR452      0.1605
     78  C          1.3010  -80.3770   14.8970 C.2   452  TYR452      0.2264
     79  O          0.7680  -79.6130   14.1190 O.2   452  TYR452     -0.2867
     80  CB         2.3890  -79.2700   16.8240 C.3   452  TYR452      0.0534
     81  CG         2.1790  -78.3630   18.0150 C.ar  452  TYR452     -0.0201
     82  CD1        2.3890  -78.8230   19.3030 C.ar  452  TYR452     -0.0009
     83  CD2        1.7860  -77.0460   17.8390 C.ar  452  TYR452     -0.0009
     84  CE1        2.1820  -77.9950   20.3880 C.ar  452  TYR452      0.0417
     85  CE2        1.5830  -76.2090   18.9030 C.ar  452  TYR452      0.0417
     86  CZ         1.7850  -76.6800   20.1760 C.ar  452  TYR452      0.1957
     87  OH         1.6040  -75.8380   21.2410 O.3   452  TYR452     -0.2866
     88  N          7.9150  -90.3570   23.3600 N.3   472  MET472     -0.1245
     89  CA         7.8740  -90.5720   24.7860 C.3   472  MET472      0.1570
     90  C          6.4900  -90.1700   25.2770 C.2   472  MET472      0.2261
     91  O          6.1790  -88.9810   25.3990 O.2   472  MET472     -0.2867
     92  CB         8.9370  -89.7330   25.4770 C.3   472  MET472      0.0387
     93  CG        10.3710  -90.0740   25.1150 C.3   472  MET472      0.0595
     94  SD        10.7070  -91.8440   25.1460 S.3   472  MET472     -0.1393
     95  CE        12.4170  -91.8270   24.6380 C.3   472  MET472      0.0692
     96  N          3.8050  -89.9710   28.0180 N.3   474  ASN474     -0.1240
     97  CA         3.3990  -89.9080   29.4260 C.3   474  ASN474      0.1653
     98  C          1.9780  -89.3800   29.6230 C.2   474  ASN474      0.2266
     99  O          1.6630  -88.8790   30.6930 O.2   474  ASN474     -0.2867
    100  CB         4.3750  -89.0480   30.2320 C.3   474  ASN474      0.1155
    101  CG         4.5520  -87.6710   29.6640 C.2   474  ASN474      0.2627
    102  OD1        3.7900  -87.1960   28.8150 O.2   474  ASN474     -0.2716
    103  ND2        5.5760  -87.0090   30.1260 N.am  474  ASN474     -0.0877
    104  N          0.4730  -86.8200   28.7500 N.3   476  SER476     -0.1202
    105  CA         0.3490  -85.4420   29.2260 C.3   476  SER476      0.2020
    106  C          1.2670  -84.4330   28.5750 C.2   476  SER476      0.2619
    107  O          2.3360  -84.7820   28.0400 O.2   476  SER476     -0.2717
    108  CB         0.6020  -85.4100   30.7430 C.3   476  SER476      0.2103
    109  OG         1.9610  -85.6270   30.9960 O.3   476  SER476     -0.2182
    110  N          0.8380  -83.1830   28.6880 N.am  477  TRP477     -0.1961
    111  CA         1.7310  -82.0460   28.5840 C.3   477  TRP477      0.1771
    112  C          2.5820  -82.0540   29.8800 C.2   477  TRP477      0.2620
    113  O          2.2240  -81.4550   30.8970 O.2   477  TRP477     -0.2715
    114  CB         0.9420  -80.7330   28.4770 C.3   477  TRP477      0.0590
    115  CG         0.0260  -80.5350   27.2810 C.ar  477  TRP477      0.0006
    116  CD1       -1.3490  -80.4680   27.2930 C.ar  477  TRP477      0.0946
    117  CD2        0.4160  -80.3250   25.9420 C.ar  477  TRP477      0.0152
    118  NE1       -1.8260  -80.2460   26.0230 N.ar  477  TRP477     -0.2442
    119  CE2       -0.7530  -80.1660   25.1810 C.ar  477  TRP477      0.0810
    120  CE3        1.6430  -80.2730   25.3010 C.ar  477  TRP477      0.0012
    121  CZ2       -0.7210  -79.9290   23.8290 C.ar  477  TRP477      0.0191
    122  CZ3        1.6690  -80.0620   23.9150 C.ar  477  TRP477      0.0001
    123  CH2        0.5000  -79.8840   23.2050 C.ar  477  TRP477      0.0015
    124  N          3.7180  -82.7370   29.8200 N.am  478  GLY478     -0.1940
    125  CA         4.3710  -83.2330   31.0290 C.3   478  GLY478      0.2014
    126  C          5.0330  -82.1920   31.8860 C.2   478  GLY478      0.2639
    127  O          4.7850  -82.1360   33.0670 O.2   478  GLY478     -0.2714
    128  N          5.8890  -81.3810   31.2690 N.am  479  TRP479     -0.1959
    129  CA         6.6140  -80.3170   31.9470 C.3   479  TRP479      0.1771
    130  C          5.6650  -79.3270   32.6140 C.2   479  TRP479      0.2620
    131  O          5.8710  -78.9470   33.7670 O.2   479  TRP479     -0.2715
    132  CB         7.5110  -79.5560   30.9710 C.3   479  TRP479      0.0590
    133  CG         8.6200  -78.7820   31.6030 C.ar  479  TRP479      0.0006
    134  CD1        8.8650  -78.6070   32.9560 C.ar  479  TRP479      0.0946
    135  CD2        9.6180  -78.0420   30.9330 C.ar  479  TRP479      0.0152
    136  NE1        9.9780  -77.8290   33.1510 N.ar  479  TRP479     -0.2442
    137  CE2       10.4540  -77.4630   31.9140 C.ar  479  TRP479      0.0810
    138  CE3        9.9050  -77.8220   29.6000 C.ar  479  TRP479      0.0012
    139  CZ2       11.5420  -76.6770   31.5820 C.ar  479  TRP479      0.0191
    140  CZ3       10.9890  -77.0480   29.2740 C.ar  479  TRP479      0.0001
    141  CH2       11.7930  -76.4790   30.2570 C.ar  479  TRP479      0.0015
    142  N          4.6170  -78.9210   31.9050 N.am  480  THR480     -0.1951
    143  CA         3.6550  -77.9630   32.4550 C.3   480  THR480      0.1897
    144  C          2.8420  -78.5670   33.5880 C.2   480  THR480      0.2313
    145  O          2.5740  -77.9160   34.5700 O.2   480  THR480     -0.2863
    146  CB         2.7240  -77.3800   31.3640 C.3   480  THR480      0.1794
    147  OG1        2.2160  -78.4310   30.5410 O.3   480  THR480     -0.2208
    148  CG2        3.4850  -76.3860   30.5120 C.3   480  THR480      0.0378
@<TRIPOS>BOND
     1    79    78    2
     2    78    77    1
     3    77    80    1
     4    77    76    1
     5    80    81    1
     6    83    81   ar
     7    83    85   ar
     8    81    82   ar
     9    73    72    2
    10    31    29    1
    11    85    86   ar
    12    45    44    1
    13    82    84   ar
    14    72    71    1
    15    49    48    2
    16    44    41    1
    17    43    42    2
    18    48    47    1
    19    86    84   ar
    20    86    87    1
    21    29    30    1
    22    29    28    1
    23    28    25    1
    24    42    41    1
    25    42    46   am
    26    71    74    1
    27    71    70    1
    28    41    40    1
    29    74    75    1
    30    69    68    2
    31    47    46    1
    32    47    50    1
    33    40    34   am
    34    57    56    2
    35    70    68   am
    36    68    67    1
    37    61    60    2
    38    25    24    1
    39    25    26    1
    40    50    51    1
    41    54    55    1
    42    26    32   am
    43    26    27    2
    44     1     2    1
    45    34    33    1
    46    34    35    2
    47    60    59    1
    48    60    66   am
    49    32    33    1
    50    56    55    1
    51    56    58   am
    52    59    58    1
    53    59    62    1
    54   123   121   ar
    55   123   122   ar
    56    67    66    1
    57    88    89    1
    58    33    36    1
    59    51    52    1
    60   121   119   ar
    61   122   120   ar
    62     2     3    1
    63    62    63    1
    64    52    53    1
    65    95    94    1
    66    89    90    1
    67    89    92    1
    68     4     3    2
    69    23    21    1
    70    36    37    1
    71     3     5   am
    72    93    94    1
    73    93    92    1
    74   119   117   ar
    75   119   118   ar
    76    90    91    2
    77   120   117   ar
    78    63    65   ar
    79    63    64   ar
    80    38    37    2
    81    37    39   am
    82    21    22    1
    83    21    18    1
    84   117   115   ar
    85   118   116   ar
    86     5     6    1
    87    19    20    2
    88    19    18    1
    89    18    17    1
    90   115   116   ar
    91   115   114    1
    92     6     7    1
    93    96    97    1
    94   107   106    2
    95    17    11   am
    96     8     7    2
    97     7     9   am
    98   114   111    1
    99   106   110   am
   100   106   105    1
   101   111   110    1
   102   111   112    1
   103   104   105    1
   104   102   101    2
   105    11    12    2
   106    11    10    1
   107   105   108    1
   108     9    10    1
   109   140   138   ar
   110   140   141   ar
   111    97    98    1
   112    97   100    1
   113   138   135   ar
   114    98    99    2
   115   101   103   am
   116   101   100    1
   117   124   112   am
   118   124   125    1
   119   112   113    2
   120    10    13    1
   121   141   139   ar
   122   148   146    1
   123   147   146    1
   124   108   109    1
   125    13    14    1
   126   135   133   ar
   127   135   137   ar
   128   132   133    1
   129   132   129    1
   130   125   126    1
   131   128   126   am
   132   128   129    1
   133   146   143    1
   134   139   137   ar
   135   133   134   ar
   136   126   127    2
   137   142   143    1
   138   142   130   am
   139   137   136   ar
   140   129   130    1
   141    14    15    1
   142    14    16    1
   143   143   144    1
   144   130   131    2
   145   134   136   ar
   146   144   145    2
