@<TRIPOS>MOLECULE
tmp/4qq8D00.pdb
 71 66 0 0 0
SMALL
GASTEIGER

@<TRIPOS>ATOM
      1  N          4.5570  -75.2030    0.4550 N.3    24  LEU24      -0.1231
      2  CA         3.2110  -75.6870    0.2340 C.3    24  LEU24       0.1693
      3  C          2.5630  -74.7700   -0.8010 C.2    24  LEU24       0.2592
      4  O          2.4990  -73.5300   -0.6220 O.2    24  LEU24      -0.2718
      5  CB         2.4390  -75.6980    1.5520 C.3    24  LEU24       0.0284
      6  CG         1.1600  -76.5180    1.6610 C.3    24  LEU24       0.0019
      7  CD1        0.8610  -76.8840    3.1080 C.3    24  LEU24       0.0001
      8  CD2       -0.0310  -75.8010    1.0500 C.3    24  LEU24       0.0001
      9  N          2.0540  -75.4010   -1.8570 N.am   25  HIS25      -0.1962
     10  CA         1.5850  -74.6990   -3.0350 C.3    25  HIS25       0.1787
     11  C          0.4200  -73.7050   -2.8350 C.2    25  HIS25       0.2621
     12  O         -0.4820  -73.9340   -2.0340 O.2    25  HIS25      -0.2715
     13  CB         1.1540  -75.7310   -4.0680 C.3    25  HIS25       0.0785
     14  CG         0.8710  -75.1350   -5.4150 C.ar   25  HIS25       0.0821
     15  ND1       -0.3180  -74.5110   -5.7170 N.ar   25  HIS25      -0.2267
     16  CD2        1.6220  -75.0750   -6.5410 C.ar   25  HIS25       0.1154
     17  CE1       -0.2900  -74.1030   -6.9720 C.ar   25  HIS25       0.1986
     18  NE2        0.8770  -74.4310   -7.4930 N.ar   25  HIS25      -0.2212
     19  N          0.4310  -72.6300   -3.6220 N.am   26  GLY26      -0.1940
     20  CA        -0.7240  -71.7350   -3.8120 C.3    26  GLY26       0.2014
     21  C         -0.6410  -71.0870   -5.1860 C.2    26  GLY26       0.2638
     22  O          0.4440  -71.0110   -5.7750 O.2    26  GLY26      -0.2714
     23  N         -1.7590  -70.6500   -5.7500 N.am   27  ILE27      -0.1977
     24  CA        -1.6800  -70.1140   -7.1050 C.3    27  ILE27       0.1596
     25  C         -0.6960  -68.9420   -7.2140 C.2    27  ILE27       0.2287
     26  O         -0.0770  -68.7290   -8.2620 O.2    27  ILE27      -0.2864
     27  CB        -3.0560  -69.7270   -7.6970 C.3    27  ILE27       0.0276
     28  CG1       -3.7530  -68.6560   -6.8690 C.3    27  ILE27       0.0022
     29  CG2       -3.9580  -70.9410   -7.7950 C.3    27  ILE27       0.0022
     30  CD1       -4.9720  -68.0780   -7.5450 C.3    27  ILE27       0.0001
     31  N          2.2270  -75.1600    6.3560 N.3    49  GLU49      -0.1245
     32  CA         3.3230  -74.2550    6.0450 C.3    49  GLU49       0.1567
     33  C          4.3760  -74.2180    7.1590 C.2    49  GLU49       0.2260
     34  O          5.5550  -74.1140    6.8880 O.2    49  GLU49      -0.2867
     35  CB         2.8170  -72.8450    5.7890 C.3    49  GLU49       0.0388
     36  CG         2.4200  -72.5560    4.3590 C.3    49  GLU49       0.1160
     37  CD         0.9750  -72.8570    4.0310 C.2    49  GLU49       0.3649
     38  OE1        0.2640  -73.3250    4.9490 O.co2  49  GLU49      -0.2457
     39  OE2        0.5900  -72.6130    2.8370 O.co2  49  GLU49      -0.2457
     40  N          2.5970  -69.3950    0.2300 N.3    72  THR72      -0.1218
     41  CA         1.7530  -68.5220   -0.5880 C.3    72  THR72       0.1862
     42  C          1.2810  -67.3170    0.1920 C.2    72  THR72       0.2287
     43  O          1.6270  -67.1420    1.3450 O.2    72  THR72      -0.2866
     44  CB         0.5700  -69.3050   -1.2120 C.3    72  THR72       0.1770
     45  OG1        0.0390  -68.5740   -2.3250 O.3    72  THR72      -0.2211
     46  CG2       -0.5140  -69.5870   -0.1900 C.3    72  THR72       0.0375
     47  N         -2.7270  -66.5830    4.3970 N.3    75  GLY75      -0.1210
     48  CA        -2.5530  -67.6930    5.3150 C.3    75  GLY75       0.1956
     49  C         -1.2150  -68.4140    5.1880 C.2    75  GLY75       0.2612
     50  O         -0.7000  -68.9750    6.1610 O.2    75  GLY75      -0.2717
     51  N         -0.6650  -68.4410    3.9810 N.am   76  GLY76      -0.1956
     52  CA         0.6080  -69.1040    3.7540 C.3    76  GLY76       0.1869
     53  C          1.6490  -68.4490    4.6200 C.2    76  GLY76       0.2309
     54  O          2.2920  -69.1110    5.4380 O.2    76  GLY76      -0.2863
     55  N          0.9670  -68.7010    8.5250 N.3    79  ASN79      -0.1240
     56  CA         1.3240  -70.0170    9.0280 C.3    79  ASN79       0.1653
     57  C          2.8330  -70.2650    9.1110 C.2    79  ASN79       0.2266
     58  O          3.2570  -71.2570    9.7110 O.2    79  ASN79      -0.2867
     59  CB         0.7040  -71.1260    8.1550 C.3    79  ASN79       0.1155
     60  CG        -0.7750  -71.3310    8.3940 C.2    79  ASN79       0.2627
     61  OD1       -1.3430  -70.8710    9.3780 O.2    79  ASN79      -0.2716
     62  ND2       -1.4100  -71.9960    7.4620 N.am   79  ASN79      -0.0877
     63  N         -6.7600  -63.4320   -0.2820 N.3   112  GLN112     -0.1245
     64  CA        -5.4700  -63.6370    0.3960 C.3   112  GLN112      0.1566
     65  C         -4.6100  -62.3770    0.5360 C.2   112  GLN112      0.2260
     66  O         -3.4460  -62.4330    0.9520 O.2   112  GLN112     -0.2867
     67  CB        -4.6730  -64.7710   -0.2550 C.3   112  GLN112      0.0367
     68  CG        -5.2920  -66.1500   -0.0660 C.3   112  GLN112      0.0905
     69  CD        -4.6950  -67.2190   -0.9900 C.2   112  GLN112      0.2608
     70  OE1       -3.5090  -67.5430   -0.9080 O.2   112  GLN112     -0.2717
     71  NE2       -5.5220  -67.7910   -1.8490 N.am  112  GLN112     -0.0878
@<TRIPOS>BOND
     1    26    25    2
     2    29    27    1
     3    27    24    1
     4    27    28    1
     5    30    28    1
     6    18    17   ar
     7    18    16   ar
     8    25    24    1
     9    24    23    1
    10    17    15   ar
    11    16    14   ar
    12    22    21    2
    13    23    21   am
    14    15    14   ar
    15    14    13    1
    16    21    20    1
    17    13    10    1
    18    20    19    1
    19    19    11   am
    20    10    11    1
    21    10     9    1
    22    11    12    2
    23    45    44    1
    24     9     3   am
    25    71    69   am
    26    44    41    1
    27    44    46    1
    28    69    70    2
    29    69    68    1
    30     3     4    2
    31     3     2    1
    32    41    42    1
    33    41    40    1
    34    63    64    1
    35    67    68    1
    36    67    64    1
    37    42    43    2
    38     2     1    1
    39     2     5    1
    40    64    65    1
    41    65    66    2
    42     8     6    1
    43     5     6    1
    44     6     7    1
    45    39    37   ar
    46    52    51    1
    47    52    53    1
    48    51    49   am
    49    37    36    1
    50    37    38   ar
    51    36    35    1
    52    47    48    1
    53    53    54    2
    54    49    48    1
    55    49    50    2
    56    35    32    1
    57    32    31    1
    58    32    33    1
    59    34    33    2
    60    62    60   am
    61    59    60    1
    62    59    56    1
    63    60    61    2
    64    55    56    1
    65    56    57    1
    66    57    58    2
