@<TRIPOS>MOLECULE
tmp/4qqdB00.pdb
 119 116 0 0 0
SMALL
GASTEIGER

@<TRIPOS>ATOM
      1  N          3.0060   31.8300    8.8060 N.3    12  ASP12      -0.1239
      2  CA         3.9310   31.9340    9.9100 C.3    12  ASP12       0.1674
      3  C          3.8380   30.6140   10.6160 C.2    12  ASP12       0.2266
      4  O          2.7440   30.0270   10.7420 O.2    12  ASP12      -0.2867
      5  CB         3.5490   33.0580   10.8440 C.3    12  ASP12       0.1410
      6  CG         3.7980   34.4440   10.2410 C.2    12  ASP12       0.3668
      7  OD1        4.7360   34.6050    9.4300 O.co2  12  ASP12      -0.2456
      8  OD2        3.0630   35.3940   10.6090 O.co2  12  ASP12      -0.2456
      9  N          7.6070   32.8000   16.2350 N.3    21  TRP21      -0.1227
     10  CA         6.9250   32.5750   14.9700 C.3    21  TRP21       0.1737
     11  C          7.8930   33.0140   13.8890 C.2    21  TRP21       0.2595
     12  O          8.5300   34.0550   14.0140 O.2    21  TRP21      -0.2718
     13  CB         5.6730   33.4340   14.8670 C.3    21  TRP21       0.0564
     14  CG         4.5650   32.9770   15.7120 C.ar   21  TRP21       0.0003
     15  CD1        4.2950   33.3800   16.9670 C.ar   21  TRP21       0.0946
     16  CD2        3.5690   31.9980   15.3760 C.ar   21  TRP21       0.0152
     17  NE1        3.1990   32.6900   17.4670 N.ar   21  TRP21      -0.2442
     18  CE2        2.7220   31.8570   16.4990 C.ar   21  TRP21       0.0810
     19  CE3        3.3180   31.2210   14.2460 C.ar   21  TRP21       0.0012
     20  CZ2        1.6400   30.9620   16.5210 C.ar   21  TRP21       0.0191
     21  CZ3        2.2420   30.3420   14.2590 C.ar   21  TRP21       0.0001
     22  CH2        1.4020   30.2250   15.3860 C.ar   21  TRP21       0.0015
     23  N          7.9960   32.2150   12.8270 N.am   22  PHE22      -0.1962
     24  CA         8.9100   32.4940   11.7330 C.3    22  PHE22       0.1771
     25  C          8.1740   32.3960   10.4130 C.2    22  PHE22       0.2619
     26  O          7.2340   31.6180   10.2520 O.2    22  PHE22      -0.2715
     27  CB        10.0610   31.4800   11.7630 C.3    22  PHE22       0.0574
     28  CG        10.9720   31.6410   12.9340 C.ar   22  PHE22      -0.0200
     29  CD1       12.0350   32.5660   12.8940 C.ar   22  PHE22      -0.0042
     30  CD2       10.7790   30.9030   14.0570 C.ar   22  PHE22      -0.0042
     31  CE1       12.8630   32.7450   13.9780 C.ar   22  PHE22      -0.0003
     32  CE2       11.6000   31.0430   15.1430 C.ar   22  PHE22      -0.0003
     33  CZ        12.6550   31.9750   15.1160 C.ar   22  PHE22      -0.0000
     34  N          8.5990   33.1780    9.4440 N.am   23  GLU23      -0.1977
     35  CA         7.9870   33.1150    8.1320 C.3    23  GLU23       0.1602
     36  C          8.3200   31.8020    7.4460 C.2    23  GLU23       0.2287
     37  O          9.4490   31.3510    7.4920 O.2    23  GLU23      -0.2864
     38  CB         8.4230   34.3100    7.2750 C.3    23  GLU23       0.0415
     39  CG         7.6400   35.5540    7.6640 C.3    23  GLU23       0.1163
     40  CD         7.9370   36.7430    6.8340 C.2    23  GLU23       0.3649
     41  OE1        9.0310   36.7990    6.2350 O.co2  23  GLU23      -0.2457
     42  OE2        7.0850   37.6620    6.8130 O.co2  23  GLU23      -0.2457
     43  N         13.7950   31.9070    5.8850 N.3    45  ASP45      -0.1239
     44  CA        15.1890   32.3040    6.1970 C.3    45  ASP45       0.1674
     45  C         16.0290   31.2120    6.9000 C.2    45  ASP45       0.2266
     46  O         17.0400   31.5110    7.5320 O.2    45  ASP45      -0.2867
     47  CB        15.1970   33.5680    7.0720 C.3    45  ASP45       0.1410
     48  CG        14.5750   34.7760    6.3840 C.2    45  ASP45       0.3668
     49  OD1       14.6930   34.9090    5.1460 O.co2  45  ASP45      -0.2456
     50  OD2       13.9790   35.6140    7.0960 O.co2  45  ASP45      -0.2456
     51  N         -0.3230   37.2500    9.3980 N.3    63  ALA63      -0.1231
     52  CA        -1.1400   38.4080    9.7690 C.3    63  ALA63       0.1694
     53  C         -0.2250   39.6080    9.9650 C.2    63  ALA63       0.2591
     54  O          0.6840   39.5590   10.7670 O.2    63  ALA63      -0.2718
     55  CB        -1.9290   38.1190   11.0220 C.3    63  ALA63       0.0304
     56  N         -0.4380   40.6360    9.1500 N.am   64  ARG64      -0.1980
     57  CA         0.4210   41.7750    9.1220 C.3    64  ARG64       0.1597
     58  C         -0.3240   43.0730    9.3410 C.2    64  ARG64       0.2287
     59  O          0.1080   44.1250    8.9120 O.2    64  ARG64      -0.2864
     60  CB         1.2030   41.7940    7.8140 C.3    64  ARG64       0.0334
     61  CG         2.1780   40.6140    7.6650 C.3    64  ARG64       0.0492
     62  CD         3.3160   40.6570    8.6820 C.3    64  ARG64       0.2205
     63  NE         4.2480   39.5450    8.4640 N.pl3  64  ARG64      -0.0865
     64  CZ         4.1480   38.3280    9.0000 C.cat  64  ARG64       0.5346
     65  NH1        3.1790   38.0260    9.8550 N.pl3  64  ARG64       0.1354
     66  NH2        5.0520   37.4070    8.6940 N.pl3  64  ARG64       0.1354
     67  N          0.7340   39.9240   18.5760 N.3    79  MET79      -0.1245
     68  CA         2.0260   39.4160   18.1080 C.3    79  MET79       0.1570
     69  C          3.0170   40.5630   18.1000 C.2    79  MET79       0.2261
     70  O          2.7360   41.5720   17.5360 O.2    79  MET79      -0.2867
     71  CB         1.8500   38.9120   16.7020 C.3    79  MET79       0.0387
     72  CG         3.1350   38.6880   15.9380 C.3    79  MET79       0.0595
     73  SD         3.6510   36.9970   15.9150 S.3    79  MET79      -0.1393
     74  CE         2.4270   36.3290   14.8060 C.3    79  MET79       0.0692
     75  N         16.5800   44.1200   19.0220 N.3    90  ARG90      -0.1245
     76  CA        15.6800   43.4080   18.1580 C.3    90  ARG90       0.1563
     77  C         15.7360   41.9260   18.4450 C.2    90  ARG90       0.2260
     78  O         16.7980   41.3680   18.7320 O.2    90  ARG90      -0.2867
     79  CB        16.0990   43.6580   16.7040 C.3    90  ARG90       0.0307
     80  CG        15.0840   43.2250   15.6650 C.3    90  ARG90       0.0489
     81  CD        13.9460   44.2170   15.6090 C.3    90  ARG90       0.2205
     82  NE        12.9990   43.9340   14.5570 N.pl3  90  ARG90      -0.0865
     83  CZ        11.9090   44.6670   14.3380 C.cat  90  ARG90       0.5346
     84  NH1       11.6370   45.6960   15.1220 N.pl3  90  ARG90       0.1354
     85  NH2       11.0810   44.3710   13.3440 N.pl3  90  ARG90       0.1354
     86  N          9.6200   37.0810   17.0050 N.3    93  TRP93      -0.1241
     87  CA         8.2290   37.3870   17.0880 C.3    93  TRP93       0.1605
     88  C          7.5070   36.4010   17.9950 C.2    93  TRP93       0.2264
     89  O          7.5880   35.1780   17.7800 O.2    93  TRP93      -0.2867
     90  CB         7.6540   37.3940   15.6790 C.3    93  TRP93       0.0550
     91  CG         8.2860   38.4750   14.8670 C.ar   93  TRP93       0.0003
     92  CD1        9.3510   38.3600   14.0480 C.ar   93  TRP93       0.0946
     93  CD2        7.8920   39.8650   14.8250 C.ar   93  TRP93       0.0152
     94  NE1        9.6470   39.5930   13.4580 N.ar   93  TRP93      -0.2442
     95  CE2        8.7540   40.5230   13.9120 C.ar   93  TRP93       0.0810
     96  CE3        6.8580   40.6060   15.4380 C.ar   93  TRP93       0.0012
     97  CZ2        8.6420   41.8900   13.6330 C.ar   93  TRP93       0.0191
     98  CZ3        6.7350   41.9400   15.1610 C.ar   93  TRP93       0.0001
     99  CH2        7.6180   42.5850   14.2670 C.ar   93  TRP93       0.0015
    100  N          5.0080   48.3060   16.2540 N.3   131  GLU131     -0.1245
    101  CA         5.0520   47.0600   15.4700 C.3   131  GLU131      0.1567
    102  C          4.3820   45.9490   16.2290 C.2   131  GLU131      0.2260
    103  O          4.9470   44.8410   16.3430 O.2   131  GLU131     -0.2867
    104  CB         6.4810   46.5850   15.1760 C.3   131  GLU131      0.0388
    105  CG         7.2900   47.3630   14.1850 C.3   131  GLU131      0.1160
    106  CD         8.5970   46.6190   13.8580 C.2   131  GLU131      0.3649
    107  OE1        8.6380   45.7300   12.9650 O.co2 131  GLU131     -0.2457
    108  OE2        9.6070   46.9210   14.5040 O.co2 131  GLU131     -0.2457
    109  N          1.1510   43.5390   16.2900 N.3   133  PHE133     -0.1241
    110  CA         0.3150   43.0120   15.2360 C.3   133  PHE133      0.1605
    111  C         -0.8740   42.2650   15.8130 C.2   133  PHE133      0.2264
    112  O         -0.7710   41.5820   16.8360 O.2   133  PHE133     -0.2867
    113  CB         1.1400   42.0550   14.3260 C.3   133  PHE133      0.0534
    114  CG         2.0890   42.7570   13.4130 C.ar  133  PHE133     -0.0203
    115  CD1        3.3790   43.0560   13.8210 C.ar  133  PHE133     -0.0042
    116  CD2        1.7020   43.1190   12.1330 C.ar  133  PHE133     -0.0042
    117  CE1        4.2410   43.7090   12.9780 C.ar  133  PHE133     -0.0003
    118  CE2        2.5780   43.7650   11.2860 C.ar  133  PHE133     -0.0003
    119  CZ         3.8440   44.0730   11.7120 C.ar  133  PHE133     -0.0000
@<TRIPOS>BOND
     1    49    48   ar
     2    43    44    1
     3    44    45    1
     4    44    47    1
     5    41    40   ar
     6    48    47    1
     7    48    50   ar
     8    42    40   ar
     9    40    39    1
    10    45    46    2
    11    38    39    1
    12    38    35    1
    13    36    37    2
    14    36    35    1
    15    61    60    1
    16    61    62    1
    17    60    57    1
    18    35    34    1
    19    63    62    1
    20    63    64    2
    21    66    64    1
    22     1     2    1
    23    59    58    2
    24    64    65    1
    25    57    56    1
    26    57    58    1
    27    56    53   am
    28    51    52    1
    29     7     6   ar
    30    34    25   am
    31    52    53    1
    32    52    55    1
    33     2     3    1
    34     2     5    1
    35    53    54    2
    36     6     8   ar
    37     6     5    1
    38    26    25    2
    39    25    24    1
    40     3     4    2
    41   118   119   ar
    42   118   116   ar
    43   119   117   ar
    44    24    27    1
    45    24    23    1
    46    27    28    1
    47   116   114   ar
    48    23    11   am
    49    29    28   ar
    50    29    31   ar
    51    28    30   ar
    52   107   106   ar
    53   117   115   ar
    54    85    83    1
    55   114   115   ar
    56   114   113    1
    57    94    95   ar
    58    94    92   ar
    59    97    95   ar
    60    97    99   ar
    61   106   105    1
    62   106   108   ar
    63    11    12    2
    64    11    10    1
    65    95    93   ar
    66    31    33   ar
    67    92    91   ar
    68    30    32   ar
    69   105   104    1
    70    19    21   ar
    71    19    16   ar
    72    21    22   ar
    73    99    98   ar
    74   113   110    1
    75    83    82    2
    76    83    84    1
    77    82    81    1
    78    74    73    1
    79    93    91   ar
    80    93    96   ar
    81    13    10    1
    82    13    14    1
    83    91    90    1
    84    10     9    1
    85    33    32   ar
    86    98    96   ar
    87   104   101    1
    88   110   111    1
    89   110   109    1
    90    16    14   ar
    91    16    18   ar
    92    22    20   ar
    93   101   102    1
    94   101   100    1
    95    81    80    1
    96    80    79    1
    97    90    87    1
    98    14    15   ar
    99   111   112    2
   100    73    72    1
   101    72    71    1
   102   102   103    2
   103    18    20   ar
   104    18    17   ar
   105    71    68    1
   106    79    76    1
   107    15    17   ar
   108    86    87    1
   109    87    88    1
   110    70    69    2
   111    89    88    2
   112    69    68    1
   113    68    67    1
   114    76    77    1
   115    76    75    1
   116    77    78    2
