@<TRIPOS>MOLECULE
tmp/4qqeA00.pdb
 179 172 0 0 0
SMALL
GASTEIGER

@<TRIPOS>ATOM
      1  N         -0.8720   27.4670    2.2890 N.3    17  ALA17      -0.1245
      2  CA        -1.6790   26.4530    1.6470 C.3    17  ALA17       0.1562
      3  C         -2.1250   26.8760    0.2590 C.2    17  ALA17       0.2260
      4  O         -2.5430   28.0140    0.0550 O.2    17  ALA17      -0.2867
      5  CB        -2.9050   26.1600    2.4840 C.3    17  ALA17       0.0290
      6  N         -5.0130   26.4780   -2.3540 N.3    19  SER19      -0.1202
      7  CA        -6.4250   26.1680   -2.2290 C.3    19  SER19       0.2020
      8  C         -7.0460   25.5910   -3.5100 C.2    19  SER19       0.2619
      9  O         -8.0180   24.8320   -3.4460 O.2    19  SER19      -0.2717
     10  CB        -7.2040   27.4280   -1.8230 C.3    19  SER19       0.2103
     11  OG        -7.0310   28.4680   -2.7610 O.3    19  SER19      -0.2182
     12  N         -6.5320   25.9800   -4.6760 N.am   20  SER20      -0.1951
     13  CA        -7.2040   25.6130   -5.9240 C.3    20  SER20       0.1924
     14  C         -6.2440   25.7240   -7.0960 C.2    20  SER20       0.2314
     15  O         -5.4140   26.6330   -7.1370 O.2    20  SER20      -0.2863
     16  CB        -8.4330   26.5020   -6.1470 C.3    20  SER20       0.2116
     17  OG        -9.2960   25.9930   -7.1630 O.3    20  SER20      -0.2180
     18  N         -3.9440   30.5910    0.3830 N.3    35  ALA35      -0.1245
     19  CA        -4.1150   31.3280    1.6330 C.3    35  ALA35       0.1562
     20  C         -3.1310   32.5010    1.7860 C.2    35  ALA35       0.2260
     21  O         -3.3450   33.3830    2.6090 O.2    35  ALA35      -0.2867
     22  CB        -3.9770   30.3750    2.8120 C.3    35  ALA35       0.0290
     23  N         -7.0080   35.4170    2.3760 N.3    59  GLY59      -0.1210
     24  CA        -6.7660   34.1950    1.6310 C.3    59  GLY59       0.1956
     25  C         -7.7850   33.9840    0.5370 C.2    59  GLY59       0.2612
     26  O         -8.9190   34.4880    0.6200 O.2    59  GLY59      -0.2717
     27  N         -7.3700   33.2420   -0.4850 N.am   60  ILE60      -0.1965
     28  CA        -8.2190   32.9370   -1.6390 C.3    60  ILE60       0.1727
     29  C         -8.5580   31.4510   -1.6260 C.2    60  ILE60       0.2617
     30  O         -7.6680   30.5990   -1.5120 O.2    60  ILE60      -0.2715
     31  CB        -7.5370   33.2730   -2.9680 C.3    60  ILE60       0.0290
     32  CG1       -7.1030   34.7350   -2.9800 C.3    60  ILE60       0.0022
     33  CG2       -8.4630   32.9590   -4.1400 C.3    60  ILE60       0.0023
     34  CD1       -6.2250   35.1290   -4.1470 C.3    60  ILE60       0.0001
     35  N         -9.8550   31.1590   -1.7480 N.am   61  SER61      -0.1936
     36  CA       -10.3520   29.7970   -1.7130 C.3    61  SER61       0.2055
     37  C        -10.4500   29.1540   -3.1160 C.2    61  SER61       0.2643
     38  O        -10.3410   27.9490   -3.2490 O.2    61  SER61      -0.2714
     39  CB       -11.7110   29.8160   -1.0040 C.3    61  SER61       0.2130
     40  OG       -12.2040   28.5370   -0.7890 O.3    61  SER61      -0.2179
     41  N        -10.6540   29.9520   -4.1690 N.am   62  ASP62      -0.1971
     42  CA       -10.9080   29.3590   -5.4980 C.3    62  ASP62       0.1709
     43  C        -10.5950   30.3710   -6.5990 C.2    62  ASP62       0.2293
     44  O        -10.5570   31.5680   -6.3450 O.2    62  ASP62      -0.2864
     45  CB       -12.3870   28.8970   -5.5640 C.3    62  ASP62       0.1436
     46  CG       -12.6820   27.8960   -6.6860 C.2    62  ASP62       0.3671
     47  OD1      -11.7500   27.3210   -7.3220 O.co2  62  ASP62      -0.2456
     48  OD2      -13.9090   27.6800   -6.9230 O.co2  62  ASP62      -0.2456
     49  N        -11.6300   34.9920    1.2370 N.3    77  ASP77      -0.1239
     50  CA       -12.0720   35.1860    2.6030 C.3    77  ASP77       0.1674
     51  C        -12.3810   36.6500    2.9000 C.2    77  ASP77       0.2266
     52  O        -13.0750   36.9340    3.8840 O.2    77  ASP77      -0.2867
     53  CB       -11.0280   34.6720    3.5870 C.3    77  ASP77       0.1410
     54  CG       -10.8310   33.1730    3.4980 C.2    77  ASP77       0.3668
     55  OD1      -11.7870   32.4650    3.1030 O.co2  77  ASP77      -0.2456
     56  OD2       -9.7350   32.7080    3.8660 O.co2  77  ASP77      -0.2456
     57  N        -17.1470   34.8560    3.9330 N.3   101  TYR101     -0.1241
     58  CA       -16.1610   34.2000    3.0650 C.3   101  TYR101      0.1605
     59  C        -16.8010   33.6780    1.7870 C.2   101  TYR101      0.2264
     60  O        -17.8770   33.0740    1.8280 O.2   101  TYR101     -0.2867
     61  CB       -15.4940   33.0070    3.7460 C.3   101  TYR101      0.0534
     62  CG       -15.1810   33.1850    5.2180 C.ar  101  TYR101     -0.0201
     63  CD1      -14.2290   34.1030    5.6440 C.ar  101  TYR101     -0.0009
     64  CD2      -15.8600   32.4400    6.1830 C.ar  101  TYR101     -0.0009
     65  CE1      -13.9630   34.2880    7.0020 C.ar  101  TYR101      0.0417
     66  CE2      -15.5960   32.5930    7.5390 C.ar  101  TYR101      0.0417
     67  CZ       -14.6470   33.5140    7.9480 C.ar  101  TYR101      0.1957
     68  OH       -14.4090   33.6530    9.2970 O.3   101  TYR101     -0.2866
     69  N        -16.3190   31.0010   -1.0400 N.3   103  PHE103     -0.1227
     70  CA       -15.5650   29.7470   -1.1660 C.3   103  PHE103      0.1736
     71  C        -15.3620   29.2220   -2.5860 C.2   103  PHE103      0.2595
     72  O        -14.4570   28.4300   -2.8250 O.2   103  PHE103     -0.2718
     73  CB       -16.2410   28.6460   -0.3570 C.3   103  PHE103      0.0547
     74  CG       -16.2120   28.8700    1.1360 C.ar  103  PHE103     -0.0202
     75  CD1      -15.0910   29.4020    1.7800 C.ar  103  PHE103     -0.0042
     76  CD2      -17.2770   28.4790    1.9100 C.ar  103  PHE103     -0.0042
     77  CE1      -15.0690   29.5710    3.1570 C.ar  103  PHE103     -0.0003
     78  CE2      -17.2520   28.6300    3.2820 C.ar  103  PHE103     -0.0003
     79  CZ       -16.1550   29.1690    3.9070 C.ar  103  PHE103     -0.0000
     80  N        -16.2140   29.5960   -3.5200 N.am  104  CYS104     -0.1970
     81  CA       -16.1990   28.9310   -4.8260 C.3   104  CYS104      0.1712
     82  C        -16.7330   29.8500   -5.9000 C.2   104  CYS104      0.2296
     83  O        -17.5290   30.7580   -5.6020 O.2   104  CYS104     -0.2864
     84  CB       -17.0110   27.6360   -4.7650 C.3   104  CYS104      0.0983
     85  SG       -18.6650   27.7640   -4.0250 S.3   104  CYS104     -0.0798
     86  N        -19.9420   31.0780    2.5760 N.3   119  PHE119     -0.1241
     87  CA       -20.2680   30.7740    3.9600 C.3   119  PHE119      0.1605
     88  C        -21.6160   31.3770    4.3160 C.2   119  PHE119      0.2264
     89  O        -22.3220   30.8210    5.1260 O.2   119  PHE119     -0.2867
     90  CB       -19.1770   31.3370    4.8810 C.3   119  PHE119      0.0534
     91  CG       -19.3290   30.9780    6.3350 C.ar  119  PHE119     -0.0203
     92  CD1      -18.7210   29.8530    6.8490 C.ar  119  PHE119     -0.0042
     93  CD2      -20.0110   31.8230    7.2040 C.ar  119  PHE119     -0.0042
     94  CE1      -18.8310   29.5250    8.1990 C.ar  119  PHE119     -0.0003
     95  CE2      -20.1220   31.5130    8.5600 C.ar  119  PHE119     -0.0003
     96  CZ       -19.5230   30.3700    9.0590 C.ar  119  PHE119     -0.0000
     97  N        -23.1160   26.6590    4.9150 N.3   143  PRO143     -0.2102
     98  CA       -22.1780   27.1060    3.8820 C.3   143  PRO143      0.1504
     99  C        -22.2110   26.3520    2.5330 C.2   143  PRO143      0.2576
    100  O        -22.3950   25.1350    2.4730 O.2   143  PRO143     -0.2718
    101  CB       -20.8240   26.9520    4.5660 C.3   143  PRO143      0.0282
    102  CG       -21.1280   27.2540    6.0100 C.3   143  PRO143      0.0208
    103  CD       -22.4810   26.6220    6.2520 C.3   143  PRO143      0.0893
    104  N        -22.0250   27.1060    1.4570 N.am  144  VAL144     -0.1966
    105  CA       -21.9770   26.5500    0.1020 C.3   144  VAL144      0.1727
    106  C        -20.5330   26.2390   -0.2860 C.2   144  VAL144      0.2616
    107  O        -19.6710   27.1220   -0.2750 O.2   144  VAL144     -0.2715
    108  CB       -22.6020   27.5240   -0.9340 C.3   144  VAL144      0.0290
    109  CG1      -22.5540   26.9190   -2.3410 C.3   144  VAL144      0.0023
    110  CG2      -24.0370   27.8260   -0.5440 C.3   144  VAL144      0.0023
    111  N        -20.2870   24.9910   -0.6600 N.am  145  SER145     -0.1950
    112  CA       -18.9430   24.4810   -0.8920 C.3   145  SER145      0.1924
    113  C        -18.5070   24.4990   -2.3690 C.2   145  SER145      0.2314
    114  O        -17.3180   24.5970   -2.6410 O.2   145  SER145     -0.2863
    115  CB       -18.8300   23.0560   -0.3540 C.3   145  SER145      0.2116
    116  OG       -19.8240   22.2100   -0.9200 O.3   145  SER145     -0.2180
    117  N        -22.8980   22.2260    3.0690 N.3   161  TYR161     -0.1241
    118  CA       -22.8590   21.5270    4.3480 C.3   161  TYR161      0.1605
    119  C        -24.2420   21.1470    4.8980 C.2   161  TYR161      0.2264
    120  O        -24.3210   20.3320    5.8120 O.2   161  TYR161     -0.2867
    121  CB       -22.0890   22.3520    5.3870 C.3   161  TYR161      0.0534
    122  CG       -20.5840   22.1080    5.3470 C.ar  161  TYR161     -0.0201
    123  CD1      -19.8420   22.3960    4.1900 C.ar  161  TYR161     -0.0009
    124  CD2      -19.9030   21.6100    6.4610 C.ar  161  TYR161     -0.0009
    125  CE1      -18.4810   22.1700    4.1450 C.ar  161  TYR161      0.0417
    126  CE2      -18.5340   21.3990    6.4310 C.ar  161  TYR161      0.0417
    127  CZ       -17.8200   21.6970    5.2700 C.ar  161  TYR161      0.1957
    128  OH       -16.4470   21.5020    5.1970 O.3   161  TYR161     -0.2866
    129  N        -12.0190   18.3860    4.8160 N.3   230  TYR230     -0.1227
    130  CA       -11.7730   19.4590    3.8590 C.3   230  TYR230      0.1736
    131  C        -12.6120   19.3240    2.6130 C.2   230  TYR230      0.2595
    132  O        -13.0460   18.2230    2.2360 O.2   230  TYR230     -0.2718
    133  CB       -10.2920   19.5050    3.4840 C.3   230  TYR230      0.0548
    134  CG        -9.4470   19.9260    4.6390 C.ar  230  TYR230     -0.0200
    135  CD1       -9.3510   21.2640    4.9950 C.ar  230  TYR230     -0.0009
    136  CD2       -8.7750   18.9830    5.4210 C.ar  230  TYR230     -0.0009
    137  CE1       -8.5900   21.6630    6.0740 C.ar  230  TYR230      0.0417
    138  CE2       -8.0200   19.3790    6.5050 C.ar  230  TYR230      0.0417
    139  CZ        -7.9340   20.7180    6.8200 C.ar  230  TYR230      0.1957
    140  OH        -7.1800   21.1240    7.8890 O.3   230  TYR230     -0.2866
    141  N        -12.8420   20.4540    1.9580 N.am  231  CYS231     -0.1970
    142  CA       -13.6540   20.4320    0.7590 C.3   231  CYS231      0.1712
    143  C        -12.6930   20.2330   -0.4020 C.2   231  CYS231      0.2296
    144  O        -12.0270   21.1630   -0.8520 O.2   231  CYS231     -0.2864
    145  CB       -14.4840   21.7010    0.6240 C.3   231  CYS231      0.0983
    146  SG       -15.8590   21.7590    1.7780 S.3   231  CYS231     -0.0798
    147  N        -11.6290   19.0340   -4.1540 N.3   233  PHE233     -0.1241
    148  CA       -12.1520   19.1450   -5.4960 C.3   233  PHE233      0.1605
    149  C        -11.8470   17.8420   -6.2260 C.2   233  PHE233      0.2264
    150  O        -10.7370   17.3170   -6.1080 O.2   233  PHE233     -0.2867
    151  CB       -11.4610   20.3050   -6.2040 C.3   233  PHE233      0.0534
    152  CG       -12.2750   20.9500   -7.2890 C.ar  233  PHE233     -0.0203
    153  CD1      -12.1850   20.5050   -8.5940 C.ar  233  PHE233     -0.0042
    154  CD2      -13.0690   22.0560   -7.0090 C.ar  233  PHE233     -0.0042
    155  CE1      -12.9100   21.1200   -9.6060 C.ar  233  PHE233     -0.0003
    156  CE2      -13.7860   22.6910   -8.0190 C.ar  233  PHE233     -0.0003
    157  CZ       -13.7070   22.2150   -9.3210 C.ar  233  PHE233     -0.0000
    158  N         -5.9430   19.1520   -1.6160 N.3   275  ILE275     -0.1231
    159  CA        -7.2690   19.7230   -1.5650 C.3   275  ILE275      0.1692
    160  C         -7.8550   20.0000   -2.9520 C.2   275  ILE275      0.2592
    161  O         -9.0850   20.1000   -3.1180 O.2   275  ILE275     -0.2718
    162  CB        -7.3050   20.9770   -0.6840 C.3   275  ILE275      0.0266
    163  CG1       -8.7650   21.3020   -0.3400 C.3   275  ILE275      0.0019
    164  CG2       -6.5860   22.1190   -1.3930 C.3   275  ILE275      0.0020
    165  CD1       -8.9690   22.1110    0.9210 C.3   275  ILE275      0.0001
    166  N         -6.9990   20.0870   -3.9600 N.am  276  SER276     -0.1952
    167  CA        -7.4730   20.3880   -5.2980 C.3   276  SER276      0.1924
    168  C         -6.7390   19.5440   -6.3200 C.2   276  SER276      0.2314
    169  O         -5.5380   19.3290   -6.1950 O.2   276  SER276     -0.2863
    170  CB        -7.2430   21.8700   -5.5930 C.3   276  SER276      0.2116
    171  OG        -7.6160   22.2310   -6.9000 O.3   276  SER276     -0.2180
    172  N         -2.0070   21.4700    1.0790 N.3   291  LEU291     -0.1245
    173  CA        -2.2100   22.4610    2.1150 C.3   291  LEU291      0.1561
    174  C         -0.9020   22.9020    2.8130 C.2   291  LEU291      0.2260
    175  O          0.1980   22.6680    2.2980 O.2   291  LEU291     -0.2867
    176  CB        -3.2740   21.9450    3.1070 C.3   291  LEU291      0.0270
    177  CG        -4.6920   21.7260    2.5650 C.3   291  LEU291      0.0019
    178  CD1       -5.6350   21.3480    3.6960 C.3   291  LEU291      0.0001
    179  CD2       -5.1860   22.9820    1.8730 C.3   291  LEU291      0.0001
@<TRIPOS>BOND
     1   155   157   ar
     2   155   153   ar
     3   157   156   ar
     4   153   152   ar
     5   156   154   ar
     6    47    46   ar
     7   152   154   ar
     8   152   151    1
     9    17    16    1
    10    15    14    2
    11    14    13    1
    12    48    46   ar
    13   171   170    1
    14    46    45    1
    15    43    44    2
    16    43    42    1
    17   168   169    2
    18   168   167    1
    19   149   150    2
    20   149   148    1
    21   151   148    1
    22    16    13    1
    23    13    12    1
    24    82    83    2
    25    82    81    1
    26   170   167    1
    27    45    42    1
    28    42    41    1
    29   148   147    1
    30   167   166    1
    31    81    84    1
    32    81    80    1
    33    84    85    1
    34    12     8   am
    35    41    37   am
    36    34    32    1
    37    33    31    1
    38   166   160   am
    39    80    71   am
    40     8     9    2
    41     8     7    1
    42    38    37    2
    43   161   160    2
    44    37    36    1
    45    32    31    1
    46    31    28    1
    47   160   159    1
    48    72    71    2
    49    11    10    1
    50   114   113    2
    51    71    70    1
    52   113   112    1
    53     6     7    1
    54   109   108    1
    55     7    10    1
    56    35    36    1
    57    35    29   am
    58    36    39    1
    59    28    29    1
    60    28    27    1
    61    29    30    2
    62   158   159    1
    63   159   162    1
    64   164   162    1
    65    70    69    1
    66    70    73    1
    67    39    40    1
    68   108   110    1
    69   108   105    1
    70   116   115    1
    71   112   111    1
    72   112   115    1
    73   144   143    2
    74   162   163    1
    75   111   106   am
    76    27    25   am
    77   143   142    1
    78    73    74    1
    79   163   165    1
    80   106   107    2
    81   106   105    1
    82     4     3    2
    83   105   104    1
    84     3     2    1
    85    18    19    1
    86    25    26    2
    87    25    24    1
    88   145   142    1
    89   145   146    1
    90   142   141    1
    91   172   173    1
    92    74    75   ar
    93    74    76   ar
    94    49    50    1
    95   104    99   am
    96    24    23    1
    97    19    20    1
    98    19    22    1
    99     2     1    1
   100     2     5    1
   101    75    77   ar
   102    20    21    2
   103    59    60    2
   104    59    58    1
   105   179   177    1
   106    76    78   ar
   107   141   131   am
   108   173   174    1
   109   173   176    1
   110   132   131    2
   111   175   174    2
   112   100    99    2
   113    99    98    1
   114   177   176    1
   115   177   178    1
   116    86    87    1
   117    50    51    1
   118    50    53    1
   119   131   130    1
   120    51    52    2
   121    58    61    1
   122    58    57    1
   123   117   118    1
   124    55    54   ar
   125    77    79   ar
   126    78    79   ar
   127   133   130    1
   128   133   134    1
   129    54    53    1
   130    54    56   ar
   131    61    62    1
   132   130   129    1
   133    98   101    1
   134    98    97    1
   135    87    88    1
   136    87    90    1
   137   125   123   ar
   138   125   127   ar
   139   123   122   ar
   140    88    89    2
   141   118   119    1
   142   118   121    1
   143   101   102    1
   144   134   135   ar
   145   134   136   ar
   146    90    91    1
   147   119   120    2
   148    97   103    1
   149   135   137   ar
   150   128   127    1
   151    62    63   ar
   152    62    64   ar
   153   127   126   ar
   154   122   121    1
   155   122   124   ar
   156   136   138   ar
   157    63    65   ar
   158   102   103    1
   159   137   139   ar
   160    64    66   ar
   161    91    92   ar
   162    91    93   ar
   163   126   124   ar
   164   138   139   ar
   165   139   140    1
   166    92    94   ar
   167    65    67   ar
   168    93    95   ar
   169    66    67   ar
   170    67    68    1
   171    94    96   ar
   172    95    96   ar
