@<TRIPOS>MOLECULE
tmp/4qqnA00.pdb
 96 87 0 0 0
SMALL
GASTEIGER

@<TRIPOS>ATOM
      1  N          4.7370   -3.7900   21.5890 N.3   144  VAL144     -0.1245
      2  CA         4.8550   -4.7420   22.7050 C.3   144  VAL144      0.1561
      3  C          4.2230   -6.0750   22.3180 C.2   144  VAL144      0.2260
      4  O          3.2100   -6.0900   21.6280 O.2   144  VAL144     -0.2867
      5  CB         4.1360   -4.2300   23.9860 C.3   144  VAL144      0.0252
      6  CG1        4.3670   -5.1560   25.1640 C.3   144  VAL144      0.0019
      7  CG2        4.6060   -2.8360   24.3590 C.3   144  VAL144      0.0019
      8  N          2.9350   -9.3400   24.4450 N.3   146  ASP146     -0.1239
      9  CA         2.7290  -10.0190   25.7250 C.3   146  ASP146      0.1674
     10  C          1.3880  -10.7460   25.6930 C.2   146  ASP146      0.2266
     11  O          0.3710  -10.2410   26.1720 O.2   146  ASP146     -0.2867
     12  CB         2.8210   -9.0240   26.8800 C.3   146  ASP146      0.1410
     13  CG         3.1470   -9.6940   28.2090 C.2   146  ASP146      0.3668
     14  OD1        2.6810  -10.8310   28.4390 O.co2 146  ASP146     -0.2456
     15  OD2        3.8510   -9.0580   29.0290 O.co2 146  ASP146     -0.2456
     16  N         -0.2360  -11.4150   29.2380 N.3   149  LYS149     -0.1231
     17  CA        -0.9260  -10.2580   29.7940 C.3   149  LYS149      0.1693
     18  C         -2.1670   -9.9020   29.0030 C.2   149  LYS149      0.2592
     19  O         -3.1700   -9.4770   29.5740 O.2   149  LYS149     -0.2718
     20  CB         0.0050   -9.0630   29.9240 C.3   149  LYS149      0.0285
     21  CG         0.9750   -9.2400   31.0740 C.3   149  LYS149      0.0035
     22  CD         1.7840   -7.9780   31.2900 C.3   149  LYS149      0.0206
     23  CE         2.8750   -8.2150   32.3070 C.3   149  LYS149      0.1093
     24  NZ         2.2470   -8.5200   33.6170 N.3   149  LYS149     -0.1314
     25  N         -2.1310  -10.0810   27.6930 N.am  150  HIS150     -0.1976
     26  CA        -3.3300   -9.8290   26.9090 C.3   150  HIS150      0.1656
     27  C         -4.4770  -10.7630   27.3400 C.2   150  HIS150      0.2291
     28  O         -5.6180  -10.3300   27.5360 O.2   150  HIS150     -0.2864
     29  CB        -3.0610   -9.9830   25.4120 C.3   150  HIS150      0.0771
     30  CG        -4.1170   -9.3570   24.5720 C.ar  150  HIS150      0.0820
     31  ND1       -5.2740  -10.0170   24.2290 N.ar  150  HIS150     -0.2267
     32  CD2       -4.2170   -8.1140   24.0420 C.ar  150  HIS150      0.1154
     33  CE1       -6.0380   -9.2130   23.5110 C.ar  150  HIS150      0.1986
     34  NE2       -5.4230   -8.0490   23.3920 N.ar  150  HIS150     -0.2212
     35  N         -6.0830   -9.6670   30.6180 N.3   153  ARG153     -0.1245
     36  CA        -7.0000   -8.5160   30.5660 C.3   153  ARG153      0.1563
     37  C         -8.2280   -8.7370   29.7050 C.2   153  ARG153      0.2260
     38  O         -9.2560   -8.0690   29.9100 O.2   153  ARG153     -0.2867
     39  CB        -6.2720   -7.2780   30.0360 C.3   153  ARG153      0.0307
     40  CG        -5.0180   -6.8800   30.8020 C.3   153  ARG153      0.0489
     41  CD        -5.2720   -6.6140   32.2930 C.3   153  ARG153      0.2205
     42  NE        -6.5390   -5.9360   32.5550 N.pl3 153  ARG153     -0.0865
     43  CZ        -6.8030   -4.6680   32.2920 C.cat 153  ARG153      0.5346
     44  NH1       -5.8980   -3.8700   31.7110 N.pl3 153  ARG153      0.1354
     45  NH2       -7.9930   -4.1870   32.5970 N.pl3 153  ARG153      0.1354
     46  N         -3.2730    1.9530   30.3320 N.3   177  VAL177     -0.1245
     47  CA        -2.7190    1.4250   31.5680 C.3   177  VAL177      0.1561
     48  C         -1.3880    2.0900   31.8560 C.2   177  VAL177      0.2260
     49  O         -0.5750    2.2500   30.9630 O.2   177  VAL177     -0.2867
     50  CB        -2.5070   -0.0870   31.4490 C.3   177  VAL177      0.0252
     51  CG1       -1.6610   -0.6100   32.6000 C.3   177  VAL177      0.0019
     52  CG2       -3.8670   -0.7890   31.4020 C.3   177  VAL177      0.0019
     53  N          1.9510    1.4800   33.8480 N.3   179  GLU179     -0.1245
     54  CA         2.6150    0.3490   34.4680 C.3   179  GLU179      0.1567
     55  C          4.0110    0.2080   33.8980 C.2   179  GLU179      0.2260
     56  O          4.2680    0.5960   32.7440 O.2   179  GLU179     -0.2867
     57  CB         1.7970   -0.9260   34.1830 C.3   179  GLU179      0.0388
     58  CG         2.3230   -2.1940   34.8330 C.3   179  GLU179      0.1160
     59  CD         1.4010   -3.3760   34.5860 C.2   179  GLU179      0.3649
     60  OE1        1.7350   -4.2350   33.7470 O.co2 179  GLU179     -0.2457
     61  OE2        0.3170   -3.4210   35.2050 O.co2 179  GLU179     -0.2457
     62  N          6.8750   -1.7310   32.2160 N.3   181  LEU181     -0.1245
     63  CA         6.9470   -2.8640   31.2900 C.3   181  LEU181      0.1561
     64  C          8.2390   -3.6730   31.4160 C.2   181  LEU181      0.2260
     65  O          9.3230   -3.1290   31.5930 O.2   181  LEU181     -0.2867
     66  CB         6.8280   -2.3800   29.8440 C.3   181  LEU181      0.0270
     67  CG         5.4810   -1.8120   29.4110 C.3   181  LEU181      0.0019
     68  CD1        5.6130   -1.0880   28.0780 C.3   181  LEU181      0.0001
     69  CD2        4.4290   -2.8960   29.3010 C.3   181  LEU181      0.0001
     70  N          0.5480   -7.1800   20.8450 N.3   223  THR223     -0.1203
     71  CA        -0.6180   -7.1280   21.7270 C.3   223  THR223      0.1994
     72  C         -0.9360   -5.7380   22.3040 C.2   223  THR223      0.2617
     73  O         -2.0190   -5.5370   22.8610 O.2   223  THR223     -0.2717
     74  CB        -0.4230   -8.0960   22.9040 C.3   223  THR223      0.1784
     75  OG1        0.7830   -7.7660   23.6110 O.3   223  THR223     -0.2211
     76  CG2       -0.3260   -9.5200   22.4030 C.3   223  THR223      0.0376
     77  N          0.0080   -4.7970   22.1880 N.am  224  ALA224     -0.1979
     78  CA        -0.1560   -3.4400   22.7210 C.3   224  ALA224      0.1597
     79  C          0.8670   -2.5000   22.1000 C.2   224  ALA224      0.2287
     80  O          1.8710   -2.9390   21.5620 O.2   224  ALA224     -0.2864
     81  CB         0.0180   -3.4420   24.2360 C.3   224  ALA224      0.0319
     82  N          0.3950    2.1980   28.4730 N.3   258  VAL258     -0.1245
     83  CA         0.1580    1.0440   27.6240 C.3   258  VAL258      0.1561
     84  C         -1.2430    1.1410   27.0160 C.2   258  VAL258      0.2260
     85  O         -2.2240    1.3710   27.7210 O.2   258  VAL258     -0.2867
     86  CB         0.3200   -0.2590   28.4200 C.3   258  VAL258      0.0252
     87  CG1        0.2450   -1.4620   27.4970 C.3   258  VAL258      0.0019
     88  CG2        1.6590   -0.2590   29.1640 C.3   258  VAL258      0.0019
     89  N         -3.7350   -1.0930   24.9950 N.3   260  LEU260     -0.1245
     90  CA        -3.9910   -2.4760   24.6170 C.3   260  LEU260      0.1561
     91  C         -4.6270   -2.5580   23.2340 C.2   260  LEU260      0.2260
     92  O         -5.5200   -1.7880   22.9250 O.2   260  LEU260     -0.2867
     93  CB        -4.9330   -3.1520   25.6180 C.3   260  LEU260      0.0270
     94  CG        -4.2720   -3.7480   26.8540 C.3   260  LEU260      0.0019
     95  CD1       -3.5820   -2.6860   27.6980 C.3   260  LEU260      0.0001
     96  CD2       -5.3310   -4.4900   27.6600 C.3   260  LEU260      0.0001
@<TRIPOS>BOND
     1    70    71    1
     2    80    79    2
     3     1     2    1
     4     4     3    2
     5    71    72    1
     6    71    74    1
     7    79    78    1
     8    77    72   am
     9    77    78    1
    10    72    73    2
    11     3     2    1
    12    76    74    1
    13     2     5    1
    14    78    81    1
    15    74    75    1
    16    92    91    2
    17    91    90    1
    18    34    33   ar
    19    34    32   ar
    20    33    31   ar
    21     5     7    1
    22     5     6    1
    23    32    30   ar
    24    31    30   ar
    25     8     9    1
    26    30    29    1
    27    90    89    1
    28    90    93    1
    29    29    26    1
    30    93    94    1
    31    10     9    1
    32    10    11    2
    33     9    12    1
    34    94    96    1
    35    94    95    1
    36    12    13    1
    37    26    27    1
    38    26    25    1
    39    84    83    1
    40    84    85    2
    41    27    28    2
    42    87    86    1
    43    83    86    1
    44    83    82    1
    45    25    18   am
    46    68    67    1
    47    13    14   ar
    48    13    15   ar
    49    86    88    1
    50    18    19    2
    51    18    17    1
    52    16    17    1
    53    69    67    1
    54    67    66    1
    55    37    38    2
    56    37    36    1
    57    17    20    1
    58    66    63    1
    59    20    21    1
    60    39    36    1
    61    39    40    1
    62    46    47    1
    63    36    35    1
    64    40    41    1
    65    49    48    2
    66    21    22    1
    67    63    64    1
    68    63    62    1
    69    22    23    1
    70    52    50    1
    71    64    65    2
    72    50    47    1
    73    50    51    1
    74    47    48    1
    75    44    43    1
    76    43    42    2
    77    43    45    1
    78    41    42    1
    79    23    24    1
    80    56    55    2
    81    60    59   ar
    82    53    54    1
    83    55    54    1
    84    57    54    1
    85    57    58    1
    86    59    58    1
    87    59    61   ar
