@<TRIPOS>MOLECULE
tmp/4qqsB00.pdb
 87 81 0 0 0
SMALL
GASTEIGER

@<TRIPOS>ATOM
      1  N         -7.5690  -15.7420   31.3720 N.3    15  ASP15      -0.1239
      2  CA        -8.7670  -16.4580   30.9420 C.3    15  ASP15       0.1674
      3  C         -8.7750  -17.9680   31.2470 C.2    15  ASP15       0.2266
      4  O         -8.8460  -18.7940   30.3290 O.2    15  ASP15      -0.2867
      5  CB        -8.9100  -16.2100   29.4390 C.3    15  ASP15       0.1410
      6  CG        -8.6790  -14.7540   29.0760 C.2    15  ASP15       0.3668
      7  OD1       -7.8490  -14.4760   28.1760 O.co2  15  ASP15      -0.2456
      8  OD2       -9.3160  -13.8860   29.7060 O.co2  15  ASP15      -0.2456
      9  N         -5.1900  -18.6310   28.1960 N.3    30  THR30      -0.1218
     10  CA        -4.3220  -17.7600   27.4260 C.3    30  THR30       0.1862
     11  C         -2.9330  -17.8760   28.0320 C.2    30  THR30       0.2287
     12  O         -2.7620  -17.7380   29.2470 O.2    30  THR30      -0.2866
     13  CB        -4.8130  -16.3100   27.4760 C.3    30  THR30       0.1770
     14  OG1       -6.1720  -16.2750   27.0160 O.3    30  THR30      -0.2211
     15  CG2       -3.9520  -15.4170   26.6170 C.3    30  THR30       0.0375
     16  N         -6.1160  -16.5360   22.1850 N.3    70  TRP70      -0.1241
     17  CA        -6.7550  -16.1920   23.4530 C.3    70  TRP70       0.1605
     18  C         -7.9160  -17.1080   23.8300 C.2    70  TRP70       0.2264
     19  O         -8.6730  -17.5710   22.9700 O.2    70  TRP70      -0.2867
     20  CB        -7.3280  -14.7640   23.4490 C.3    70  TRP70       0.0550
     21  CG        -6.3820  -13.6560   23.1270 C.ar   70  TRP70       0.0003
     22  CD1       -5.0250  -13.6610   23.2140 C.ar   70  TRP70       0.0946
     23  CD2       -6.7480  -12.3590   22.6450 C.ar   70  TRP70       0.0152
     24  NE1       -4.5210  -12.4480   22.7980 N.ar   70  TRP70      -0.2442
     25  CE2       -5.5610  -11.6390   22.4410 C.ar   70  TRP70       0.0810
     26  CE3       -7.9640  -11.7430   22.3620 C.ar   70  TRP70       0.0012
     27  CZ2       -5.5520  -10.3280   21.9570 C.ar   70  TRP70       0.0191
     28  CZ3       -7.9550  -10.4430   21.8770 C.ar   70  TRP70       0.0001
     29  CH2       -6.7590   -9.7540   21.6830 C.ar   70  TRP70       0.0015
     30  N        -14.2310  -12.8330   19.9150 N.3   123  ILE123     -0.1245
     31  CA       -13.4450  -13.5810   20.8920 C.3   123  ILE123      0.1561
     32  C        -14.3560  -14.2460   21.9200 C.2   123  ILE123      0.2260
     33  O        -15.5650  -14.0420   21.9150 O.2   123  ILE123     -0.2867
     34  CB       -12.4160  -12.6740   21.6330 C.3   123  ILE123      0.0252
     35  CG1      -13.1090  -11.6650   22.5620 C.3   123  ILE123      0.0019
     36  CG2      -11.4870  -11.9930   20.6250 C.3   123  ILE123      0.0019
     37  CD1      -12.1340  -11.0010   23.5240 C.3   123  ILE123      0.0001
     38  N        -16.0160   -7.9560   19.5600 N.3   142  ASP142     -0.1239
     39  CA       -14.9680   -7.2890   20.3160 C.3   142  ASP142      0.1674
     40  C        -14.8750   -5.7810   20.0710 C.2   142  ASP142      0.2266
     41  O        -14.9480   -5.3120   18.9300 O.2   142  ASP142     -0.2867
     42  CB       -13.6140   -7.9190   19.9830 C.3   142  ASP142      0.1410
     43  CG       -12.5010   -7.4110   20.8650 C.2   142  ASP142      0.3668
     44  OD1      -12.4760   -7.8170   22.0430 O.co2 142  ASP142     -0.2456
     45  OD2      -11.6410   -6.6470   20.3800 O.co2 142  ASP142     -0.2456
     46  N        -17.7530   -9.2660   28.5550 N.3   193  GLU193     -0.1245
     47  CA       -17.0010  -10.3140   27.8810 C.3   193  GLU193      0.1567
     48  C        -16.9150  -11.5540   28.7760 C.2   193  GLU193      0.2260
     49  O        -17.4980  -11.5990   29.8720 O.2   193  GLU193     -0.2867
     50  CB       -15.6330   -9.8030   27.4230 C.3   193  GLU193      0.0388
     51  CG       -14.7350   -9.4010   28.5590 C.3   193  GLU193      0.1160
     52  CD       -13.4310   -8.7460   28.1000 C.2   193  GLU193      0.3649
     53  OE1      -13.2630   -8.4300   26.9080 O.co2 193  GLU193     -0.2457
     54  OE2      -12.5490   -8.5300   28.9430 O.co2 193  GLU193     -0.2457
     55  N        -12.2510   -2.8250   32.2840 N.3   212  CYS212     -0.1221
     56  CA       -11.0420   -3.1450   31.5450 C.3   212  CYS212      0.1808
     57  C        -10.2510   -4.2800   32.2100 C.2   212  CYS212      0.2601
     58  O        -10.0240   -4.2470   33.4170 O.2   212  CYS212     -0.2717
     59  CB       -10.1790   -1.8940   31.4390 C.3   212  CYS212      0.0970
     60  SG        -8.6530   -2.1260   30.5120 S.3   212  CYS212     -0.0800
     61  N         -9.7810   -5.2450   31.4210 N.am  213  TYR213     -0.1976
     62  CA        -8.9980   -6.3580   31.9530 C.3   213  TYR213      0.1639
     63  C         -7.7840   -5.8990   32.7460 C.2   213  TYR213      0.2290
     64  O         -7.3420   -6.6320   33.6100 O.2   213  TYR213     -0.2864
     65  CB        -8.5160   -7.2850   30.8280 C.3   213  TYR213      0.0560
     66  CG        -7.2450   -6.7910   30.1740 C.ar  213  TYR213     -0.0198
     67  CD1       -6.0090   -7.3280   30.5140 C.ar  213  TYR213     -0.0009
     68  CD2       -7.2770   -5.7420   29.2600 C.ar  213  TYR213     -0.0009
     69  CE1       -4.8380   -6.8450   29.9490 C.ar  213  TYR213      0.0417
     70  CE2       -6.1190   -5.2650   28.6890 C.ar  213  TYR213      0.0417
     71  CZ        -4.9030   -5.8160   29.0330 C.ar  213  TYR213      0.1957
     72  OH        -3.7580   -5.3190   28.4470 O.3   213  TYR213     -0.2866
     73  N         -1.6010   -7.9250   31.7740 N.3   281  GLY281     -0.1225
     74  CA        -1.9280   -9.2440   31.2770 C.3   281  GLY281      0.1811
     75  C         -1.3940  -10.4050   32.0890 C.2   281  GLY281      0.2280
     76  O         -1.8980  -11.5180   31.9800 O.2   281  GLY281     -0.2866
     77  N         -1.5060  -12.6490   34.7890 N.3   283  ARG283     -0.1245
     78  CA        -2.5330  -13.0040   35.7550 C.3   283  ARG283      0.1563
     79  C         -2.3330  -14.4270   36.2710 C.2   283  ARG283      0.2260
     80  O         -1.5250  -15.2020   35.7450 O.2   283  ARG283     -0.2867
     81  CB        -3.9280  -12.7630   35.1580 C.3   283  ARG283      0.0307
     82  CG        -4.1620  -11.2730   34.8900 C.3   283  ARG283      0.0489
     83  CD        -5.2390  -10.9900   33.8920 C.3   283  ARG283      0.2205
     84  NE        -4.8560  -11.4070   32.5540 N.pl3 283  ARG283     -0.0865
     85  CZ        -5.6430  -11.2640   31.4940 C.cat 283  ARG283      0.5346
     86  NH1       -6.8420  -10.7010   31.6290 N.pl3 283  ARG283      0.1354
     87  NH2       -5.2430  -11.6800   30.3060 N.pl3 283  ARG283      0.1354
@<TRIPOS>BOND
     1    41    40    2
     2    38    39    1
     3    30    31    1
     4    42    39    1
     5    42    43    1
     6    40    39    1
     7    45    43   ar
     8    36    34    1
     9    43    44   ar
    10    31    34    1
    11    31    32    1
    12    34    35    1
    13    29    28   ar
    14    29    27   ar
    15    28    26   ar
    16    33    32    2
    17    27    25   ar
    18    16    17    1
    19    26    23   ar
    20    25    23   ar
    21    25    24   ar
    22    35    37    1
    23    23    21   ar
    24    24    22   ar
    25    19    18    2
    26    21    22   ar
    27    21    20    1
    28    20    17    1
    29    17    18    1
    30    15    13    1
    31    53    52   ar
    32    14    13    1
    33    50    47    1
    34    50    51    1
    35    10    13    1
    36    10    11    1
    37    10     9    1
    38    47    46    1
    39    47    48    1
    40    11    12    2
    41    52    51    1
    42    52    54   ar
    43     7     6   ar
    44    72    71    1
    45    70    71   ar
    46    70    68   ar
    47    48    49    2
    48    71    69   ar
    49     6     5    1
    50     6     8   ar
    51    68    66   ar
    52     5     2    1
    53    69    67   ar
    54    66    67   ar
    55    66    65    1
    56    87    85    1
    57     4     3    2
    58    60    59    1
    59    65    62    1
    60     2     3    1
    61     2     1    1
    62    74    73    1
    63    74    75    1
    64    61    62    1
    65    61    57   am
    66    59    56    1
    67    85    86    1
    68    85    84    2
    69    56    57    1
    70    56    55    1
    71    62    63    1
    72    76    75    2
    73    57    58    2
    74    84    83    1
    75    63    64    2
    76    83    82    1
    77    77    78    1
    78    82    81    1
    79    81    78    1
    80    80    79    2
    81    78    79    1
