@<TRIPOS>MOLECULE
tmp/4qqsA00.pdb
 138 133 0 0 0
SMALL
GASTEIGER

@<TRIPOS>ATOM
      1  N          8.2880   12.4710   19.0060 N.3    14  ASP14      -0.1239
      2  CA         7.8140   13.3000   17.9120 C.3    14  ASP14       0.1674
      3  C          8.6750   13.1110   16.6540 C.2    14  ASP14       0.2266
      4  O          9.2690   14.0500   16.1320 O.2    14  ASP14      -0.2867
      5  CB         7.7510   14.7650   18.3520 C.3    14  ASP14       0.1410
      6  CG         7.1180   14.9370   19.7300 C.2    14  ASP14       0.3668
      7  OD1        7.6560   15.7440   20.5290 O.co2  14  ASP14      -0.2456
      8  OD2        6.1030   14.2730   20.0090 O.co2  14  ASP14      -0.2456
      9  N         12.8460   23.5990   26.3790 N.3    67  ASP67      -0.1239
     10  CA        11.6250   23.0240   25.8110 C.3    67  ASP67       0.1674
     11  C         11.6140   23.0870   24.2750 C.2    67  ASP67       0.2266
     12  O         10.6230   23.4680   23.6490 O.2    67  ASP67      -0.2867
     13  CB        10.3770   23.6900   26.4040 C.3    67  ASP67       0.1410
     14  CG        10.2230   23.4260   27.9020 C.2    67  ASP67       0.3668
     15  OD1       10.4880   22.2820   28.3460 O.co2  67  ASP67      -0.2456
     16  OD2        9.8250   24.3580   28.6350 O.co2  67  ASP67      -0.2456
     17  N         10.9880   21.4420   21.1060 N.3    69  TRP69      -0.1227
     18  CA        10.1180   20.3250   20.7550 C.3    69  TRP69       0.1737
     19  C          9.7540   20.2800   19.2820 C.2    69  TRP69       0.2595
     20  O          9.5670   21.3120   18.6260 O.2    69  TRP69      -0.2718
     21  CB         8.7830   20.3730   21.5270 C.3    69  TRP69       0.0564
     22  CG         8.8720   20.3820   23.0100 C.ar   69  TRP69       0.0003
     23  CD1        9.9210   19.9890   23.7900 C.ar   69  TRP69       0.0946
     24  CD2        7.8540   20.8440   23.9000 C.ar   69  TRP69       0.0152
     25  NE1        9.6140   20.1870   25.1220 N.ar   69  TRP69      -0.2442
     26  CE2        8.3520   20.7230   25.2120 C.ar   69  TRP69       0.0810
     27  CE3        6.5710   21.3530   23.7140 C.ar   69  TRP69       0.0012
     28  CZ2        7.6040   21.0910   26.3320 C.ar   69  TRP69       0.0191
     29  CZ3        5.8360   21.7250   24.8270 C.ar   69  TRP69       0.0001
     30  CH2        6.3550   21.5970   26.1160 C.ar   69  TRP69       0.0015
     31  N          9.5830   19.0440   18.8190 N.am   70  ALA70      -0.1980
     32  CA         8.8180   18.6630   17.6220 C.3    70  ALA70       0.1597
     33  C          9.2240   19.4020   16.3490 C.2    70  ALA70       0.2287
     34  O          8.4370   20.1560   15.7670 O.2    70  ALA70      -0.2864
     35  CB         7.3170   18.7640   17.8910 C.3    70  ALA70       0.0319
     36  N         10.6630   27.5590   24.3570 N.3    87  ARG87      -0.1245
     37  CA        10.1850   28.5640   25.2930 C.3    87  ARG87       0.1563
     38  C         11.0150   29.8410   25.1630 C.2    87  ARG87       0.2260
     39  O         12.2410   29.8080   25.2040 O.2    87  ARG87      -0.2867
     40  CB        10.2350   28.0490   26.7420 C.3    87  ARG87       0.0307
     41  CG         9.3700   28.8720   27.6870 C.3    87  ARG87       0.0489
     42  CD         9.2360   28.2400   29.0620 C.3    87  ARG87       0.2205
     43  NE         8.6820   26.8910   29.0220 N.pl3  87  ARG87      -0.0865
     44  CZ         7.3900   26.5890   28.9410 C.cat  87  ARG87       0.5346
     45  NH1        6.4660   27.5370   28.8650 N.pl3  87  ARG87       0.1354
     46  NH2        7.0170   25.3130   28.9050 N.pl3  87  ARG87       0.1354
     47  N          2.7920   25.1860   19.6360 N.3   122  ILE122     -0.1231
     48  CA         3.7280   24.1040   19.3680 C.3   122  ILE122      0.1692
     49  C          3.2710   23.2870   18.1580 C.2   122  ILE122      0.2592
     50  O          2.2000   23.5240   17.5910 O.2   122  ILE122     -0.2718
     51  CB         3.8820   23.1440   20.5880 C.3   122  ILE122      0.0266
     52  CG1        2.6130   22.3150   20.8330 C.3   122  ILE122      0.0019
     53  CG2        4.2860   23.9120   21.8520 C.3   122  ILE122      0.0020
     54  CD1        2.8060   21.1880   21.8180 C.3   122  ILE122      0.0001
     55  N          4.0960   22.3250   17.7590 N.am  123  ASP123     -0.1974
     56  CA         3.6940   21.2980   16.8040 C.3   123  ASP123      0.1709
     57  C          3.3430   21.8480   15.4250 C.2   123  ASP123      0.2293
     58  O          2.4730   21.3170   14.7340 O.2   123  ASP123     -0.2864
     59  CB         2.5450   20.4280   17.3310 C.3   123  ASP123      0.1436
     60  CG         2.9800   19.3950   18.3520 C.2   123  ASP123      0.3671
     61  OD1        4.1830   19.2740   18.6290 O.co2 123  ASP123     -0.2456
     62  OD2        2.0890   18.6970   18.8870 O.co2 123  ASP123     -0.2456
     63  N         -1.5890   25.5730   22.5810 N.3   141  ASP141     -0.1239
     64  CA        -1.3030   24.5800   23.6020 C.3   141  ASP141      0.1674
     65  C         -2.1140   24.7510   24.8830 C.2   141  ASP141      0.2266
     66  O         -2.3150   25.8630   25.3800 O.2   141  ASP141     -0.2867
     67  CB         0.1890   24.6250   23.9270 C.3   141  ASP141      0.1410
     68  CG         0.6210   23.5190   24.8690 C.2   141  ASP141      0.3668
     69  OD1        0.6740   22.3520   24.4320 O.co2 141  ASP141     -0.2456
     70  OD2        0.9180   23.8400   26.0410 O.co2 141  ASP141     -0.2456
     71  N         -6.2420   16.9570   24.7060 N.3   190  TRP190     -0.1241
     72  CA        -5.3200   17.2480   23.6200 C.3   190  TRP190      0.1605
     73  C         -5.7700   16.7640   22.2560 C.2   190  TRP190      0.2264
     74  O         -6.1560   15.6060   22.0970 O.2   190  TRP190     -0.2867
     75  CB        -3.9690   16.5590   23.8580 C.3   190  TRP190      0.0550
     76  CG        -3.2370   16.9480   25.0850 C.ar  190  TRP190      0.0003
     77  CD1       -2.2410   17.8540   25.1940 C.ar  190  TRP190      0.0946
     78  CD2       -3.4200   16.3840   26.4010 C.ar  190  TRP190      0.0152
     79  NE1       -1.7850   17.8860   26.4910 N.ar  190  TRP190     -0.2442
     80  CE2       -2.5030   17.0000   27.2530 C.ar  190  TRP190      0.0810
     81  CE3       -4.2790   15.4030   26.9250 C.ar  190  TRP190      0.0012
     82  CZ2       -2.4250   16.6850   28.6150 C.ar  190  TRP190      0.0191
     83  CZ3       -4.1960   15.0830   28.2580 C.ar  190  TRP190      0.0001
     84  CH2       -3.2850   15.7290   29.0890 C.ar  190  TRP190      0.0015
     85  N         -3.0970   17.1380   19.1090 N.3   192  GLU192     -0.1245
     86  CA        -1.7920   17.7090   18.8110 C.3   192  GLU192      0.1567
     87  C         -1.1050   16.9010   17.7220 C.2   192  GLU192      0.2260
     88  O         -1.6640   15.9610   17.1750 O.2   192  GLU192     -0.2867
     89  CB        -0.9470   17.8650   20.0840 C.3   192  GLU192      0.0388
     90  CG        -0.5940   16.5470   20.7370 C.3   192  GLU192      0.1160
     91  CD         0.1570   16.6850   22.0700 C.2   192  GLU192      0.3649
     92  OE1        0.3990   17.8120   22.5440 O.co2 192  GLU192     -0.2457
     93  OE2        0.5250   15.6380   22.6450 O.co2 192  GLU192     -0.2457
     94  N          0.3840   12.4690   26.3990 N.3   212  TYR212     -0.1241
     95  CA         1.5900   11.8120   25.8880 C.3   212  TYR212      0.1605
     96  C          2.1960   10.8110   26.8770 C.2   212  TYR212      0.2264
     97  O          2.8550    9.8710   26.4580 O.2   212  TYR212     -0.2867
     98  CB         2.6740   12.8320   25.5120 C.3   212  TYR212      0.0534
     99  CG         3.4340   13.3120   26.7150 C.ar  212  TYR212     -0.0201
    100  CD1        4.6540   12.7420   27.0730 C.ar  212  TYR212     -0.0009
    101  CD2        2.9050   14.2770   27.5370 C.ar  212  TYR212     -0.0009
    102  CE1        5.3250   13.1330   28.2050 C.ar  212  TYR212      0.0417
    103  CE2        3.5710   14.6840   28.6810 C.ar  212  TYR212      0.0417
    104  CZ         4.7770   14.1040   29.0070 C.ar  212  TYR212      0.1957
    105  OH         5.4510   14.4830   30.1390 O.3   212  TYR212     -0.2866
    106  N         -2.2870    7.4990   24.7980 N.3   217  TYR217     -0.1241
    107  CA        -1.8860    8.3600   23.6880 C.3   217  TYR217      0.1605
    108  C         -2.0880    7.5520   22.4120 C.2   217  TYR217      0.2264
    109  O         -1.7260    6.3790   22.3530 O.2   217  TYR217     -0.2867
    110  CB        -0.4430    8.7980   23.8360 C.3   217  TYR217      0.0534
    111  CG        -0.0480   10.0520   23.0950 C.ar  217  TYR217     -0.0201
    112  CD1       -0.6940   11.2510   23.3310 C.ar  217  TYR217     -0.0009
    113  CD2        1.0120   10.0490   22.2050 C.ar  217  TYR217     -0.0009
    114  CE1       -0.2820   12.4260   22.7080 C.ar  217  TYR217      0.0417
    115  CE2        1.4360   11.2070   21.5770 C.ar  217  TYR217      0.0417
    116  CZ         0.7970   12.3920   21.8390 C.ar  217  TYR217      0.1957
    117  OH         1.2710   13.5270   21.2120 O.3   217  TYR217     -0.2866
    118  N          2.2220   11.0020   17.8050 N.3   253  HIS253     -0.1241
    119  CA         2.9070   12.1320   17.1520 C.3   253  HIS253      0.1621
    120  C          3.7050   11.6910   15.9630 C.2   253  HIS253      0.2264
    121  O          4.9500   11.6560   15.9760 O.2   253  HIS253     -0.2867
    122  CB         3.7540   12.9960   18.1710 C.3   253  HIS253      0.0745
    123  CG         4.1130   14.3640   17.6460 C.ar  253  HIS253      0.0817
    124  ND1        3.8450   15.5460   18.2410 N.ar  253  HIS253     -0.2268
    125  CD2        4.7250   14.6660   16.5240 C.ar  253  HIS253      0.1154
    126  CE1        4.2980   16.5010   17.5110 C.ar  253  HIS253      0.1986
    127  NE2        4.8270   15.9980   16.4470 N.ar  253  HIS253     -0.2212
    128  N         10.5920    8.1240   24.7740 N.3   282  ARG282     -0.1245
    129  CA         9.9180    7.3880   23.7140 C.3   282  ARG282      0.1563
    130  C         10.9310    6.9310   22.6660 C.2   282  ARG282      0.2260
    131  O         12.1030    7.3260   22.6820 O.2   282  ARG282     -0.2867
    132  CB         8.7780    8.2100   23.1230 C.3   282  ARG282      0.0307
    133  CG         7.6520    8.3630   24.1610 C.3   282  ARG282      0.0489
    134  CD         6.9890    9.6830   24.2270 C.3   282  ARG282      0.2205
    135  NE         7.8930   10.8200   24.3300 N.pl3 282  ARG282     -0.0865
    136  CZ         7.4590   12.0350   24.0790 C.cat 282  ARG282      0.5346
    137  NH1        6.1840   12.1980   23.7660 N.pl3 282  ARG282      0.1354
    138  NH2        8.2670   13.0720   24.1280 N.pl3 282  ARG282      0.1354
@<TRIPOS>BOND
     1    58    57    2
     2    57    56    1
     3    34    33    2
     4   120   121    2
     5   120   119    1
     6     4     3    2
     7    33    32    1
     8   127   125   ar
     9   127   126   ar
    10   125   123   ar
    11     3     2    1
    12    56    59    1
    13    56    55    1
    14   119   118    1
    15   119   122    1
    16    88    87    2
    17    59    60    1
    18   126   124   ar
    19    50    49    2
    20    32    35    1
    21    32    31    1
    22   123   122    1
    23   123   124   ar
    24    87    86    1
    25    55    49   am
    26     2     5    1
    27     2     1    1
    28    49    48    1
    29    60    61   ar
    30    60    62   ar
    31     5     6    1
    32    20    19    2
    33    86    85    1
    34    86    89    1
    35    31    19   am
    36    19    18    1
    37    48    47    1
    38    48    51    1
    39     6     8   ar
    40     6     7   ar
    41    89    90    1
    42    51    52    1
    43    51    53    1
    44    90    91    1
    45    18    17    1
    46    18    21    1
    47    52    54    1
    48   117   116    1
    49    21    22    1
    50   115   116   ar
    51   115   113   ar
    52   116   114   ar
    53    91    92   ar
    54    91    93   ar
    55    74    73    2
    56   113   111   ar
    57    73    72    1
    58   109   108    2
    59   108   107    1
    60    63    64    1
    61   130   131    2
    62   130   129    1
    63   114   112   ar
    64    22    23   ar
    65    22    24   ar
    66   111   112   ar
    67   111   110    1
    68   132   129    1
    69   132   133    1
    70    64    67    1
    71    64    65    1
    72    72    75    1
    73    72    71    1
    74    12    11    2
    75   107   110    1
    76   107   106    1
    77   129   128    1
    78    27    24   ar
    79    27    29   ar
    80   137   136    1
    81    23    25   ar
    82    75    76    1
    83    24    26   ar
    84    67    68    1
    85   136   138    1
    86   136   135    2
    87   133   134    1
    88   134   135    1
    89    11    10    1
    90    36    37    1
    91    69    68   ar
    92    29    30   ar
    93    68    70   ar
    94    65    66    2
    95    76    77   ar
    96    76    78   ar
    97    25    26   ar
    98    38    39    2
    99    38    37    1
   100    77    79   ar
   101    26    28   ar
   102    37    40    1
   103    98    95    1
   104    98    99    1
   105    10     9    1
   106    10    13    1
   107    95    94    1
   108    95    96    1
   109    30    28   ar
   110    78    81   ar
   111    78    80   ar
   112    13    14    1
   113    97    96    2
   114    79    80   ar
   115    99   100   ar
   116    99   101   ar
   117    40    41    1
   118    81    83   ar
   119   100   102   ar
   120    80    82   ar
   121   101   103   ar
   122    41    42    1
   123    14    15   ar
   124    14    16   ar
   125   102   104   ar
   126    83    84   ar
   127    82    84   ar
   128   103   104   ar
   129    45    44    1
   130    46    44    1
   131    44    43    2
   132   104   105    1
   133    43    42    1
