@<TRIPOS>MOLECULE
tmp/4qquA00.pdb
 103 95 0 0 0
SMALL
GASTEIGER

@<TRIPOS>ATOM
      1  N         34.9670  -39.9620  -28.7560 N.3   445  ILE445     -0.1245
      2  CA        34.2890  -39.3360  -27.6350 C.3   445  ILE445      0.1561
      3  C         33.4090  -40.2900  -26.8400 C.2   445  ILE445      0.2260
      4  O         32.9570  -39.9240  -25.7630 O.2   445  ILE445     -0.2867
      5  CB        33.4770  -38.1250  -28.1310 C.3   445  ILE445      0.0252
      6  CG1       34.3180  -37.2690  -29.1000 C.3   445  ILE445      0.0019
      7  CG2       33.0070  -37.2850  -26.9750 C.3   445  ILE445      0.0019
      8  CD1       35.7060  -36.8820  -28.6040 C.3   445  ILE445      0.0001
      9  N         30.4740  -42.8940  -27.7260 N.3   447  SER447     -0.1217
     10  CA        29.4600  -43.6250  -28.4440 C.3   447  SER447      0.1889
     11  C         29.8090  -43.9750  -29.8910 C.2   447  SER447      0.2288
     12  O         30.3010  -43.1380  -30.6650 O.2   447  SER447     -0.2866
     13  CB        28.2250  -42.7600  -28.5070 C.3   447  SER447      0.2089
     14  OG        28.4630  -41.6420  -29.3430 O.3   447  SER447     -0.2183
     15  N         29.3100  -47.3100  -26.0160 N.3   498  GLU498     -0.1245
     16  CA        28.1000  -47.1750  -25.2340 C.3   498  GLU498      0.1567
     17  C         26.9380  -48.0130  -25.7630 C.2   498  GLU498      0.2260
     18  O         25.7830  -47.6200  -25.6160 O.2   498  GLU498     -0.2867
     19  CB        27.6860  -45.7050  -25.1520 C.3   498  GLU498      0.0388
     20  CG        28.7150  -44.8100  -24.4970 C.3   498  GLU498      0.1160
     21  CD        28.2680  -43.3560  -24.3900 C.2   498  GLU498      0.3649
     22  OE1       27.0950  -43.0730  -24.0270 O.co2 498  GLU498     -0.2457
     23  OE2       29.1210  -42.4770  -24.6460 O.co2 498  GLU498     -0.2457
     24  N         23.2440  -41.1620  -22.5370 N.3   504  MET504     -0.1245
     25  CA        24.2930  -40.8400  -21.6040 C.3   504  MET504      0.1570
     26  C         23.7720  -40.2710  -20.2980 C.2   504  MET504      0.2261
     27  O         24.4970  -40.2200  -19.3190 O.2   504  MET504     -0.2867
     28  CB        25.2590  -39.8710  -22.2540 C.3   504  MET504      0.0387
     29  CG        24.6340  -38.5360  -22.5620 C.3   504  MET504      0.0595
     30  SD        25.6860  -37.3640  -23.4360 S.3   504  MET504     -0.1393
     31  CE        26.7010  -36.6990  -22.1380 C.3   504  MET504      0.0692
     32  N         33.5180  -43.9900  -19.0710 N.3   565  MET565     -0.1245
     33  CA        32.6200  -42.9080  -19.5310 C.3   565  MET565      0.1570
     34  C         31.5380  -42.7000  -18.5260 C.2   565  MET565      0.2261
     35  O         30.6790  -43.5510  -18.3740 O.2   565  MET565     -0.2867
     36  CB        31.9050  -43.2860  -20.8320 C.3   565  MET565      0.0387
     37  CG        32.7130  -43.0530  -22.0870 C.3   565  MET565      0.0595
     38  SD        33.0430  -41.3230  -22.4680 S.3   565  MET565     -0.1393
     39  CE        31.3630  -40.8120  -22.7270 C.3   565  MET565      0.0692
     40  N         20.1480  -32.2120  -17.9240 N.3   575  TRP575     -0.1241
     41  CA        19.3660  -32.9430  -18.9020 C.3   575  TRP575      0.1605
     42  C         18.4250  -33.9520  -18.2530 C.2   575  TRP575      0.2264
     43  O         18.0430  -34.9560  -18.8850 O.2   575  TRP575     -0.2867
     44  CB        20.2790  -33.6240  -19.9010 C.3   575  TRP575      0.0550
     45  CG        21.0960  -32.6970  -20.6950 C.ar  575  TRP575      0.0003
     46  CD1       20.9380  -31.3270  -20.8690 C.ar  575  TRP575      0.0946
     47  CD2       22.1860  -33.0690  -21.4930 C.ar  575  TRP575      0.0152
     48  NE1       21.9100  -30.8410  -21.7090 N.ar  575  TRP575     -0.2442
     49  CE2       22.6850  -31.8960  -22.1060 C.ar  575  TRP575      0.0810
     50  CE3       22.8120  -34.2860  -21.7400 C.ar  575  TRP575      0.0012
     51  CZ2       23.7610  -31.9210  -22.9390 C.ar  575  TRP575      0.0191
     52  CZ3       23.8810  -34.3090  -22.5580 C.ar  575  TRP575      0.0001
     53  CH2       24.3500  -33.1410  -23.1640 C.ar  575  TRP575      0.0015
     54  N         31.7390  -36.7650  -18.9070 N.3   613  ASP613     -0.1239
     55  CA        31.2650  -35.7170  -19.8030 C.3   613  ASP613      0.1674
     56  C         30.6040  -34.6150  -18.9640 C.2   613  ASP613      0.2266
     57  O         29.9100  -34.9420  -17.9920 O.2   613  ASP613     -0.2867
     58  CB        30.2610  -36.2460  -20.8480 C.3   613  ASP613      0.1410
     59  CG        30.7550  -37.4800  -21.6270 C.2   613  ASP613      0.3668
     60  OD1       31.8010  -37.4020  -22.3000 O.co2 613  ASP613     -0.2456
     61  OD2       30.0430  -38.5160  -21.5950 O.co2 613  ASP613     -0.2456
     62  N         28.8600  -31.6370  -20.7980 N.3   615  PRO615     -0.2116
     63  CA        28.4650  -30.7100  -21.8680 C.3   615  PRO615      0.1372
     64  C         27.4610  -29.5870  -21.5520 C.2   615  PRO615      0.2244
     65  O         27.3800  -28.6330  -22.3380 O.2   615  PRO615     -0.2868
     66  CB        27.8840  -31.6280  -22.9510 C.3   615  PRO615      0.0268
     67  CG        27.8580  -33.0110  -22.3760 C.3   615  PRO615      0.0207
     68  CD        28.7780  -33.0440  -21.2050 C.3   615  PRO615      0.0892
     69  N         34.3990  -33.2830  -21.9350 N.3   656  HIS656     -0.1241
     70  CA        33.7860  -33.0190  -23.2340 C.3   656  HIS656      0.1621
     71  C         32.6550  -32.0120  -23.1130 C.2   656  HIS656      0.2264
     72  O         31.8650  -32.0300  -22.1380 O.2   656  HIS656     -0.2867
     73  CB        33.2030  -34.3040  -23.7880 C.3   656  HIS656      0.0745
     74  CG        32.4300  -34.1180  -25.0500 C.ar  656  HIS656      0.0817
     75  ND1       32.9880  -33.5770  -26.1810 N.ar  656  HIS656     -0.2268
     76  CD2       31.1510  -34.4290  -25.3680 C.ar  656  HIS656      0.1154
     77  CE1       32.0760  -33.5370  -27.1360 C.ar  656  HIS656      0.1986
     78  NE2       30.9550  -34.0540  -26.6690 N.ar  656  HIS656     -0.2212
     79  N         30.0490  -29.3560  -25.8440 N.3   658  CYS658     -0.1235
     80  CA        29.5810  -29.3140  -27.1980 C.3   658  CYS658      0.1677
     81  C         28.2810  -28.5750  -27.3480 C.2   658  CYS658      0.2270
     82  O         27.5290  -28.4750  -26.4000 O.2   658  CYS658     -0.2867
     83  CB        29.4290  -30.7510  -27.7160 C.3   658  CYS658      0.0956
     84  SG        28.1170  -31.7340  -26.9660 S.3   658  CYS658     -0.0801
     85  N         32.0180  -34.6250  -31.4470 N.3   738  CYS738     -0.1221
     86  CA        31.1920  -35.2650  -30.4220 C.3   738  CYS738      0.1808
     87  C         31.1190  -36.7510  -30.7730 C.2   738  CYS738      0.2601
     88  O         31.9540  -37.2370  -31.5220 O.2   738  CYS738     -0.2717
     89  CB        29.7850  -34.6070  -30.3650 C.3   738  CYS738      0.0970
     90  SG        28.5890  -35.1500  -29.0820 S.3   738  CYS738     -0.0800
     91  N         30.1060  -37.4460  -30.2450 N.am  739  GLY739     -0.1957
     92  CA        29.9610  -38.8960  -30.3660 C.3   739  GLY739      0.1869
     93  C         29.3800  -39.3440  -31.6830 C.2   739  GLY739      0.2309
     94  O         29.1120  -38.5110  -32.5520 O.2   739  GLY739     -0.2863
     95  N         26.7580  -42.0650  -32.0440 N.3   741  LYS741     -0.1245
     96  CA        25.4840  -42.7810  -31.9890 C.3   741  LYS741      0.1561
     97  C         24.6310  -42.6350  -33.2470 C.2   741  LYS741      0.2260
     98  O         24.0900  -43.5950  -33.7480 O.2   741  LYS741     -0.2867
     99  CB        24.5870  -42.2470  -30.8720 C.3   741  LYS741      0.0271
    100  CG        25.2180  -41.6190  -29.6540 C.3   741  LYS741      0.0035
    101  CD        24.1020  -41.2570  -28.6950 C.3   741  LYS741      0.0206
    102  CE        23.4160  -42.5050  -28.1380 C.3   741  LYS741      0.1093
    103  NZ        22.3630  -42.2330  -27.1210 N.3   741  LYS741     -0.1314
@<TRIPOS>BOND
     1    98    97    2
     2    97    96    1
     3    94    93    2
     4    95    96    1
     5    96    99    1
     6    93    92    1
     7    88    87    2
     8    85    86    1
     9    99   100    1
    10    87    86    1
    11    87    91   am
    12    12    11    2
    13    86    89    1
    14    92    91    1
    15    89    90    1
    16    11    10    1
    17   100   101    1
    18    14    13    1
    19     6     8    1
    20     6     5    1
    21     1     2    1
    22   101   102    1
    23    13    10    1
    24    10     9    1
    25   102   103    1
    26     5     2    1
    27     5     7    1
    28    83    80    1
    29    83    84    1
    30     2     3    1
    31    81    80    1
    32    81    82    2
    33    80    79    1
    34    77    78   ar
    35    77    75   ar
    36     3     4    2
    37    78    76   ar
    38    75    74   ar
    39    15    16    1
    40    17    18    2
    41    17    16    1
    42    76    74   ar
    43    16    19    1
    44    19    20    1
    45    74    73    1
    46    23    21   ar
    47    20    21    1
    48    21    22   ar
    49    73    70    1
    50    30    29    1
    51    30    31    1
    52    70    71    1
    53    70    69    1
    54    53    51   ar
    55    53    52   ar
    56    71    72    2
    57    66    67    1
    58    66    63    1
    59    51    49   ar
    60    39    38    1
    61    29    28    1
    62    52    50   ar
    63    24    25    1
    64    38    37    1
    65    67    68    1
    66    65    64    2
    67    60    59   ar
    68    28    25    1
    69    49    48   ar
    70    49    47   ar
    71    37    36    1
    72    63    64    1
    73    63    62    1
    74    50    47   ar
    75    48    46   ar
    76    59    61   ar
    77    59    58    1
    78    25    26    1
    79    47    45   ar
    80    68    62    1
    81    46    45   ar
    82    58    55    1
    83    36    33    1
    84    45    44    1
    85    26    27    2
    86    44    41    1
    87    55    56    1
    88    55    54    1
    89    33    32    1
    90    33    34    1
    91    56    57    2
    92    41    42    1
    93    41    40    1
    94    43    42    2
    95    34    35    2
