@<TRIPOS>MOLECULE
tmp/4qqxG00.pdb
 144 140 0 0 0
SMALL
GASTEIGER

@<TRIPOS>ATOM
      1  N       -105.9850  -24.7640  -36.8210 N.3   263  HIS263     -0.1226
      2  CA      -105.4520  -25.1140  -38.1370 C.3   263  HIS263      0.1752
      3  C       -104.1720  -25.9590  -38.0970 C.2   263  HIS263      0.2595
      4  O       -103.8190  -26.6020  -39.0830 O.2   263  HIS263     -0.2718
      5  CB      -105.1970  -23.8380  -38.9230 C.3   263  HIS263      0.0759
      6  CG      -104.1930  -22.9440  -38.2750 C.ar  263  HIS263      0.0818
      7  ND1     -104.5160  -22.0910  -37.2420 N.ar  263  HIS263     -0.2268
      8  CD2     -102.8640  -22.7970  -38.4860 C.ar  263  HIS263      0.1154
      9  CE1     -103.4320  -21.4420  -36.8560 C.ar  263  HIS263      0.1986
     10  NE2     -102.4160  -21.8520  -37.5940 N.ar  263  HIS263     -0.2212
     11  N       -103.4740  -25.9450  -36.9660 N.am  264  LEU264     -0.1980
     12  CA      -102.3690  -26.8720  -36.7490 C.3   264  LEU264      0.1596
     13  C       -102.8900  -28.1750  -36.1840 C.2   264  LEU264      0.2287
     14  O       -103.1530  -28.2830  -34.9860 O.2   264  LEU264     -0.2864
     15  CB      -101.3330  -26.2850  -35.7980 C.3   264  LEU264      0.0297
     16  CG      -100.2670  -25.4280  -36.4680 C.3   264  LEU264      0.0022
     17  CD1      -99.4380  -24.7110  -35.4180 C.3   264  LEU264      0.0001
     18  CD2      -99.4040  -26.3080  -37.3530 C.3   264  LEU264      0.0001
     19  N       -101.4540  -31.3390  -35.9750 N.3   266  LYS266     -0.1231
     20  CA      -100.5670  -32.0870  -35.1040 C.3   266  LYS266      0.1678
     21  C        -99.5430  -31.1760  -34.4420 C.2   266  LYS266      0.2434
     22  O        -98.4990  -30.8770  -35.0280 O.2   266  LYS266     -0.2733
     23  CB       -99.8850  -33.2180  -35.8740 C.3   266  LYS266      0.0284
     24  CG       -99.0220  -34.1400  -35.0240 C.3   266  LYS266      0.0035
     25  CD       -98.6700  -35.4100  -35.7780 C.3   266  LYS266      0.0206
     26  CE       -99.8650  -36.3410  -35.8800 C.3   266  LYS266      0.1093
     27  NZ      -100.1790  -36.9430  -34.5590 N.3   266  LYS266     -0.1314
     28  N        -99.8610  -30.7030  -33.2200 N.am  267  PRO267     -0.2718
     29  CA       -98.8380  -30.0340  -32.4060 C.3   267  PRO267      0.1535
     30  C        -97.6120  -30.9750  -32.3250 C.2   267  PRO267      0.2598
     31  O        -97.7460  -32.1210  -31.9200 O.2   267  PRO267     -0.2715
     32  CB       -99.5310  -29.8950  -31.0420 C.3   267  PRO267      0.0310
     33  CG      -100.9740  -29.7690  -31.3860 C.3   267  PRO267      0.0237
     34  CD      -101.1730  -30.7300  -32.5390 C.3   267  PRO267      0.0939
     35  N        -96.4610  -30.4970  -32.7830 N.am  268  ASN268     -0.1973
     36  CA       -95.2140  -31.2400  -32.8930 C.3   268  ASN268      0.1688
     37  C        -94.5620  -31.3530  -31.5160 C.2   268  ASN268      0.2292
     38  O        -95.1380  -30.9190  -30.5100 O.2   268  ASN268     -0.2864
     39  CB       -94.4420  -30.5460  -33.9730 C.3   268  ASN268      0.1181
     40  CG       -92.8680  -30.6120  -33.8800 C.2   268  ASN268      0.2629
     41  OD1      -92.2070  -30.8570  -32.8590 O.2   268  ASN268     -0.2716
     42  ND2      -92.2710  -30.3710  -35.0730 N.am  268  ASN268     -0.0877
     43  N        -93.4870  -27.8300  -29.2790 N.3   271  GLN271     -0.1245
     44  CA       -94.7260  -27.1700  -28.9010 C.3   271  GLN271      0.1566
     45  C        -95.4680  -27.8600  -27.7740 C.2   271  GLN271      0.2260
     46  O        -96.0980  -27.2070  -26.9420 O.2   271  GLN271     -0.2867
     47  CB       -95.6540  -27.1060  -30.1180 C.3   271  GLN271      0.0367
     48  CG       -95.1090  -26.3140  -31.2680 C.3   271  GLN271      0.0905
     49  CD       -93.9390  -26.9910  -32.0000 C.2   271  GLN271      0.2608
     50  OE1      -93.9200  -28.2090  -32.2280 O.2   271  GLN271     -0.2717
     51  NE2      -92.9490  -26.1890  -32.3610 N.am  271  GLN271     -0.0878
     52  N        -83.9990  -26.2460  -34.1150 N.3   293  PRO293     -0.2102
     53  CA       -83.6940  -25.9060  -35.5120 C.3   293  PRO293      0.1504
     54  C        -84.8310  -25.1680  -36.1950 C.2   293  PRO293      0.2576
     55  O        -85.9190  -25.0670  -35.6430 O.2   293  PRO293     -0.2718
     56  CB       -83.5150  -27.2690  -36.1780 C.3   293  PRO293      0.0282
     57  CG       -83.4760  -28.2670  -35.0620 C.3   293  PRO293      0.0208
     58  CD       -84.2330  -27.6870  -33.9370 C.3   293  PRO293      0.0893
     59  N        -84.5770  -24.6690  -37.3980 N.am  294  MET294     -0.1966
     60  CA       -85.5880  -23.9580  -38.1750 C.3   294  MET294      0.1736
     61  C        -86.6650  -24.8950  -38.6810 C.2   294  MET294      0.2617
     62  O        -86.4340  -26.0910  -38.8470 O.2   294  MET294     -0.2715
     63  CB       -84.9460  -23.2700  -39.3690 C.3   294  MET294      0.0427
     64  CG       -84.3620  -24.2240  -40.3550 C.3   294  MET294      0.0599
     65  SD       -83.6070  -23.3760  -41.7500 S.3   294  MET294     -0.1393
     66  CE       -84.7830  -22.0710  -42.1040 C.3   294  MET294      0.0692
     67  N        -87.8410  -24.3450  -38.9450 N.am  295  GLY295     -0.1940
     68  CA       -88.9580  -25.1590  -39.3730 C.3   295  GLY295      0.2014
     69  C        -89.3740  -26.1570  -38.3070 C.2   295  GLY295      0.2639
     70  O        -89.8430  -27.2490  -38.6170 O.2   295  GLY295     -0.2714
     71  N        -89.1770  -25.7950  -37.0450 N.am  296  GLU296     -0.1963
     72  CA       -89.7320  -26.5700  -35.9440 C.3   296  GLU296      0.1733
     73  C        -90.9350  -25.8470  -35.3490 C.2   296  GLU296      0.2617
     74  O        -91.3850  -26.1820  -34.2540 O.2   296  GLU296     -0.2715
     75  CB       -88.6880  -26.8470  -34.8580 C.3   296  GLU296      0.0429
     76  CG       -87.8610  -28.1250  -35.0690 C.3   296  GLU296      0.1163
     77  CD       -88.6760  -29.4160  -34.9310 C.2   296  GLU296      0.3649
     78  OE1      -89.2700  -29.6550  -33.8540 O.co2 296  GLU296     -0.2457
     79  OE2      -88.7140  -30.2050  -35.9010 O.co2 296  GLU296     -0.2457
     80  N        -91.4450  -24.8550  -36.0760 N.am  297  GLY297     -0.1940
     81  CA       -92.6340  -24.1270  -35.6680 C.3   297  GLY297      0.2014
     82  C        -92.4910  -23.3970  -34.3480 C.2   297  GLY297      0.2639
     83  O        -93.4420  -23.3220  -33.5670 O.2   297  GLY297     -0.2714
     84  N        -91.3000  -22.8520  -34.1020 N.am  298  LYS298     -0.1963
     85  CA       -91.0040  -22.1640  -32.8430 C.3   298  LYS298      0.1728
     86  C        -91.6560  -20.7910  -32.7690 C.2   298  LYS298      0.2617
     87  O        -91.8230  -20.2410  -31.6840 O.2   298  LYS298     -0.2715
     88  CB       -89.4940  -22.0500  -32.6200 C.3   298  LYS298      0.0311
     89  CG       -88.7540  -21.2690  -33.6720 C.3   298  LYS298      0.0038
     90  CD       -87.2950  -21.2780  -33.3330 C.3   298  LYS298      0.0206
     91  CE       -86.7710  -22.6820  -33.3390 C.3   298  LYS298      0.1093
     92  NZ       -85.8040  -22.8170  -34.4620 N.3   298  LYS298     -0.1314
     93  N        -92.0270  -20.2470  -33.9220 N.am  299  THR299     -0.1937
     94  CA       -92.7330  -18.9810  -33.9600 C.3   299  THR299      0.2028
     95  C        -94.0170  -19.1160  -33.1650 C.2   299  THR299      0.2642
     96  O        -94.2840  -18.3230  -32.2680 O.2   299  THR299     -0.2714
     97  CB       -93.0310  -18.5480  -35.4010 C.3   299  THR299      0.1808
     98  OG1      -91.7960  -18.3400  -36.1050 O.3   299  THR299     -0.2208
     99  CG2      -93.8220  -17.2710  -35.4270 C.3   299  THR299      0.0379
    100  N        -94.7810  -20.1590  -33.4780 N.am  300  GLU300     -0.1976
    101  CA       -96.0330  -20.4890  -32.7880 C.3   300  GLU300      0.1602
    102  C        -95.8240  -20.6750  -31.2830 C.2   300  GLU300      0.2287
    103  O        -96.4820  -20.0240  -30.4610 O.2   300  GLU300     -0.2864
    104  CB       -96.6450  -21.7630  -33.3960 C.3   300  GLU300      0.0415
    105  CG       -97.3510  -21.5850  -34.7540 C.3   300  GLU300      0.1163
    106  CD       -96.4100  -21.3320  -35.9240 C.2   300  GLU300      0.3649
    107  OE1      -95.1930  -21.5820  -35.7770 O.co2 300  GLU300     -0.2457
    108  OE2      -96.8930  -20.8850  -36.9960 O.co2 300  GLU300     -0.2457
    109  N        -93.2920  -11.4930  -40.2540 N.3   331  MET331     -0.1245
    110  CA       -93.7940  -11.7200  -38.8990 C.3   331  MET331      0.1570
    111  C        -94.8980  -10.7630  -38.4570 C.2   331  MET331      0.2261
    112  O        -95.7010  -11.0940  -37.5880 O.2   331  MET331     -0.2867
    113  CB       -92.6420  -11.6640  -37.9030 C.3   331  MET331      0.0387
    114  CG       -93.0310  -12.0690  -36.5090 C.3   331  MET331      0.0595
    115  SD       -93.3870  -13.8130  -36.4960 S.3   331  MET331     -0.1393
    116  CE       -91.7170  -14.4780  -36.6030 C.3   331  MET331      0.0692
    117  N        -97.9200  -12.9280  -39.8560 N.3   334  ARG334     -0.1245
    118  CA       -98.1670  -14.0330  -38.9200 C.3   334  ARG334      0.1563
    119  C        -98.9510  -13.5960  -37.6900 C.2   334  ARG334      0.2260
    120  O       -100.0230  -14.1350  -37.3980 O.2   334  ARG334     -0.2867
    121  CB       -96.8550  -14.6530  -38.4300 C.3   334  ARG334      0.0307
    122  CG       -95.8590  -15.0060  -39.5040 C.3   334  ARG334      0.0489
    123  CD       -96.0770  -16.3950  -40.0130 C.3   334  ARG334      0.2205
    124  NE       -95.8380  -17.4190  -39.0050 N.pl3 334  ARG334     -0.0865
    125  CZ       -94.7590  -18.1910  -38.9790 C.cat 334  ARG334      0.5346
    126  NH1      -93.8110  -18.0380  -39.8930 N.pl3 334  ARG334      0.1354
    127  NH2      -94.6280  -19.1190  -38.0440 N.pl3 334  ARG334      0.1354
    128  N        -86.1870  -12.9540  -31.7020 N.3   417  ASP417     -0.1225
    129  CA       -85.9460  -14.1400  -32.5010 C.3   417  ASP417      0.1805
    130  C        -84.5470  -14.2090  -33.0960 C.2   417  ASP417      0.2597
    131  O        -83.8250  -13.2120  -33.1610 O.2   417  ASP417     -0.2718
    132  CB       -86.9710  -14.2080  -33.6220 C.3   417  ASP417      0.1424
    133  CG       -87.2570  -15.6240  -34.0530 C.2   417  ASP417      0.3668
    134  OD1      -86.2890  -16.3750  -34.3130 O.co2 417  ASP417     -0.2456
    135  OD2      -88.4530  -15.9870  -34.1160 O.co2 417  ASP417     -0.2456
    136  N        -84.1870  -15.4080  -33.5430 N.am  418  GLU418     -0.1979
    137  CA       -82.9120  -15.6630  -34.2020 C.3   418  GLU418      0.1602
    138  C        -81.7380  -15.1970  -33.3380 C.2   418  GLU418      0.2287
    139  O        -80.7330  -14.7160  -33.8580 O.2   418  GLU418     -0.2864
    140  CB       -82.8680  -14.9930  -35.5890 C.3   418  GLU418      0.0415
    141  CG       -84.1380  -15.1530  -36.4320 C.3   418  GLU418      0.1163
    142  CD       -84.1080  -16.3630  -37.3500 C.2   418  GLU418      0.3649
    143  OE1      -83.8540  -16.1820  -38.5650 O.co2 418  GLU418     -0.2457
    144  OE2      -84.3550  -17.4900  -36.8620 O.co2 418  GLU418     -0.2457
@<TRIPOS>BOND
     1    66    65    1
     2    65    64    1
     3    64    63    1
     4   109   110    1
     5   123   122    1
     6   123   124    1
     7   126   125    1
     8   117   118    1
     9   122   121    1
    10    68    67    1
    11    68    69    1
    12    63    60    1
    13     4     3    2
    14   124   125    2
    15   125   127    1
    16    67    61   am
    17     5     6    1
    18     5     2    1
    19   118   121    1
    20   118   119    1
    21   110   111    1
    22   110   113    1
    23    62    61    2
    24    61    60    1
    25    70    69    2
    26   143   142   ar
    27     8     6   ar
    28     8    10   ar
    29   111   112    2
    30    69    71   am
    31     6     7   ar
    32    60    59    1
    33     2     3    1
    34     2     1    1
    35     3    11   am
    36   113   114    1
    37   119   120    2
    38    10     9   ar
    39    59    54   am
    40    18    16    1
    41   142   144   ar
    42   142   141    1
    43     7     9   ar
    44    71    72    1
    45   108   106   ar
    46    11    12    1
    47    12    13    1
    48    12    15    1
    49   116   115    1
    50   114   115    1
    51    16    15    1
    52    16    17    1
    53   141   140    1
    54    54    55    2
    55    54    53    1
    56    13    14    2
    57    56    53    1
    58    56    57    1
    59    98    97    1
    60    80    81    1
    61    80    73   am
    62    19    20    1
    63    72    73    1
    64    72    75    1
    65   106   107   ar
    66   106   105    1
    67    79    77   ar
    68    26    25    1
    69    26    27    1
    70    23    20    1
    71    23    24    1
    72    25    24    1
    73    81    82    1
    74   140   137    1
    75    53    52    1
    76    99    97    1
    77    97    94    1
    78    73    74    2
    79    20    21    1
    80    42    40   am
    81    76    77    1
    82    76    75    1
    83    57    58    1
    84    22    21    2
    85    77    78   ar
    86   105   104    1
    87    92    91    1
    88    21    28   am
    89    82    84   am
    90    82    83    2
    91   134   133   ar
    92   137   136    1
    93   137   138    1
    94   135   133   ar
    95    52    58    1
    96    84    85    1
    97   133   132    1
    98    39    40    1
    99    39    36    1
   100    94    93    1
   101    94    95    1
   102    93    86   am
   103    40    41    2
   104   139   138    2
   105    89    90    1
   106    89    88    1
   107   132   129    1
   108   136   130   am
   109   100    95   am
   110   100   101    1
   111   104   101    1
   112    91    90    1
   113    28    34    1
   114    28    29    1
   115    95    96    2
   116   131   130    2
   117   130   129    1
   118    36    35    1
   119    36    37    1
   120    85    86    1
   121    85    88    1
   122   101   102    1
   123    35    30   am
   124    86    87    2
   125    34    33    1
   126   129   128    1
   127    29    30    1
   128    29    32    1
   129    51    49   am
   130    30    31    2
   131    50    49    2
   132    49    48    1
   133    37    38    2
   134    33    32    1
   135   102   103    2
   136    48    47    1
   137    47    44    1
   138    43    44    1
   139    44    45    1
   140    45    46    2
