@<TRIPOS>MOLECULE
tmp/4qqyG00.pdb
 122 117 0 0 0
SMALL
GASTEIGER

@<TRIPOS>ATOM
      1  N       -106.0350  -24.9400  -36.6100 N.3   263  HIS263     -0.1226
      2  CA      -105.7020  -25.4210  -37.9360 C.3   263  HIS263      0.1752
      3  C       -104.4600  -26.3110  -37.9670 C.2   263  HIS263      0.2596
      4  O       -104.0600  -26.7930  -39.0280 O.2   263  HIS263     -0.2718
      5  CB      -105.5440  -24.2610  -38.9090 C.3   263  HIS263      0.0759
      6  CG      -104.5670  -23.2250  -38.4560 C.ar  263  HIS263      0.0818
      7  ND1     -104.8890  -22.2420  -37.5450 N.ar  263  HIS263     -0.2268
      8  CD2     -103.2680  -23.0270  -38.7820 C.ar  263  HIS263      0.1154
      9  CE1     -103.8300  -21.4810  -37.3300 C.ar  263  HIS263      0.1986
     10  NE2     -102.8330  -21.9370  -38.0680 N.ar  263  HIS263     -0.2212
     11  N       -103.8510  -26.5280  -36.8060 N.am  264  LEU264     -0.1966
     12  CA      -102.7370  -27.4590  -36.6780 C.3   264  LEU264      0.1728
     13  C       -103.2530  -28.7620  -36.1050 C.2   264  LEU264      0.2617
     14  O       -103.5120  -28.8630  -34.9120 O.2   264  LEU264     -0.2715
     15  CB      -101.6340  -26.8920  -35.7730 C.3   264  LEU264      0.0311
     16  CG      -100.6780  -25.8020  -36.2790 C.3   264  LEU264      0.0022
     17  CD1     -101.3530  -24.4500  -36.4180 C.3   264  LEU264      0.0001
     18  CD2      -99.4820  -25.6890  -35.3550 C.3   264  LEU264      0.0001
     19  N       -103.4070  -29.7590  -36.9650 N.am  265  SER265     -0.1936
     20  CA      -103.9540  -31.0460  -36.5510 C.3   265  SER265      0.2055
     21  C       -103.1560  -31.6990  -35.4180 C.2   265  SER265      0.2642
     22  O       -103.7350  -32.1500  -34.4350 O.2   265  SER265     -0.2714
     23  CB      -104.0850  -31.9910  -37.7530 C.3   265  SER265      0.2130
     24  OG      -102.9030  -31.9990  -38.5370 O.3   265  SER265     -0.2179
     25  N       -101.8320  -31.7250  -35.5490 N.am  266  LYS266     -0.1977
     26  CA      -100.9660  -32.3370  -34.5380 C.3   266  LYS266      0.1596
     27  C        -99.8020  -31.4140  -34.1320 C.2   266  LYS266      0.2287
     28  O        -98.9810  -31.0360  -34.9760 O.2   266  LYS266     -0.2864
     29  CB      -100.4090  -33.6660  -35.0670 C.3   266  LYS266      0.0298
     30  CG      -100.3700  -34.8160  -34.0570 C.3   266  LYS266      0.0038
     31  CD       -99.5630  -35.9940  -34.6100 C.3   266  LYS266      0.0206
     32  CE       -99.8680  -37.2850  -33.8780 C.3   266  LYS266      0.1093
     33  NZ       -99.5770  -37.1950  -32.4200 N.3   266  LYS266     -0.1314
     34  N        -96.1350  -30.3500  -32.4600 N.3   268  ASN268     -0.1240
     35  CA       -94.7880  -30.9510  -32.4260 C.3   268  ASN268      0.1653
     36  C        -94.3780  -31.5010  -31.0720 C.2   268  ASN268      0.2266
     37  O        -95.0720  -31.2940  -30.0780 O.2   268  ASN268     -0.2867
     38  CB       -93.7290  -29.9160  -32.7940 C.3   268  ASN268      0.1155
     39  CG       -93.9200  -29.3570  -34.1670 C.2   268  ASN268      0.2627
     40  OD1      -94.4130  -30.0380  -35.0630 O.2   268  ASN268     -0.2716
     41  ND2      -93.5170  -28.1090  -34.3530 N.am  268  ASN268     -0.0877
     42  N        -93.5430  -27.9950  -29.5470 N.3   271  GLN271     -0.1245
     43  CA       -94.8140  -27.3780  -29.1700 C.3   271  GLN271      0.1566
     44  C        -95.5220  -28.0950  -28.0200 C.2   271  GLN271      0.2260
     45  O        -96.1550  -27.4490  -27.1870 O.2   271  GLN271     -0.2867
     46  CB       -95.7500  -27.3130  -30.3690 C.3   271  GLN271      0.0367
     47  CG       -95.1980  -26.5480  -31.5360 C.3   271  GLN271      0.0905
     48  CD       -96.0970  -26.6510  -32.7470 C.2   271  GLN271      0.2608
     49  OE1      -96.7490  -27.6710  -32.9510 O.2   271  GLN271     -0.2717
     50  NE2      -96.1500  -25.5920  -33.5520 N.am  271  GLN271     -0.0878
     51  N        -84.7150  -24.6780  -37.2400 N.3   294  MET294     -0.1230
     52  CA       -85.7140  -23.9250  -37.9900 C.3   294  MET294      0.1702
     53  C        -86.6180  -24.8690  -38.7480 C.2   294  MET294      0.2593
     54  O        -86.2340  -25.9890  -39.0740 O.2   294  MET294     -0.2718
     55  CB       -85.0410  -22.9830  -38.9780 C.3   294  MET294      0.0401
     56  CG       -84.1210  -23.7050  -39.9380 C.3   294  MET294      0.0596
     57  SD       -84.6260  -23.5230  -41.6540 S.3   294  MET294     -0.1393
     58  CE       -83.3120  -24.4200  -42.4880 C.3   294  MET294      0.0692
     59  N        -87.8230  -24.4060  -39.0390 N.am  295  GLY295     -0.1942
     60  CA       -88.8430  -25.2960  -39.5470 C.3   295  GLY295      0.2014
     61  C        -89.3420  -26.2620  -38.4820 C.2   295  GLY295      0.2639
     62  O        -89.5140  -27.4510  -38.7460 O.2   295  GLY295     -0.2714
     63  N        -89.5820  -25.7560  -37.2760 N.am  296  GLU296     -0.1963
     64  CA       -90.1170  -26.5900  -36.2020 C.3   296  GLU296      0.1733
     65  C        -91.2590  -25.9180  -35.4200 C.2   296  GLU296      0.2617
     66  O        -91.4130  -26.1540  -34.2210 O.2   296  GLU296     -0.2715
     67  CB       -88.9960  -27.0000  -35.2510 C.3   296  GLU296      0.0429
     68  CG       -89.1420  -28.3940  -34.6750 C.3   296  GLU296      0.1163
     69  CD       -89.0480  -29.4890  -35.7220 C.2   296  GLU296      0.3649
     70  OE1      -88.3970  -29.2740  -36.7690 O.co2 296  GLU296     -0.2457
     71  OE2      -89.6290  -30.5720  -35.4900 O.co2 296  GLU296     -0.2457
     72  N        -92.0560  -25.0950  -36.1020 N.am  297  GLY297     -0.1940
     73  CA       -93.1500  -24.3740  -35.4720 C.3   297  GLY297      0.2014
     74  C        -92.7510  -23.5090  -34.2920 C.2   297  GLY297      0.2639
     75  O        -93.5140  -23.3910  -33.3400 O.2   297  GLY297     -0.2714
     76  N        -91.5610  -22.9090  -34.3400 N.am  298  LYS298     -0.1963
     77  CA       -91.1200  -22.0360  -33.2560 C.3   298  LYS298      0.1728
     78  C        -92.0430  -20.8450  -33.1780 C.2   298  LYS298      0.2617
     79  O        -92.4620  -20.4650  -32.1000 O.2   298  LYS298     -0.2715
     80  CB       -89.6650  -21.5770  -33.4280 C.3   298  LYS298      0.0311
     81  CG       -88.6330  -22.6800  -33.2130 C.3   298  LYS298      0.0038
     82  CD       -87.2090  -22.1570  -33.2340 C.3   298  LYS298      0.0206
     83  CE       -86.7610  -21.8590  -34.6500 C.3   298  LYS298      0.1093
     84  NZ       -85.3970  -21.2640  -34.6820 N.3   298  LYS298     -0.1314
     85  N        -92.3930  -20.2740  -34.3210 N.am  299  THR299     -0.1937
     86  CA       -93.1950  -19.0590  -34.3000 C.3   299  THR299      0.2028
     87  C        -94.4880  -19.2400  -33.5130 C.2   299  THR299      0.2642
     88  O        -94.7860  -18.4460  -32.6180 O.2   299  THR299     -0.2714
     89  CB       -93.4630  -18.5140  -35.7040 C.3   299  THR299      0.1808
     90  OG1      -92.2480  -17.9660  -36.2230 O.3   299  THR299     -0.2208
     91  CG2      -94.4910  -17.4090  -35.6620 C.3   299  THR299      0.0379
     92  N        -95.2260  -20.3030  -33.8250 N.am  300  GLU300     -0.1976
     93  CA       -96.4610  -20.6300  -33.1190 C.3   300  GLU300      0.1602
     94  C        -96.1480  -20.7820  -31.6340 C.2   300  GLU300      0.2287
     95  O        -96.7760  -20.1390  -30.7890 O.2   300  GLU300     -0.2864
     96  CB       -97.0840  -21.9190  -33.6820 C.3   300  GLU300      0.0415
     97  CG       -97.8350  -21.7720  -35.0090 C.3   300  GLU300      0.1163
     98  CD       -96.9250  -21.5960  -36.2270 C.2   300  GLU300      0.3649
     99  OE1      -95.7470  -22.0080  -36.1690 O.co2 300  GLU300     -0.2457
    100  OE2      -97.3890  -21.0490  -37.2530 O.co2 300  GLU300     -0.2457
    101  N        -98.0090  -12.8050  -40.1180 N.3   334  ARG334     -0.1245
    102  CA       -98.1840  -13.9540  -39.2230 C.3   334  ARG334      0.1563
    103  C        -98.8520  -13.5860  -37.8940 C.2   334  ARG334      0.2260
    104  O        -99.7450  -14.2930  -37.4320 O.2   334  ARG334     -0.2867
    105  CB       -96.8380  -14.6240  -38.9180 C.3   334  ARG334      0.0307
    106  CG       -96.2780  -15.5420  -39.9900 C.3   334  ARG334      0.0489
    107  CD       -96.8850  -16.9120  -39.9120 C.3   334  ARG334      0.2205
    108  NE       -96.1260  -17.8900  -39.1290 N.pl3 334  ARG334     -0.0865
    109  CZ       -94.9980  -18.4760  -39.5310 C.cat 334  ARG334      0.5346
    110  NH1      -94.4480  -18.1450  -40.6930 N.pl3 334  ARG334      0.1354
    111  NH2      -94.4020  -19.3860  -38.7640 N.pl3 334  ARG334      0.1354
    112  N        -84.0810  -29.8120  -47.6750 N.3   654  ARG654     -0.1245
    113  CA       -84.9190  -29.3090  -46.6020 C.3   654  ARG654      0.1563
    114  C        -86.2830  -30.0010  -46.4660 C.2   654  ARG654      0.2260
    115  O        -86.8110  -30.1460  -45.3610 O.2   654  ARG654     -0.2867
    116  CB       -85.1120  -27.8060  -46.7350 C.3   654  ARG654      0.0307
    117  CG       -85.3660  -27.1960  -45.3940 C.3   654  ARG654      0.0489
    118  CD       -85.2480  -25.6810  -45.3610 C.3   654  ARG654      0.2205
    119  NE       -86.5160  -25.0160  -45.0400 N.pl3 654  ARG654     -0.0865
    120  CZ       -87.3400  -25.3180  -44.0280 C.cat 654  ARG654      0.5346
    121  NH1      -88.4510  -24.6090  -43.8810 N.pl3 654  ARG654      0.1354
    122  NH2      -87.0860  -26.3020  -43.1640 N.pl3 654  ARG654      0.1354
@<TRIPOS>BOND
     1   112   113    1
     2   116   113    1
     3   116   117    1
     4   113   114    1
     5   114   115    2
     6   117   118    1
     7   118   119    1
     8   119   120    2
     9   120   121    1
    10   120   122    1
    11    58    57    1
    12    57    56    1
    13   110   109    1
    14   101   102    1
    15   106   107    1
    16   106   105    1
    17    56    55    1
    18   107   108    1
    19    60    59    1
    20    60    61    1
    21   109   108    2
    22   109   111    1
    23   102   105    1
    24   102   103    1
    25    54    53    2
    26    59    53   am
    27     4     3    2
    28    55    52    1
    29     5     6    1
    30     5     2    1
    31     8     6   ar
    32     8    10   ar
    33    53    52    1
    34    62    61    2
    35    24    23    1
    36    61    63   am
    37     6     7   ar
    38    10     9   ar
    39    52    51    1
    40     3     2    1
    41     3    11   am
    42     2     1    1
    43   103   104    2
    44    23    20    1
    45     7     9   ar
    46    63    64    1
    47   100    98   ar
    48    19    20    1
    49    19    13   am
    50    11    12    1
    51    70    69   ar
    52    12    13    1
    53    12    15    1
    54    20    21    1
    55    17    16    1
    56    16    15    1
    57    16    18    1
    58    98    99   ar
    59    98    97    1
    60    90    89    1
    61    64    65    1
    62    64    67    1
    63    13    14    2
    64    72    73    1
    65    72    65   am
    66    69    71   ar
    67    69    68    1
    68    89    91    1
    69    89    86    1
    70    25    21   am
    71    25    26    1
    72    73    74    1
    73    65    66    2
    74    21    22    2
    75    67    68    1
    76    29    26    1
    77    29    30    1
    78    40    39    2
    79    97    96    1
    80    28    27    2
    81    84    83    1
    82    83    82    1
    83    31    30    1
    84    31    32    1
    85    26    27    1
    86    41    39   am
    87    76    74   am
    88    76    77    1
    89    85    86    1
    90    85    78   am
    91    86    87    1
    92    74    75    2
    93    39    38    1
    94    32    33    1
    95    92    87   am
    96    92    93    1
    97    96    93    1
    98    50    48   am
    99    87    88    2
   100    80    77    1
   101    80    81    1
   102    77    78    1
   103    82    81    1
   104    78    79    2
   105    93    94    1
   106    49    48    2
   107    38    35    1
   108    48    47    1
   109    34    35    1
   110    35    36    1
   111    94    95    2
   112    47    46    1
   113    36    37    2
   114    46    43    1
   115    42    43    1
   116    43    44    1
   117    44    45    2
