@<TRIPOS>MOLECULE
tmp/4qqzA00.pdb
 150 141 0 0 0
SMALL
GASTEIGER

@<TRIPOS>ATOM
      1  N        -25.8580  -17.8240    9.5480 N.3   263  HIS263     -0.1226
      2  CA       -26.2880  -19.1210   10.0430 C.3   263  HIS263      0.1752
      3  C        -27.2900  -19.8060    9.1010 C.2   263  HIS263      0.2595
      4  O        -27.6250  -20.9720    9.2910 O.2   263  HIS263     -0.2718
      5  CB       -26.8760  -18.9850   11.4500 C.3   263  HIS263      0.0759
      6  CG       -28.1710  -18.2280   11.4960 C.ar  263  HIS263      0.0818
      7  ND1      -28.2400  -16.8550   11.3760 N.ar  263  HIS263     -0.2268
      8  CD2      -29.4480  -18.6570   11.6460 C.ar  263  HIS263      0.1154
      9  CE1      -29.5020  -16.4720   11.4540 C.ar  263  HIS263      0.1986
     10  NE2      -30.2560  -17.5460   11.6140 N.ar  263  HIS263     -0.2212
     11  N        -27.7700  -19.0840    8.0900 N.am  264  LEU264     -0.1980
     12  CA       -28.7490  -19.6360    7.1520 C.3   264  LEU264      0.1596
     13  C        -28.0780  -20.1570    5.8990 C.2   264  LEU264      0.2287
     14  O        -27.5590  -19.3820    5.0970 O.2   264  LEU264     -0.2864
     15  CB       -29.8030  -18.5990    6.7660 C.3   264  LEU264      0.0297
     16  CG       -30.7520  -18.1080    7.8560 C.3   264  LEU264      0.0022
     17  CD1      -31.9180  -17.4100    7.2060 C.3   264  LEU264      0.0001
     18  CD2      -31.2460  -19.2310    8.7560 C.3   264  LEU264      0.0001
     19  N        -29.5250  -22.1650    3.3580 N.3   266  LYS266     -0.1245
     20  CA       -30.3240  -22.1140    2.1440 C.3   266  LYS266      0.1561
     21  C        -31.4600  -21.1060    2.2820 C.2   266  LYS266      0.2260
     22  O        -32.5670  -21.4710    2.7030 O.2   266  LYS266     -0.2867
     23  CB       -30.8770  -23.5070    1.8240 C.3   266  LYS266      0.0271
     24  CG       -31.5060  -23.6500    0.4450 C.3   266  LYS266      0.0035
     25  CD       -30.4630  -23.5580   -0.6560 C.3   266  LYS266      0.0206
     26  CE       -31.0990  -23.6410   -2.0400 C.3   266  LYS266      0.1093
     27  NZ       -31.8060  -24.9330   -2.2500 N.3   266  LYS266     -0.1314
     28  N        -34.5830  -18.9530    1.8680 N.3   268  ASN268     -0.1240
     29  CA       -35.9460  -19.1320    1.3760 C.3   268  ASN268      0.1653
     30  C        -36.2140  -18.5580   -0.0250 C.2   268  ASN268      0.2266
     31  O        -35.5280  -17.6510   -0.4950 O.2   268  ASN268     -0.2867
     32  CB       -36.8470  -18.4010    2.3840 C.3   268  ASN268      0.1155
     33  CG       -38.2740  -18.8650    2.3700 C.2   268  ASN268      0.2627
     34  OD1      -38.9700  -18.8090    1.3470 O.2   268  ASN268     -0.2716
     35  ND2      -38.7440  -19.3020    3.5280 N.am  268  ASN268     -0.0877
     36  N        -37.2000  -14.9560    0.8550 N.3   271  GLN271     -0.1245
     37  CA       -35.9800  -14.2220    1.1580 C.3   271  GLN271      0.1566
     38  C        -35.1580  -13.9420   -0.1130 C.2   271  GLN271      0.2260
     39  O        -34.6380  -12.8390   -0.2890 O.2   271  GLN271     -0.2867
     40  CB       -35.1740  -14.9750    2.2210 C.3   271  GLN271      0.0367
     41  CG       -35.9610  -15.1380    3.5100 C.3   271  GLN271      0.0905
     42  CD       -35.3960  -16.1550    4.4960 C.2   271  GLN271      0.2608
     43  OE1      -34.6750  -17.0720    4.1280 O.2   271  GLN271     -0.2717
     44  NE2      -35.7380  -15.9880    5.7620 N.am  271  GLN271     -0.0878
     45  N        -46.9930  -19.0270    7.3130 N.3   294  MET294     -0.1230
     46  CA       -46.2180  -19.3470    8.5010 C.3   294  MET294      0.1702
     47  C        -45.0950  -20.3370    8.1830 C.2   294  MET294      0.2593
     48  O        -45.2680  -21.2780    7.4090 O.2   294  MET294     -0.2718
     49  CB       -47.1660  -19.9500    9.5340 C.3   294  MET294      0.0401
     50  CG       -46.5220  -20.5310   10.7660 C.3   294  MET294      0.0596
     51  SD       -47.6500  -21.6990   11.5400 S.3   294  MET294     -0.1393
     52  CE       -49.2490  -21.0860   11.0200 C.3   294  MET294      0.0692
     53  N        -43.9370  -20.1200    8.7850 N.am  295  GLY295     -0.1942
     54  CA       -42.8080  -20.9780    8.5290 C.3   295  GLY295      0.2014
     55  C        -42.1320  -20.6970    7.2030 C.2   295  GLY295      0.2639
     56  O        -41.5570  -21.6040    6.6110 O.2   295  GLY295     -0.2714
     57  N        -42.1800  -19.4550    6.7290 N.am  296  GLU296     -0.1963
     58  CA       -41.4200  -19.0940    5.5290 C.3   296  GLU296      0.1733
     59  C        -40.3450  -18.0230    5.7360 C.2   296  GLU296      0.2617
     60  O        -39.9760  -17.3420    4.7900 O.2   296  GLU296     -0.2715
     61  CB       -42.3430  -18.6770    4.3870 C.3   296  GLU296      0.0429
     62  CG       -43.1690  -19.8100    3.8090 C.3   296  GLU296      0.1163
     63  CD       -42.3030  -20.9010    3.1690 C.2   296  GLU296      0.3649
     64  OE1      -41.3450  -20.5560    2.4310 O.co2 296  GLU296     -0.2457
     65  OE2      -42.5840  -22.1050    3.4120 O.co2 296  GLU296     -0.2457
     66  N        -39.8270  -17.8860    6.9510 N.am  297  GLY297     -0.1940
     67  CA       -38.7510  -16.9470    7.2000 C.3   297  GLY297      0.2014
     68  C        -39.1570  -15.4840    7.0840 C.2   297  GLY297      0.2639
     69  O        -38.3370  -14.6400    6.7190 O.2   297  GLY297     -0.2714
     70  N        -40.4130  -15.1740    7.4090 N.am  298  LYS298     -0.1963
     71  CA       -40.9030  -13.8000    7.3310 C.3   298  LYS298      0.1728
     72  C        -40.0850  -12.8430    8.1970 C.2   298  LYS298      0.2617
     73  O        -39.8220  -11.7200    7.7830 O.2   298  LYS298     -0.2715
     74  CB       -42.4040  -13.7000    7.6600 C.3   298  LYS298      0.0311
     75  CG       -43.2980  -13.6760    6.4200 C.3   298  LYS298      0.0038
     76  CD       -44.7630  -13.4300    6.7360 C.3   298  LYS298      0.0206
     77  CE       -45.4000  -14.5770    7.4980 C.3   298  LYS298      0.1093
     78  NZ       -46.8500  -14.3740    7.7970 N.3   298  LYS298     -0.1314
     79  N        -39.6710  -13.2910    9.3810 N.am  299  THR299     -0.1937
     80  CA       -38.9120  -12.4400   10.2970 C.3   299  THR299      0.2028
     81  C        -37.6040  -11.9250    9.7120 C.2   299  THR299      0.2642
     82  O        -37.3490  -10.7230    9.7170 O.2   299  THR299     -0.2714
     83  CB       -38.6080  -13.1380   11.6190 C.3   299  THR299      0.1808
     84  OG1      -39.8280  -13.5890   12.2140 O.3   299  THR299     -0.2208
     85  CG2      -37.9150  -12.1750   12.5520 C.3   299  THR299      0.0379
     86  N        -36.7710  -12.8280    9.2090 N.am  300  GLU300     -0.1976
     87  CA       -35.4800  -12.4330    8.6390 C.3   300  GLU300      0.1602
     88  C        -35.6990  -11.5620    7.3940 C.2   300  GLU300      0.2287
     89  O        -34.9820  -10.5790    7.1640 O.2   300  GLU300     -0.2864
     90  CB       -34.6090  -13.6600    8.3030 C.3   300  GLU300      0.0415
     91  CG       -34.0910  -14.4580    9.4970 C.3   300  GLU300      0.1163
     92  CD       -35.1450  -15.3690   10.1090 C.2   300  GLU300      0.3649
     93  OE1      -36.2230  -15.5410    9.4880 O.co2 300  GLU300     -0.2457
     94  OE2      -34.8930  -15.9130   11.2140 O.co2 300  GLU300     -0.2457
     95  N        -39.9900  -11.7550   20.2100 N.3   331  MET331     -0.1245
     96  CA       -39.3930  -11.0310   19.1120 C.3   331  MET331      0.1570
     97  C        -38.3040  -10.1300   19.6390 C.2   331  MET331      0.2261
     98  O        -37.2840   -9.9270   18.9810 O.2   331  MET331     -0.2867
     99  CB       -40.4410  -10.2380   18.3530 C.3   331  MET331      0.0387
    100  CG       -39.8620   -9.3810   17.2250 C.3   331  MET331      0.0595
    101  SD       -39.1800  -10.3480   15.8680 S.3   331  MET331     -0.1393
    102  CE       -40.5780  -11.4450   15.6010 C.3   331  MET331      0.0692
    103  N        -35.2570  -12.3290   19.6160 N.3   334  ARG334     -0.1245
    104  CA       -34.6750  -12.4290   18.2820 C.3   334  ARG334      0.1563
    105  C        -33.9380  -11.1280   17.9090 C.2   334  ARG334      0.2260
    106  O        -32.7680  -11.1660   17.5530 O.2   334  ARG334     -0.2867
    107  CB       -35.7250  -12.7640   17.2010 C.3   334  ARG334      0.0307
    108  CG       -36.7430  -13.8490   17.5320 C.3   334  ARG334      0.0489
    109  CD       -36.3660  -15.1960   16.9640 C.3   334  ARG334      0.2205
    110  NE       -36.4400  -15.2820   15.5040 N.pl3 334  ARG334     -0.0865
    111  CZ       -37.5440  -15.5830   14.8170 C.cat 334  ARG334      0.5346
    112  NH1      -38.7030  -15.8000   15.4450 N.pl3 334  ARG334      0.1354
    113  NH2      -37.4940  -15.6550   13.4890 N.pl3 334  ARG334      0.1354
    114  N        -46.1710   -6.4640   12.3850 N.3   423  ASP423     -0.1225
    115  CA       -46.2560   -7.8550   12.0130 C.3   423  ASP423      0.1805
    116  C        -47.6820   -8.3120   12.2530 C.2   423  ASP423      0.2597
    117  O        -48.3880   -7.6920   13.0350 O.2   423  ASP423     -0.2718
    118  CB       -45.2920   -8.6380   12.8820 C.3   423  ASP423      0.1424
    119  CG       -45.1850  -10.0820   12.4770 C.2   423  ASP423      0.3668
    120  OD1      -45.7110  -10.4510   11.4020 O.co2 423  ASP423     -0.2456
    121  OD2      -44.5520  -10.8520   13.2330 O.co2 423  ASP423     -0.2456
    122  N        -48.1030   -9.3720   11.5690 N.am  424  GLU424     -0.1979
    123  CA       -49.4500   -9.9290   11.7060 C.3   424  GLU424      0.1602
    124  C        -50.5360   -8.8730   11.5300 C.2   424  GLU424      0.2287
    125  O        -51.3910   -8.6940   12.3980 O.2   424  GLU424     -0.2864
    126  CB       -49.6250  -10.6370   13.0540 C.3   424  GLU424      0.0415
    127  CG       -48.5370  -11.6300   13.4040 C.3   424  GLU424      0.1163
    128  CD       -48.5660  -12.8360   12.4980 C.2   424  GLU424      0.3649
    129  OE1      -49.4040  -13.7340   12.7270 O.co2 424  GLU424     -0.2457
    130  OE2      -47.7640  -12.8800   11.5390 O.co2 424  GLU424     -0.2457
    131  N        -42.0460  -28.5420   17.5870 N.3   610  LYS610     -0.1245
    132  CA       -40.8820  -29.0070   16.8470 C.3   610  LYS610      0.1561
    133  C        -39.7750  -29.5300   17.7490 C.2   610  LYS610      0.2260
    134  O        -39.2710  -30.6220   17.5150 O.2   610  LYS610     -0.2867
    135  CB       -40.3640  -27.9110   15.9220 C.3   610  LYS610      0.0271
    136  CG       -39.0770  -28.2440   15.1910 C.3   610  LYS610      0.0035
    137  CD       -38.6780  -27.0860   14.2780 C.3   610  LYS610      0.0206
    138  CE       -37.2370  -27.2110   13.7990 C.3   610  LYS610      0.1093
    139  NZ       -36.7750  -25.9930   13.0540 N.3   610  LYS610     -0.1314
    140  N        -47.9090  -29.2290   10.5730 N.3   659  ARG659     -0.1245
    141  CA       -47.0890  -28.0350   10.4410 C.3   659  ARG659      0.1563
    142  C        -45.6390  -28.3470   10.0440 C.2   659  ARG659      0.2260
    143  O        -44.9920  -27.5840    9.3130 O.2   659  ARG659     -0.2867
    144  CB       -47.1500  -27.2450   11.7520 C.3   659  ARG659      0.0307
    145  CG       -46.0480  -26.2370   11.9650 C.3   659  ARG659      0.0489
    146  CD       -46.2220  -25.0180   11.0890 C.3   659  ARG659      0.2205
    147  NE       -45.4130  -23.9100   11.5850 N.pl3 659  ARG659     -0.0865
    148  CZ       -44.1690  -23.6630   11.1980 C.cat 659  ARG659      0.5346
    149  NH1      -43.5050  -22.6390   11.7140 N.pl3 659  ARG659      0.1354
    150  NH2      -43.5900  -24.4420   10.2980 N.pl3 659  ARG659      0.1354
@<TRIPOS>BOND
     1    27    26    1
     2    26    25    1
     3    25    24    1
     4    31    30    2
     5    39    38    2
     6    38    37    1
     7    30    29    1
     8    24    23    1
     9    36    37    1
    10    37    40    1
    11    34    33    2
    12    29    28    1
    13    29    32    1
    14    23    20    1
    15    20    21    1
    16    20    19    1
    17    40    41    1
    18    21    22    2
    19    33    32    1
    20    33    35   am
    21    64    63   ar
    22    63    65   ar
    23    63    62    1
    24    41    42    1
    25    62    61    1
    26    43    42    2
    27    61    58    1
    28    42    44   am
    29    60    59    2
    30    14    13    2
    31    58    59    1
    32    58    57    1
    33    59    66   am
    34    13    12    1
    35    75    76    1
    36    75    74    1
    37    56    55    2
    38    69    68    2
    39    57    55   am
    40    76    77    1
    41    15    12    1
    42    15    16    1
    43    66    67    1
    44    68    67    1
    45    68    70   am
    46    12    11    1
    47    89    88    2
    48    55    54    1
    49    17    16    1
    50    45    46    1
    51    71    70    1
    52    71    74    1
    53    71    72    1
    54    88    87    1
    55    48    47    2
    56    77    78    1
    57    73    72    2
    58    16    18    1
    59    11     3   am
    60    47    46    1
    61    47    53   am
    62    72    79   am
    63    90    87    1
    64    90    91    1
    65    46    49    1
    66    54    53    1
    67    87    86    1
    68     3     4    2
    69     3     2    1
    70    86    81   am
    71   143   142    2
    72    79    80    1
    73    93    92   ar
    74    91    92    1
    75    49    50    1
    76     1     2    1
    77    81    82    2
    78    81    80    1
    79     2     5    1
    80   142   141    1
    81    92    94   ar
    82    80    83    1
    83   150   148    1
    84   141   140    1
    85   141   144    1
    86    50    51    1
    87    52    51    1
    88   146   147    1
    89   146   145    1
    90   148   147    2
    91   148   149    1
    92     7     9   ar
    93     7     6   ar
    94   120   119   ar
    95     5     6    1
    96     9    10   ar
    97     6     8   ar
    98   124   123    1
    99   124   125    2
   100   130   128   ar
   101   122   123    1
   102   122   116   am
   103    10     8   ar
   104    83    84    1
   105    83    85    1
   106   123   126    1
   107   144   145    1
   108   115   116    1
   109   115   114    1
   110   115   118    1
   111   116   117    2
   112   119   118    1
   113   119   121   ar
   114   128   129   ar
   115   128   127    1
   116   139   138    1
   117   126   127    1
   118   113   111    1
   119   138   137    1
   120   137   136    1
   121   111   112    1
   122   111   110    2
   123   136   135    1
   124   110   109    1
   125   102   101    1
   126   101   100    1
   127   135   132    1
   128   132   131    1
   129   132   133    1
   130   109   108    1
   131   107   108    1
   132   107   104    1
   133   100    99    1
   134   134   133    2
   135   106   105    2
   136   105   104    1
   137   104   103    1
   138    99    96    1
   139    98    97    2
   140    96    97    1
   141    96    95    1
