@<TRIPOS>MOLECULE
tmp/4qr3A00.pdb
 134 129 0 0 0
SMALL
GASTEIGER

@<TRIPOS>ATOM
      1  N          2.0450   -0.3510    0.8340 N.3    40  TRP40      -0.1228
      2  CA         1.7230   -1.6560    1.4050 C.3    40  TRP40       0.1722
      3  C          2.9010   -2.5710    1.8070 C.2    40  TRP40       0.2437
      4  O          2.8080   -3.2480    2.8330 O.2    40  TRP40      -0.2733
      5  CB         0.6850   -2.4030    0.5380 C.3    40  TRP40       0.0563
      6  CG         1.1620   -2.7460   -0.8330 C.ar   40  TRP40       0.0003
      7  CD1        0.9760   -2.0180   -1.9720 C.ar   40  TRP40       0.0946
      8  CD2        1.9220   -3.9030   -1.2160 C.ar   40  TRP40       0.0152
      9  NE1        1.5770   -2.6430   -3.0370 N.ar   40  TRP40      -0.2442
     10  CE2        2.1590   -3.8050   -2.5980 C.ar   40  TRP40       0.0810
     11  CE3        2.4260   -5.0120   -0.5200 C.ar   40  TRP40       0.0012
     12  CZ2        2.8740   -4.7630   -3.3000 C.ar   40  TRP40       0.0191
     13  CZ3        3.1390   -5.9670   -1.2230 C.ar   40  TRP40       0.0001
     14  CH2        3.3590   -5.8350   -2.5990 C.ar   40  TRP40       0.0015
     15  N          4.0150   -2.5900    1.0390 N.am   41  PRO41      -0.2718
     16  CA         5.0850   -3.4940    1.4900 C.3    41  PRO41       0.1535
     17  C          5.7520   -3.0280    2.7830 C.2    41  PRO41       0.2598
     18  O          6.4720   -3.7940    3.4260 O.2    41  PRO41      -0.2715
     19  CB         6.1060   -3.4390    0.3430 C.3    41  PRO41       0.0310
     20  CG         5.3400   -2.9210   -0.8420 C.3    41  PRO41       0.0237
     21  CD         4.3630   -1.9450   -0.2410 C.3    41  PRO41       0.0939
     22  N          5.5140   -1.7740    3.1530 N.am   42  PHE42      -0.1974
     23  CA         6.2610   -1.1440    4.2270 C.3    42  PHE42       0.1639
     24  C          5.3980   -0.9160    5.4530 C.2    42  PHE42       0.2290
     25  O          5.8410   -0.2790    6.4040 O.2    42  PHE42      -0.2864
     26  CB         6.8720    0.1760    3.7380 C.3    42  PHE42       0.0560
     27  CG         7.6700    0.0240    2.4710 C.ar   42  PHE42      -0.0200
     28  CD1        8.9550   -0.4940    2.5150 C.ar   42  PHE42      -0.0042
     29  CD2        7.1270    0.3680    1.2380 C.ar   42  PHE42      -0.0042
     30  CE1        9.6970   -0.6670    1.3490 C.ar   42  PHE42      -0.0003
     31  CE2        7.8660    0.2050    0.0640 C.ar   42  PHE42      -0.0003
     32  CZ         9.1450   -0.3150    0.1220 C.ar   42  PHE42      -0.0000
     33  N          4.3310   -3.1120    7.6390 N.3    44  GLN44      -0.1245
     34  CA         4.5640   -4.0760    8.7110 C.3    44  GLN44       0.1566
     35  C          5.9660   -4.6290    8.5440 C.2    44  GLN44       0.2260
     36  O          6.5410   -4.5330    7.4580 O.2    44  GLN44      -0.2867
     37  CB         3.5340   -5.2120    8.6560 C.3    44  GLN44       0.0367
     38  CG         3.5370   -5.9930    7.3500 C.3    44  GLN44       0.0905
     39  CD         2.8570   -5.2420    6.2180 C.2    44  GLN44       0.2608
     40  OE1        1.7370   -4.7540    6.3730 O.2    44  GLN44      -0.2717
     41  NE2        3.5350   -5.1350    5.0860 N.am   44  GLN44      -0.0878
     42  N          8.9820   -6.9970    7.6710 N.3    46  VAL46      -0.1245
     43  CA         9.1370   -8.0720    6.7040 C.3    46  VAL46       0.1561
     44  C          8.9770   -9.4280    7.4000 C.2    46  VAL46       0.2260
     45  O          9.6470   -9.7150    8.3900 O.2    46  VAL46      -0.2867
     46  CB        10.5050   -7.9940    6.0070 C.3    46  VAL46       0.0252
     47  CG1       10.7680   -9.2600    5.1950 C.3    46  VAL46       0.0019
     48  CG2       10.5770   -6.7430    5.1350 C.3    46  VAL46       0.0019
     49  N          6.9580  -14.4020    3.2140 N.3    51  LEU51      -0.1245
     50  CA         7.4600  -13.9570    1.9160 C.3    51  LEU51       0.1561
     51  C          8.5350  -14.8620    1.3350 C.2    51  LEU51       0.2260
     52  O          8.9920  -14.6220    0.2190 O.2    51  LEU51      -0.2867
     53  CB         7.9970  -12.5250    2.0310 C.3    51  LEU51       0.0270
     54  CG         6.9560  -11.4730    2.4280 C.3    51  LEU51       0.0019
     55  CD1        7.6010  -10.1410    2.8050 C.3    51  LEU51       0.0001
     56  CD2        5.9730  -11.2860    1.2850 C.3    51  LEU51       0.0001
     57  N         11.7040  -15.3360    2.2990 N.3    53  LEU53      -0.1245
     58  CA        12.9270  -14.5460    2.1880 C.3    53  LEU53       0.1561
     59  C         13.8530  -14.9190    3.3390 C.2    53  LEU53       0.2260
     60  O         14.0850  -14.1250    4.2430 O.2    53  LEU53      -0.2867
     61  CB        12.5970  -13.0520    2.2500 C.3    53  LEU53       0.0270
     62  CG        11.7110  -12.4630    1.1450 C.3    53  LEU53       0.0019
     63  CD1       11.3760  -10.9960    1.3970 C.3    53  LEU53       0.0001
     64  CD2       12.3670  -12.6340   -0.2220 C.3    53  LEU53       0.0001
     65  N         16.5610  -12.4280    4.3850 N.3    56  TYR56      -0.1241
     66  CA        16.2800  -11.0200    4.6670 C.3    56  TYR56       0.1605
     67  C         17.0120  -10.5070    5.8990 C.2    56  TYR56       0.2264
     68  O         17.7320   -9.5090    5.8290 O.2    56  TYR56      -0.2867
     69  CB        14.7820  -10.7320    4.8090 C.3    56  TYR56       0.0534
     70  CG        14.5420   -9.2380    4.9420 C.ar   56  TYR56      -0.0201
     71  CD1       14.5170   -8.4230    3.8190 C.ar   56  TYR56      -0.0009
     72  CD2       14.4060   -8.6420    6.1940 C.ar   56  TYR56      -0.0009
     73  CE1       14.3310   -7.0600    3.9310 C.ar   56  TYR56       0.0417
     74  CE2       14.2170   -7.2760    6.3190 C.ar   56  TYR56       0.0417
     75  CZ        14.1830   -6.4990    5.1800 C.ar   56  TYR56       0.1957
     76  OH        14.0060   -5.1410    5.3070 O.3    56  TYR56      -0.2866
     77  N         14.3970    2.6450    7.0170 N.3    91  MET91      -0.1245
     78  CA        13.4670    1.8390    6.2390 C.3    91  MET91       0.1570
     79  C         13.7620    1.9270    4.7400 C.2    91  MET91       0.2261
     80  O         13.8280    0.9110    4.0470 O.2    91  MET91      -0.2867
     81  CB        12.0280    2.2730    6.5310 C.3    91  MET91       0.0387
     82  CG        10.9810    1.5330    5.7130 C.3    91  MET91       0.0595
     83  SD         9.3230    2.1390    6.0580 S.3    91  MET91      -0.1393
     84  CE         9.3380    3.6740    5.1370 C.3    91  MET91       0.0692
     85  N         15.6810   -1.0620    2.1300 N.3    95  CYS95      -0.1235
     86  CA        15.0950   -1.5250    0.8890 C.3    95  CYS95       0.1677
     87  C         16.1200   -1.4860   -0.2430 C.2    95  CYS95       0.2270
     88  O         16.2210   -2.4300   -1.0280 O.2    95  CYS95      -0.2867
     89  CB        13.8530   -0.7010    0.5430 C.3    95  CYS95       0.0956
     90  SG        12.9750   -1.3110   -0.9130 S.3    95  CYS95      -0.0801
     91  N         18.7420   -4.3640    0.4760 N.3    98  TYR98      -0.1227
     92  CA        18.3090   -5.7450    0.3180 C.3    98  TYR98       0.1736
     93  C         18.0430   -6.1150   -1.1400 C.2    98  TYR98       0.2595
     94  O         18.1320   -7.2870   -1.5220 O.2    98  TYR98      -0.2718
     95  CB        17.0790   -6.0520    1.1890 C.3    98  TYR98       0.0548
     96  CG        16.6160   -7.4750    0.9950 C.ar   98  TYR98      -0.0200
     97  CD1       17.3800   -8.5330    1.4650 C.ar   98  TYR98      -0.0009
     98  CD2       15.4490   -7.7610    0.3060 C.ar   98  TYR98      -0.0009
     99  CE1       16.9900   -9.8420    1.2620 C.ar   98  TYR98       0.0417
    100  CE2       15.0510   -9.0620    0.0980 C.ar   98  TYR98       0.0417
    101  CZ        15.8230  -10.0950    0.5810 C.ar   98  TYR98       0.1957
    102  OH        15.4240  -11.3970    0.3720 O.3    98  TYR98      -0.2866
    103  N         17.7380   -5.1160   -1.9590 N.am   99  ASN99      -0.1974
    104  CA        17.3290   -5.3740   -3.3290 C.3    99  ASN99       0.1688
    105  C         18.3710   -4.8990   -4.3390 C.2    99  ASN99       0.2292
    106  O         19.5610   -4.9280   -4.0310 O.2    99  ASN99      -0.2864
    107  CB        15.9360   -4.7900   -3.5570 C.3    99  ASN99       0.1181
    108  CG        14.9170   -5.3820   -2.5980 C.2    99  ASN99       0.2629
    109  OD1       14.4820   -6.5170   -2.7780 O.2    99  ASN99      -0.2716
    110  ND2       14.5770   -4.6410   -1.5440 N.am   99  ASN99      -0.0877
    111  N         11.1310   -3.5140   -8.7730 N.3   104  ASP104     -0.1225
    112  CA         9.8190   -2.9290   -8.4920 C.3   104  ASP104      0.1805
    113  C          9.7270   -2.3890   -7.0650 C.2   104  ASP104      0.2597
    114  O          9.2240   -1.2890   -6.8440 O.2   104  ASP104     -0.2718
    115  CB         8.6860   -3.9290   -8.7460 C.3   104  ASP104      0.1424
    116  CG         8.2840   -4.0130  -10.2150 C.2   104  ASP104      0.3668
    117  OD1        8.7700   -3.1980  -11.0280 O.co2 104  ASP104     -0.2456
    118  OD2        7.4440   -4.8760  -10.5380 O.co2 104  ASP104     -0.2456
    119  N         10.2260   -3.1510   -6.0950 N.am  105  ILE105     -0.1980
    120  CA        10.1590   -2.7100   -4.7050 C.3   105  ILE105      0.1595
    121  C         11.0110   -1.4600   -4.4720 C.2   105  ILE105      0.2287
    122  O         10.6560   -0.6020   -3.6700 O.2   105  ILE105     -0.2864
    123  CB        10.5240   -3.8600   -3.7310 C.3   105  ILE105      0.0276
    124  CG1       10.2290   -3.4680   -2.2860 C.3   105  ILE105      0.0022
    125  CG2       11.9650   -4.2830   -3.8980 C.3   105  ILE105      0.0022
    126  CD1        8.7640   -3.3470   -1.9950 C.3   105  ILE105      0.0001
    127  N          9.2050    1.5360   -5.7170 N.3   108  MET108     -0.1245
    128  CA         8.2290    1.9250   -4.7110 C.3   108  MET108      0.1570
    129  C          8.8620    2.7380   -3.5860 C.2   108  MET108      0.2261
    130  O          8.3560    3.7970   -3.2320 O.2   108  MET108     -0.2867
    131  CB         7.5250    0.6910   -4.1500 C.3   108  MET108      0.0387
    132  CG         6.7320   -0.0510   -5.2070 C.3   108  MET108      0.0595
    133  SD         6.1100   -1.5970   -4.5530 S.3   108  MET108     -0.1393
    134  CE         4.5590   -1.1080   -3.9040 C.3   108  MET108      0.0692
@<TRIPOS>BOND
     1   117   116   ar
     2   118   116   ar
     3   116   115    1
     4   111   112    1
     5   115   112    1
     6   112   113    1
     7   113   114    2
     8   113   119   am
     9   119   120    1
    10   127   128    1
    11   132   133    1
    12   132   131    1
    13   128   131    1
    14   128   129    1
    15   120   121    1
    16   120   123    1
    17   133   134    1
    18   121   122    2
    19   105   106    2
    20   105   104    1
    21   125   123    1
    22   123   124    1
    23   129   130    2
    24   107   104    1
    25   107   108    1
    26   104   103    1
    27    12    14   ar
    28    12    10   ar
    29     9    10   ar
    30     9     7   ar
    31   109   108    2
    32    14    13   ar
    33   108   110   am
    34    10     8   ar
    35   124   126    1
    36     7     6   ar
    37   103    93   am
    38    94    93    2
    39    13    11   ar
    40     8     6   ar
    41     8    11   ar
    42    93    92    1
    43    88    87    2
    44    90    89    1
    45    20    21    1
    46    20    19    1
    47     6     5    1
    48    87    86    1
    49    21    15    1
    50    64    62    1
    51    31    32   ar
    52    31    29   ar
    53   100    98   ar
    54   100   101   ar
    55    32    30   ar
    56    52    51    2
    57    98    96   ar
    58    92    91    1
    59    92    95    1
    60    19    16    1
    61   102   101    1
    62     5     2    1
    63    89    86    1
    64   101    99   ar
    65     1     2    1
    66    86    85    1
    67    96    95    1
    68    96    97   ar
    69    15    16    1
    70    15     3   am
    71    62    63    1
    72    62    61    1
    73    29    27   ar
    74    99    97   ar
    75    56    54    1
    76    51    50    1
    77    30    28   ar
    78     2     3    1
    79    16    17    1
    80     3     4    2
    81    50    53    1
    82    50    49    1
    83    53    54    1
    84    58    61    1
    85    58    57    1
    86    58    59    1
    87    54    55    1
    88    27    28   ar
    89    27    26    1
    90    17    22   am
    91    17    18    2
    92    22    23    1
    93    59    60    2
    94    26    23    1
    95    71    73   ar
    96    71    70   ar
    97    73    75   ar
    98    80    79    2
    99    23    24    1
   100    65    66    1
   101    66    69    1
   102    66    67    1
   103    79    78    1
   104    69    70    1
   105    70    72   ar
   106    41    39   am
   107    48    46    1
   108    84    83    1
   109    75    76    1
   110    75    74   ar
   111    47    46    1
   112    24    25    2
   113    82    83    1
   114    82    81    1
   115    68    67    2
   116    46    43    1
   117    72    74   ar
   118    39    40    2
   119    39    38    1
   120    78    81    1
   121    78    77    1
   122    43    44    1
   123    43    42    1
   124    38    37    1
   125    44    45    2
   126    36    35    2
   127    33    34    1
   128    35    34    1
   129    37    34    1
