@<TRIPOS>MOLECULE
tmp/4qr5A00.pdb
 135 131 0 0 0
SMALL
GASTEIGER

@<TRIPOS>ATOM
      1  N         -1.8690   -0.4050   -0.8840 N.3    40  TRP40      -0.1228
      2  CA        -1.5760   -1.7330   -1.4220 C.3    40  TRP40       0.1722
      3  C         -2.7740   -2.6320   -1.8180 C.2    40  TRP40       0.2437
      4  O         -2.6930   -3.3090   -2.8410 O.2    40  TRP40      -0.2733
      5  CB        -0.5570   -2.4820   -0.5290 C.3    40  TRP40       0.0563
      6  CG        -1.0370   -2.7550    0.8660 C.ar   40  TRP40       0.0003
      7  CD1       -0.8490   -1.9690    1.9650 C.ar   40  TRP40       0.0946
      8  CD2       -1.8000   -3.8880    1.3100 C.ar   40  TRP40       0.0152
      9  NE1       -1.4450   -2.5420    3.0660 N.ar   40  TRP40      -0.2442
     10  CE2       -2.0410   -3.7190    2.6830 C.ar   40  TRP40       0.0810
     11  CE3       -2.3100   -5.0280    0.6690 C.ar   40  TRP40       0.0012
     12  CZ2       -2.7610   -4.6450    3.4330 C.ar   40  TRP40       0.0191
     13  CZ3       -3.0250   -5.9460    1.4180 C.ar   40  TRP40       0.0001
     14  CH2       -3.2440   -5.7500    2.7820 C.ar   40  TRP40       0.0015
     15  N         -3.8930   -2.6270   -1.0540 N.am   41  PRO41      -0.2718
     16  CA        -4.9980   -3.4900   -1.5040 C.3    41  PRO41       0.1535
     17  C         -5.6460   -3.0120   -2.8070 C.2    41  PRO41       0.2598
     18  O         -6.3910   -3.7660   -3.4420 O.2    41  PRO41      -0.2715
     19  CB        -6.0220   -3.3710   -0.3660 C.3    41  PRO41       0.0310
     20  CG        -5.2380   -2.8920    0.8220 C.3    41  PRO41       0.0237
     21  CD        -4.2110   -1.9770    0.2340 C.3    41  PRO41       0.0939
     22  N         -5.3610   -1.7630   -3.1820 N.am   42  PHE42      -0.1974
     23  CA        -6.0620   -1.0870   -4.2690 C.3    42  PHE42       0.1639
     24  C         -5.1830   -0.8570   -5.4950 C.2    42  PHE42       0.2290
     25  O         -5.6010   -0.1780   -6.4310 O.2    42  PHE42      -0.2864
     26  CB        -6.6440    0.2390   -3.7570 C.3    42  PHE42       0.0560
     27  CG        -7.4860    0.0760   -2.5240 C.ar   42  PHE42      -0.0200
     28  CD1       -8.7850   -0.4100   -2.6170 C.ar   42  PHE42      -0.0042
     29  CD2       -6.9630    0.3580   -1.2650 C.ar   42  PHE42      -0.0042
     30  CE1       -9.5640   -0.5940   -1.4760 C.ar   42  PHE42      -0.0003
     31  CE2       -7.7350    0.1860   -0.1180 C.ar   42  PHE42      -0.0003
     32  CZ        -9.0350   -0.2870   -0.2170 C.ar   42  PHE42      -0.0000
     33  N         -4.1460   -3.0490   -7.6970 N.3    44  GLN44      -0.1245
     34  CA        -4.3710   -4.0310   -8.7570 C.3    44  GLN44       0.1566
     35  C         -5.7840   -4.5700   -8.6350 C.2    44  GLN44       0.2260
     36  O         -6.4060   -4.4560   -7.5750 O.2    44  GLN44      -0.2867
     37  CB        -3.3750   -5.1930   -8.6240 C.3    44  GLN44       0.0367
     38  CG        -3.4710   -5.9570   -7.3120 C.3    44  GLN44       0.0905
     39  CD        -2.8810   -5.1840   -6.1440 C.2    44  GLN44       0.2608
     40  OE1       -1.7360   -4.7440   -6.2020 O.2    44  GLN44      -0.2717
     41  NE2       -3.6700   -5.0020   -5.0900 N.am   44  GLN44      -0.0878
     42  N         -8.7630   -7.0230   -7.8250 N.3    46  VAL46      -0.1245
     43  CA        -8.9290   -8.1040   -6.8570 C.3    46  VAL46       0.1561
     44  C         -8.7570   -9.4670   -7.5340 C.2    46  VAL46       0.2260
     45  O         -9.4170   -9.7630   -8.5260 O.2    46  VAL46      -0.2867
     46  CB       -10.3160   -8.0330   -6.1710 C.3    46  VAL46       0.0252
     47  CG1      -10.5930   -9.3120   -5.3710 C.3    46  VAL46       0.0019
     48  CG2      -10.4170   -6.7980   -5.2680 C.3    46  VAL46       0.0019
     49  N         -6.4710  -15.9080   -5.5640 N.3    50  LYS50      -0.1231
     50  CA        -5.3530  -15.6020   -4.6770 C.3    50  LYS50       0.1693
     51  C         -5.8420  -15.2510   -3.2820 C.2    50  LYS50       0.2591
     52  O         -5.3710  -15.8070   -2.2840 O.2    50  LYS50      -0.2718
     53  CB        -4.5640  -14.4170   -5.2400 C.3    50  LYS50       0.0285
     54  CG        -3.4360  -13.9150   -4.3480 C.3    50  LYS50       0.0035
     55  CD        -2.1890  -14.7700   -4.4860 C.3    50  LYS50       0.0206
     56  CE        -0.9690  -14.0680   -3.8980 C.3    50  LYS50       0.1093
     57  NZ        -0.9480  -14.0940   -2.4130 N.3    50  LYS50      -0.1314
     58  N         -6.8090  -14.3420   -3.2210 N.am   51  LEU51      -0.1980
     59  CA        -7.2590  -13.7790   -1.9530 C.3    51  LEU51       0.1596
     60  C         -8.3360  -14.6110   -1.2660 C.2    51  LEU51       0.2287
     61  O         -8.7560  -14.2810   -0.1500 O.2    51  LEU51      -0.2864
     62  CB        -7.7650  -12.3520   -2.1690 C.3    51  LEU51       0.0297
     63  CG        -6.6880  -11.3750   -2.6410 C.3    51  LEU51       0.0022
     64  CD1       -7.2850   -9.9980   -2.8760 C.3    51  LEU51       0.0001
     65  CD2       -5.5660  -11.2990   -1.6090 C.3    51  LEU51       0.0001
     66  N        -11.5040  -14.9760   -2.0920 N.3    53  LEU53      -0.1245
     67  CA       -12.7530  -14.2260   -2.0380 C.3    53  LEU53       0.1561
     68  C        -13.6220  -14.6730   -3.2040 C.2    53  LEU53       0.2260
     69  O        -13.8430  -13.9200   -4.1470 O.2    53  LEU53      -0.2867
     70  CB       -12.4740  -12.7270   -2.1280 C.3    53  LEU53       0.0270
     71  CG       -11.5010  -12.1670   -1.0890 C.3    53  LEU53       0.0019
     72  CD1      -11.1400  -10.7210   -1.3970 C.3    53  LEU53       0.0001
     73  CD2      -12.1070  -12.2860    0.3000 C.3    53  LEU53       0.0001
     74  N        -16.3270  -12.3730   -4.5830 N.3    56  TYR56      -0.1241
     75  CA       -16.0340  -10.9590   -4.8500 C.3    56  TYR56       0.1605
     76  C        -16.7710  -10.4340   -6.0760 C.2    56  TYR56       0.2264
     77  O        -17.4680   -9.4180   -6.0050 O.2    56  TYR56      -0.2867
     78  CB       -14.5410  -10.6750   -4.9920 C.3    56  TYR56       0.0534
     79  CG       -14.3200   -9.1790   -5.1020 C.ar   56  TYR56      -0.0201
     80  CD1      -14.3480   -8.3820   -3.9720 C.ar   56  TYR56      -0.0009
     81  CD2      -14.1530   -8.5720   -6.3360 C.ar   56  TYR56      -0.0009
     82  CE1      -14.1830   -7.0140   -4.0630 C.ar   56  TYR56       0.0417
     83  CE2      -13.9960   -7.1990   -6.4370 C.ar   56  TYR56       0.0417
     84  CZ       -14.0070   -6.4340   -5.2930 C.ar   56  TYR56       0.1957
     85  OH       -13.8500   -5.0730   -5.3730 O.3    56  TYR56      -0.2866
     86  N        -15.4660   -1.0410   -2.2240 N.3    95  CYS95      -0.1235
     87  CA       -14.8890   -1.5100   -0.9800 C.3    95  CYS95       0.1677
     88  C        -15.9240   -1.4550    0.1450 C.2    95  CYS95       0.2270
     89  O        -16.0420   -2.3880    0.9370 O.2    95  CYS95      -0.2867
     90  CB       -13.6440   -0.6970   -0.6270 C.3    95  CYS95       0.0956
     91  SG       -12.7950   -1.3130    0.8560 S.3    95  CYS95      -0.0801
     92  N        -18.5460   -4.3470   -0.6360 N.3    98  TYR98      -0.1227
     93  CA       -18.1210   -5.7340   -0.4740 C.3    98  TYR98       0.1736
     94  C        -17.8360   -6.0710    0.9820 C.2    98  TYR98       0.2595
     95  O        -17.8830   -7.2370    1.3800 O.2    98  TYR98      -0.2718
     96  CB       -16.8940   -6.0610   -1.3350 C.3    98  TYR98       0.0548
     97  CG       -16.4700   -7.5090   -1.1730 C.ar   98  TYR98      -0.0200
     98  CD1      -17.2480   -8.5430   -1.6870 C.ar   98  TYR98      -0.0009
     99  CD2      -15.3140   -7.8380   -0.4800 C.ar   98  TYR98      -0.0009
    100  CE1      -16.8760   -9.8700   -1.5160 C.ar   98  TYR98       0.0417
    101  CE2      -14.9340   -9.1620   -0.3020 C.ar   98  TYR98       0.0417
    102  CZ       -15.7180  -10.1680   -0.8260 C.ar   98  TYR98       0.1957
    103  OH       -15.3390  -11.4810   -0.6410 O.3    98  TYR98      -0.2866
    104  N        -17.5640   -5.0510    1.7880 N.am   99  ASN99      -0.1974
    105  CA       -17.1690   -5.2940    3.1650 C.3    99  ASN99       0.1688
    106  C        -18.2310   -4.7790    4.1170 C.2    99  ASN99       0.2292
    107  O        -19.4150   -4.8590    3.7960 O.2    99  ASN99      -0.2864
    108  CB       -15.7690   -4.7320    3.3910 C.3    99  ASN99       0.1181
    109  CG       -14.7590   -5.3550    2.4430 C.2    99  ASN99       0.2629
    110  OD1      -14.3580   -6.5130    2.6220 O.2    99  ASN99      -0.2716
    111  ND2      -14.3890   -4.6210    1.3940 N.am   99  ASN99      -0.0877
    112  N        -11.0370   -3.5280    8.7590 N.3   104  ASP104     -0.1225
    113  CA        -9.7260   -2.9370    8.5090 C.3   104  ASP104      0.1805
    114  C         -9.6120   -2.4090    7.0640 C.2   104  ASP104      0.2597
    115  O         -9.1020   -1.3120    6.8310 O.2   104  ASP104     -0.2718
    116  CB        -8.5980   -3.9430    8.7990 C.3   104  ASP104      0.1424
    117  CG        -8.2110   -4.0060   10.2780 C.2   104  ASP104      0.3668
    118  OD1       -8.7460   -3.2260   11.0870 O.co2 104  ASP104     -0.2456
    119  OD2       -7.3330   -4.8240   10.6080 O.co2 104  ASP104     -0.2456
    120  N        -10.1040   -3.1810    6.1000 N.am  105  ILE105     -0.1980
    121  CA       -10.0200   -2.7650    4.7040 C.3   105  ILE105      0.1595
    122  C        -10.8430   -1.4910    4.4560 C.2   105  ILE105      0.2287
    123  O        -10.4620   -0.6450    3.6470 O.2   105  ILE105     -0.2864
    124  CB       -10.4170   -3.9120    3.7350 C.3   105  ILE105      0.0276
    125  CG1      -10.1060   -3.5260    2.2860 C.3   105  ILE105      0.0022
    126  CG2      -11.8800   -4.2900    3.8990 C.3   105  ILE105      0.0022
    127  CD1       -8.6420   -3.3540    2.0200 C.3   105  ILE105      0.0001
    128  N         -9.0660    1.5230    5.6970 N.3   108  MET108     -0.1245
    129  CA        -8.0560    1.8760    4.7160 C.3   108  MET108      0.1570
    130  C         -8.6610    2.6980    3.5890 C.2   108  MET108      0.2261
    131  O         -8.1460    3.7620    3.2370 O.2   108  MET108     -0.2867
    132  CB        -7.3930    0.6210    4.1550 C.3   108  MET108      0.0387
    133  CG        -6.5910   -0.1060    5.2030 C.3   108  MET108      0.0595
    134  SD        -5.9060   -1.6390    4.5970 S.3   108  MET108     -0.1393
    135  CE        -4.3610   -1.1630    3.9100 C.3   108  MET108      0.0692
@<TRIPOS>BOND
     1    34    35    1
     2    34    37    1
     3    34    33    1
     4    35    36    2
     5    37    38    1
     6    45    44    2
     7    42    43    1
     8    44    43    1
     9    38    39    1
    10    43    46    1
    11    83    81   ar
    12    83    84   ar
    13    25    24    2
    14    81    79   ar
    15    40    39    2
    16    46    47    1
    17    46    48    1
    18    39    41   am
    19    76    77    2
    20    76    75    1
    21    49    50    1
    22    24    23    1
    23    85    84    1
    24    84    82   ar
    25    53    50    1
    26    53    54    1
    27    79    78    1
    28    79    80   ar
    29    78    75    1
    30    75    74    1
    31    50    51    1
    32    55    54    1
    33    55    56    1
    34    23    26    1
    35    23    22    1
    36    69    68    2
    37    82    80   ar
    38    56    57    1
    39    26    27    1
    40    18    17    2
    41    51    58   am
    42    51    52    2
    43    58    59    1
    44    68    67    1
    45    22    17   am
    46    64    63    1
    47     4     3    2
    48    17    16    1
    49    63    62    1
    50    63    65    1
    51    28    27   ar
    52    28    30   ar
    53    27    29   ar
    54    86    87    1
    55    62    59    1
    56    70    67    1
    57    70    71    1
    58    66    67    1
    59    59    60    1
    60     3     2    1
    61     3    15   am
    62    98   100   ar
    63    98    97   ar
    64   100   102   ar
    65    16    15    1
    66    16    19    1
    67    30    32   ar
    68     2     1    1
    69     2     5    1
    70    72    71    1
    71    96    97    1
    72    96    93    1
    73    60    61    2
    74    29    31   ar
    75    97    99   ar
    76    71    73    1
    77    15    21    1
    78    87    90    1
    79    87    88    1
    80   102   103    1
    81   102   101   ar
    82    92    93    1
    83    90    91    1
    84     5     6    1
    85    99   101   ar
    86    93    94    1
    87    19    20    1
    88    32    31   ar
    89    88    89    2
    90    21    20    1
    91    11     8   ar
    92    11    13   ar
    93     6     8   ar
    94     6     7   ar
    95    94    95    2
    96    94   104   am
    97     8    10   ar
    98   111   109   am
    99    13    14   ar
   100   104   105    1
   101     7     9   ar
   102   127   125    1
   103   125   124    1
   104   109   110    2
   105   109   108    1
   106    10     9   ar
   107    10    12   ar
   108    14    12   ar
   109   105   108    1
   110   105   106    1
   111   131   130    2
   112   130   129    1
   113   123   122    2
   114   124   126    1
   115   124   121    1
   116   107   106    2
   117   135   134    1
   118   132   129    1
   119   132   133    1
   120   122   121    1
   121   134   133    1
   122   121   120    1
   123   129   128    1
   124   120   114   am
   125   115   114    2
   126   114   113    1
   127   113   112    1
   128   113   116    1
   129   116   117    1
   130   117   119   ar
   131   117   118   ar
