@<TRIPOS>MOLECULE
tmp/4qr6A01.pdb
 195 198 0 0 0
SMALL
GASTEIGER

@<TRIPOS>ATOM
      1  N         63.5930   -9.2630   49.3200 N.3    21  TRP21      -0.1241
      2  CA        64.0760   -9.9550   48.1250 C.3    21  TRP21       0.1605
      3  C         65.1810  -10.9340   48.5310 C.2    21  TRP21       0.2264
      4  O         66.1490  -10.5400   49.1920 O.2    21  TRP21      -0.2867
      5  CB        64.5750   -8.9550   47.0760 C.3    21  TRP21       0.0550
      6  CG        65.2490   -9.5910   45.8890 C.ar   21  TRP21       0.0003
      7  CD1       64.8850  -10.7430   45.2400 C.ar   21  TRP21       0.0946
      8  CD2       66.4290   -9.1220   45.2400 C.ar   21  TRP21       0.0152
      9  NE1       65.7730  -11.0120   44.2250 N.ar   21  TRP21      -0.2442
     10  CE2       66.7320  -10.0310   44.2080 C.ar   21  TRP21       0.0810
     11  CE3       67.2640   -8.0140   45.4310 C.ar   21  TRP21       0.0012
     12  CZ2       67.8370   -9.8620   43.3720 C.ar   21  TRP21       0.0191
     13  CZ3       68.3530   -7.8470   44.6030 C.ar   21  TRP21       0.0001
     14  CH2       68.6360   -8.7680   43.5910 C.ar   21  TRP21       0.0015
     15  N         57.0670  -10.4940   42.6470 N.3    48  VAL48      -0.1231
     16  CA        58.1260  -11.2130   41.9450 C.3    48  VAL48       0.1692
     17  C         59.1100  -11.8970   42.9090 C.2    48  VAL48       0.2592
     18  O         59.8520  -12.7890   42.5010 O.2    48  VAL48      -0.2718
     19  CB        58.8640  -10.2800   40.9520 C.3    48  VAL48       0.0266
     20  CG1       59.8290   -9.3720   41.6830 C.3    48  VAL48       0.0020
     21  CG2       59.5710  -11.0630   39.8400 C.3    48  VAL48       0.0020
     22  N         59.1060  -11.5050   44.1860 N.am   49  TYR49      -0.1976
     23  CA        60.0210  -12.1210   45.1570 C.3    49  TYR49       0.1639
     24  C         59.5620  -13.5240   45.5800 C.2    49  TYR49       0.2290
     25  O         60.3210  -14.2490   46.2190 O.2    49  TYR49      -0.2864
     26  CB        60.2440  -11.2420   46.3950 C.3    49  TYR49       0.0560
     27  CG        60.7890   -9.8560   46.1160 C.ar   49  TYR49      -0.0198
     28  CD1       61.3910   -9.5330   44.9010 C.ar   49  TYR49      -0.0009
     29  CD2       60.6920   -8.8610   47.0740 C.ar   49  TYR49      -0.0009
     30  CE1       61.8680   -8.2540   44.6470 C.ar   49  TYR49       0.0417
     31  CE2       61.1670   -7.5790   46.8340 C.ar   49  TYR49       0.0417
     32  CZ        61.7470   -7.2790   45.6190 C.ar   49  TYR49       0.1957
     33  OH        62.1960   -5.9950   45.3810 O.3    49  TYR49      -0.2866
     34  N         54.3680   -6.2580   39.1860 N.3    80  TRP80      -0.1227
     35  CA        55.3920   -6.8220   38.3200 C.3    80  TRP80       0.1737
     36  C         55.1590   -6.4540   36.8410 C.2    80  TRP80       0.2595
     37  O         54.0410   -6.1250   36.4250 O.2    80  TRP80      -0.2718
     38  CB        55.5940   -8.3420   38.5510 C.3    80  TRP80       0.0564
     39  CG        56.7320   -8.8340   37.7270 C.ar   80  TRP80       0.0003
     40  CD1       56.6720   -9.6810   36.6560 C.ar   80  TRP80       0.0946
     41  CD2       58.0950   -8.3970   37.8190 C.ar   80  TRP80       0.0152
     42  NE1       57.9170   -9.8080   36.0880 N.ar   80  TRP80      -0.2442
     43  CE2       58.8070   -9.0290   36.7820 C.ar   80  TRP80       0.0810
     44  CE3       58.7840   -7.5350   38.6860 C.ar   80  TRP80       0.0012
     45  CZ2       60.1720   -8.8410   36.5930 C.ar   80  TRP80       0.0191
     46  CZ3       60.1430   -7.3430   38.4930 C.ar   80  TRP80       0.0001
     47  CH2       60.8230   -7.9940   37.4540 C.ar   80  TRP80       0.0015
     48  N         56.2370   -6.5140   36.0630 N.am   81  CYS81      -0.1970
     49  CA        56.2590   -6.0610   34.6780 C.3    81  CYS81       0.1712
     50  C         55.2580   -6.7460   33.7450 C.2    81  CYS81       0.2296
     51  O         54.8380   -6.1530   32.7590 O.2    81  CYS81      -0.2864
     52  CB        57.6630   -6.2630   34.1210 C.3    81  CYS81       0.0983
     53  SG        58.9490   -5.3880   35.0270 S.3    81  CYS81      -0.0798
     54  N         56.9790   -1.6010   39.6200 N.3   111  HIS111     -0.1226
     55  CA        58.2700   -2.1560   40.0300 C.3   111  HIS111      0.1752
     56  C         59.4060   -1.7050   39.1110 C.2   111  HIS111      0.2596
     57  O         60.4800   -1.3380   39.5800 O.2   111  HIS111     -0.2718
     58  CB        58.1530   -3.6810   40.0770 C.3   111  HIS111      0.0759
     59  CG        59.1880   -4.3580   40.9120 C.ar  111  HIS111      0.0818
     60  ND1       58.9440   -5.5560   41.5510 N.ar  111  HIS111     -0.2268
     61  CD2       60.4730   -4.0290   41.1800 C.ar  111  HIS111      0.1154
     62  CE1       60.0420   -5.9240   42.1890 C.ar  111  HIS111      0.1986
     63  NE2       60.9830   -5.0170   41.9810 N.ar  111  HIS111     -0.2212
     64  N         59.1450   -1.7490   37.8030 N.am  112  TRP112     -0.1976
     65  CA        60.0730   -1.2860   36.7650 C.3   112  TRP112      0.1640
     66  C         59.2400   -0.5830   35.6930 C.2   112  TRP112      0.2290
     67  O         58.0700   -0.9180   35.5030 O.2   112  TRP112     -0.2864
     68  CB        60.8450   -2.4660   36.1320 C.3   112  TRP112      0.0576
     69  CG        61.8350   -3.0960   37.0610 C.ar  112  TRP112      0.0006
     70  CD1       61.5860   -4.0420   38.0080 C.ar  112  TRP112      0.0946
     71  CD2       63.2240   -2.7790   37.1630 C.ar  112  TRP112      0.0152
     72  NE1       62.7370   -4.3430   38.6950 N.ar  112  TRP112     -0.2442
     73  CE2       63.7590   -3.5790   38.1970 C.ar  112  TRP112      0.0810
     74  CE3       64.0700   -1.9010   36.4800 C.ar  112  TRP112      0.0012
     75  CZ2       65.0950   -3.5180   38.5690 C.ar  112  TRP112      0.0191
     76  CZ3       65.3970   -1.8470   36.8410 C.ar  112  TRP112      0.0001
     77  CH2       65.9010   -2.6510   37.8820 C.ar  112  TRP112      0.0015
     78  N         59.2540   -0.8920   32.6070 N.3   114  THR114     -0.1218
     79  CA        59.1380   -1.7400   31.4290 C.3   114  THR114      0.1862
     80  C         57.9990   -2.7590   31.5350 C.2   114  THR114      0.2287
     81  O         58.0090   -3.6020   32.4230 O.2   114  THR114     -0.2866
     82  CB        60.4290   -2.5510   31.2660 C.3   114  THR114      0.1770
     83  OG1       60.7140   -3.2230   32.4990 O.3   114  THR114     -0.2211
     84  CG2       61.5980   -1.6550   30.9470 C.3   114  THR114      0.0375
     85  N         56.1760   -6.1300   30.2520 N.3   116  PHE116     -0.1241
     86  CA        56.5070   -7.3760   29.5640 C.3   116  PHE116      0.1605
     87  C         55.2200   -8.1050   29.1710 C.2   116  PHE116      0.2264
     88  O         54.1660   -7.8960   29.7760 O.2   116  PHE116     -0.2867
     89  CB        57.2820   -8.3370   30.4800 C.3   116  PHE116      0.0534
     90  CG        58.6160   -7.8290   31.0030 C.ar  116  PHE116     -0.0203
     91  CD1       59.2710   -6.7290   30.4710 C.ar  116  PHE116     -0.0042
     92  CD2       59.2250   -8.5130   32.0530 C.ar  116  PHE116     -0.0042
     93  CE1       60.4940   -6.3190   30.9910 C.ar  116  PHE116     -0.0003
     94  CE2       60.4340   -8.1060   32.5720 C.ar  116  PHE116     -0.0003
     95  CZ        61.0740   -7.0140   32.0440 C.ar  116  PHE116     -0.0000
     96  N         57.7510  -14.5870   34.6920 N.3   122  PHE122     -0.1227
     97  CA        58.1140  -13.2320   35.0720 C.3   122  PHE122      0.1736
     98  C         58.9700  -12.5300   34.0130 C.2   122  PHE122      0.2595
     99  O         58.9160  -11.3030   33.8920 O.2   122  PHE122     -0.2718
    100  CB        58.8870  -13.2450   36.3830 C.3   122  PHE122      0.0547
    101  CG        58.0900  -13.6860   37.5750 C.ar  122  PHE122     -0.0202
    102  CD1       56.7310  -13.4240   37.6740 C.ar  122  PHE122     -0.0042
    103  CD2       58.7170  -14.3400   38.6220 C.ar  122  PHE122     -0.0042
    104  CE1       56.0170  -13.8110   38.7900 C.ar  122  PHE122     -0.0003
    105  CE2       58.0020  -14.7310   39.7450 C.ar  122  PHE122     -0.0003
    106  CZ        56.6540  -14.4630   39.8180 C.ar  122  PHE122     -0.0000
    107  N         59.7990  -13.2980   33.3010 N.am  123  PHE123     -0.1976
    108  CA        60.6920  -12.7710   32.2680 C.3   123  PHE123      0.1639
    109  C         60.4620  -13.5570   30.9790 C.2   123  PHE123      0.2290
    110  O         61.2420  -14.4430   30.6330 O.2   123  PHE123     -0.2864
    111  CB        62.1670  -12.8430   32.7050 C.3   123  PHE123      0.0560
    112  CG        62.5290  -11.8910   33.8230 C.ar  123  PHE123     -0.0200
    113  CD1       63.0140  -10.6210   33.5500 C.ar  123  PHE123     -0.0042
    114  CD2       62.3950  -12.2720   35.1460 C.ar  123  PHE123     -0.0042
    115  CE1       63.3500   -9.7570   34.5790 C.ar  123  PHE123     -0.0003
    116  CE2       62.7280  -11.4000   36.1780 C.ar  123  PHE123     -0.0003
    117  CZ        63.2100  -10.1460   35.8890 C.ar  123  PHE123     -0.0000
    118  N         62.7200    2.4370   39.9600 N.3   161  ASN161     -0.1240
    119  CA        63.6460    2.3340   38.8400 C.3   161  ASN161      0.1653
    120  C         63.2430    3.2230   37.6710 C.2   161  ASN161      0.2266
    121  O         63.5230    2.8970   36.5180 O.2   161  ASN161     -0.2867
    122  CB        63.8010    0.8860   38.3790 C.3   161  ASN161      0.1155
    123  CG        64.2670   -0.0180   39.4910 C.2   161  ASN161      0.2627
    124  OD1       65.3970    0.1220   39.9760 O.2   161  ASN161     -0.2716
    125  ND2       63.4050   -0.9430   39.9150 N.am  161  ASN161     -0.0877
    126  N         67.2630    1.2720   47.7660 N.3   210  TYR210     -0.1241
    127  CA        67.3930   -0.1690   47.8360 C.3   210  TYR210      0.1605
    128  C         68.8320   -0.6480   47.6560 C.2   210  TYR210      0.2264
    129  O         69.7040    0.1130   47.2390 O.2   210  TYR210     -0.2867
    130  CB        66.4100   -0.8570   46.8950 C.3   210  TYR210      0.0534
    131  CG        66.6700   -0.9200   45.3970 C.ar  210  TYR210     -0.0201
    132  CD1       67.7520   -1.6250   44.8680 C.ar  210  TYR210     -0.0009
    133  CD2       65.7540   -0.3780   44.5060 C.ar  210  TYR210     -0.0009
    134  CE1       67.9030   -1.7650   43.4930 C.ar  210  TYR210      0.0417
    135  CE2       65.8970   -0.5140   43.1340 C.ar  210  TYR210      0.0417
    136  CZ        66.9710   -1.2210   42.6350 C.ar  210  TYR210      0.1957
    137  OH        67.1350   -1.4140   41.2840 O.3   210  TYR210     -0.2866
    138  N         73.7890  -12.9440   40.8990 N.3   220  TRP220     -0.1241
    139  CA        74.6700  -12.7250   39.7590 C.3   220  TRP220      0.1605
    140  C         76.0020  -12.0740   40.1480 C.2   220  TRP220      0.2264
    141  O         76.7240  -11.5620   39.2890 O.2   220  TRP220     -0.2867
    142  CB        73.9500  -11.8850   38.7010 C.3   220  TRP220      0.0550
    143  CG        73.3400  -10.6220   39.2630 C.ar  220  TRP220      0.0003
    144  CD1       74.0000   -9.4800   39.6020 C.ar  220  TRP220      0.0946
    145  CD2       71.9490  -10.3790   39.5470 C.ar  220  TRP220      0.0152
    146  NE1       73.1130   -8.5440   40.0890 N.ar  220  TRP220     -0.2442
    147  CE2       71.8490   -9.0680   40.0540 C.ar  220  TRP220      0.0810
    148  CE3       70.7810  -11.1370   39.4120 C.ar  220  TRP220      0.0012
    149  CZ2       70.6270   -8.5020   40.4310 C.ar  220  TRP220      0.0191
    150  CZ3       69.5700  -10.5690   39.7810 C.ar  220  TRP220      0.0001
    151  CH2       69.5030   -9.2660   40.2840 C.ar  220  TRP220      0.0015
    152  N         71.3710   -3.8470   40.2210 N.3   299  CYS299     -0.1221
    153  CA        70.2010   -4.1990   39.4200 C.3   299  CYS299      0.1808
    154  C         70.1840   -3.4980   38.0750 C.2   299  CYS299      0.2601
    155  O         69.8810   -2.3020   37.9960 O.2   299  CYS299     -0.2717
    156  CB        68.9150   -3.8500   40.1690 C.3   299  CYS299      0.0970
    157  SG        68.5110   -5.0040   41.4730 S.3   299  CYS299     -0.0800
    158  N         70.4890   -4.2570   37.0270 N.am  300  ALA300     -0.1965
    159  CA        70.4660   -3.7680   35.6500 C.3   300  ALA300      0.1728
    160  C         70.5900   -4.9670   34.7070 C.2   300  ALA300      0.2616
    161  O         71.6730   -5.2580   34.2050 O.2   300  ALA300     -0.2715
    162  CB        71.6000   -2.7760   35.4080 C.3   300  ALA300      0.0334
    163  N         69.4770   -5.6600   34.4750 N.am  301  LEU301     -0.1977
    164  CA        69.4790   -6.9500   33.7730 C.3   301  LEU301      0.1596
    165  C         69.6400   -6.8640   32.2500 C.2   301  LEU301      0.2287
    166  O         68.8340   -6.2400   31.5640 O.2   301  LEU301     -0.2864
    167  CB        68.2010   -7.7200   34.1120 C.3   301  LEU301      0.0297
    168  CG        68.1100   -9.1780   33.6560 C.3   301  LEU301      0.0022
    169  CD1       69.1770  -10.0350   34.3340 C.3   301  LEU301      0.0001
    170  CD2       66.7190   -9.7280   33.9280 C.3   301  LEU301      0.0001
    171  N         67.0030   -7.1260   29.3330 N.3   304  CYS304     -0.1235
    172  CA        65.9860   -6.0790   29.2450 C.3   304  CYS304      0.1677
    173  C         66.4880   -4.7800   28.6070 C.2   304  CYS304      0.2270
    174  O         65.7280   -3.8220   28.4660 O.2   304  CYS304     -0.2867
    175  CB        65.4210   -5.7730   30.6360 C.3   304  CYS304      0.0956
    176  SG        64.6450   -7.1860   31.4310 S.3   304  CYS304     -0.0801
    177  N         63.6790    0.8090   28.9750 N.3   310  TYR310     -0.1228
    178  CA        64.8130    0.4800   29.8410 C.3   310  TYR310      0.1721
    179  C         65.3410    1.7630   30.4820 C.2   310  TYR310      0.2437
    180  O         65.5940    2.7410   29.7790 O.2   310  TYR310     -0.2733
    181  CB        65.9220   -0.2160   29.0490 C.3   310  TYR310      0.0547
    182  CG        67.0990   -0.6290   29.9030 C.ar  310  TYR310     -0.0200
    183  CD1       67.0540   -1.7890   30.6690 C.ar  310  TYR310     -0.0009
    184  CD2       68.2460    0.1510   29.9660 C.ar  310  TYR310     -0.0009
    185  CE1       68.1280   -2.1680   31.4570 C.ar  310  TYR310      0.0417
    186  CE2       69.3230   -0.2210   30.7440 C.ar  310  TYR310      0.0417
    187  CZ        69.2590   -1.3780   31.4910 C.ar  310  TYR310      0.1957
    188  OH        70.3350   -1.7460   32.2670 O.3   310  TYR310     -0.2866
    189  N         65.4960    1.7710   31.8160 N.am  311  PRO311     -0.2729
    190  CA        65.6830    3.0760   32.4650 C.3   311  PRO311      0.1401
    191  C         67.1080    3.6110   32.5410 C.2   311  PRO311      0.2269
    192  O         67.2730    4.7970   32.8320 O.2   311  PRO311     -0.2865
    193  CB        65.1640    2.8290   33.8850 C.3   311  PRO311      0.0296
    194  CG        65.3870    1.3670   34.1130 C.3   311  PRO311      0.0237
    195  CD        65.1200    0.7180   32.7810 C.3   311  PRO311      0.0939
@<TRIPOS>BOND
     1   174   173    2
     2   173   172    1
     3   177   178    1
     4   181   178    1
     5   181   182    1
     6    87    86    1
     7    87    88    2
     8   172   171    1
     9   172   175    1
    10    86    85    1
    11    86    89    1
    12   180   179    2
    13   178   179    1
    14   182   184   ar
    15   182   183   ar
    16   184   186   ar
    17    91    93   ar
    18    91    90   ar
    19    89    90    1
    20   179   189   am
    21   110   109    2
    22   175   176    1
    23   183   185   ar
    24   186   187   ar
    25    84    82    1
    26   109   108    1
    27    93    95   ar
    28    90    92   ar
    29    82    79    1
    30    82    83    1
    31    79    80    1
    32    79    78    1
    33   185   187   ar
    34   187   188    1
    35    80    81    2
    36   166   165    2
    37   189   190    1
    38   189   195    1
    39    95    94   ar
    40    92    94   ar
    41   165   164    1
    42   108   111    1
    43   108   107    1
    44   190   191    1
    45   190   193    1
    46   191   192    2
    47   111   112    1
    48    51    50    2
    49   195   194    1
    50   107    98   am
    51   113   112   ar
    52   113   115   ar
    53   168   170    1
    54   168   167    1
    55   168   169    1
    56    50    49    1
    57   164   167    1
    58   164   163    1
    59   112   114   ar
    60   193   194    1
    61    99    98    2
    62    98    97    1
    63    52    49    1
    64    52    53    1
    65   161   160    2
    66   163   160   am
    67   115   117   ar
    68    49    48    1
    69    96    97    1
    70   160   159    1
    71    97   100    1
    72   114   116   ar
    73   162   159    1
    74    67    66    2
    75   159   158    1
    76    66    65    1
    77   117   116   ar
    78    48    36   am
    79    42    40   ar
    80    42    43   ar
    81    68    65    1
    82    68    69    1
    83   100   101    1
    84    37    36    2
    85    74    76   ar
    86    74    71   ar
    87   121   120    2
    88    45    43   ar
    89    45    47   ar
    90    40    39   ar
    91    65    64    1
    92    43    41   ar
    93    76    77   ar
    94    36    35    1
    95   158   154   am
    96    69    71   ar
    97    69    70   ar
    98    71    73   ar
    99    47    46   ar
   100   101   102   ar
   101   101   103   ar
   102   120   119    1
   103   102   104   ar
   104    39    41   ar
   105    39    38    1
   106    64    56   am
   107    41    44   ar
   108    77    75   ar
   109   155   154    2
   110    70    72   ar
   111   154   153    1
   112    73    75   ar
   113    73    72   ar
   114    35    38    1
   115    35    34    1
   116   122   119    1
   117   122   123    1
   118    46    44   ar
   119   103   105   ar
   120   142   143    1
   121   142   139    1
   122   104   106   ar
   123   119   118    1
   124    56    57    2
   125    56    55    1
   126   143   145   ar
   127   143   144   ar
   128   141   140    2
   129   148   145   ar
   130   148   150   ar
   131   153   156    1
   132   153   152    1
   133   123   125   am
   134   123   124    2
   135   145   147   ar
   136   144   146   ar
   137    54    55    1
   138   105   106   ar
   139   139   140    1
   140   139   138    1
   141   150   151   ar
   142    21    19    1
   143    55    58    1
   144   147   146   ar
   145   147   149   ar
   146    58    59    1
   147   156   157    1
   148   151   149   ar
   149    59    61   ar
   150    59    60   ar
   151    19    20    1
   152    19    16    1
   153    61    63   ar
   154   137   136    1
   155    60    62   ar
   156    16    15    1
   157    16    17    1
   158    63    62   ar
   159    18    17    2
   160   136   135   ar
   161   136   134   ar
   162    17    22   am
   163   135   133   ar
   164    12    14   ar
   165    12    10   ar
   166   134   132   ar
   167    14    13   ar
   168    22    23    1
   169    10     9   ar
   170    10     8   ar
   171     9     7   ar
   172   133   131   ar
   173    13    11   ar
   174    30    28   ar
   175    30    32   ar
   176   132   131   ar
   177    28    27   ar
   178    23    24    1
   179    23    26    1
   180     8    11   ar
   181     8     6   ar
   182     7     6   ar
   183    33    32    1
   184   131   130    1
   185    24    25    2
   186    32    31   ar
   187     6     5    1
   188    27    26    1
   189    27    29   ar
   190    31    29   ar
   191   130   127    1
   192     5     2    1
   193   129   128    2
   194   128   127    1
   195   126   127    1
   196     2     3    1
   197     2     1    1
   198     3     4    2
