@<TRIPOS>MOLECULE
tmp/4qr7A01.pdb
 99 95 0 0 0
SMALL
GASTEIGER

@<TRIPOS>ATOM
      1  N         30.2240  -14.6640   40.6560 N.3   245  MET245     -0.1245
      2  CA        29.6580  -13.3410   40.3810 C.3   245  MET245      0.1570
      3  C         30.6920  -12.2560   40.7090 C.2   245  MET245      0.2261
      4  O         30.9730  -11.9940   41.8810 O.2   245  MET245     -0.2867
      5  CB        28.3810  -13.0930   41.1910 C.3   245  MET245      0.0387
      6  CG        27.0920  -13.5230   40.5230 C.3   245  MET245      0.0595
      7  SD        26.5790  -15.1350   41.1050 S.3   245  MET245     -0.1393
      8  CE        24.7820  -14.9970   41.1660 C.3   245  MET245      0.0692
      9  N         30.9430   -4.5350   35.7460 N.3   250  TYR250     -0.1241
     10  CA        30.0090   -3.4490   36.1370 C.3   250  TYR250      0.1605
     11  C         30.7110   -2.2960   36.9060 C.2   250  TYR250      0.2264
     12  O         30.0660   -1.3980   37.4550 O.2   250  TYR250     -0.2867
     13  CB        28.6140   -3.9050   36.6960 C.3   250  TYR250      0.0534
     14  CG        28.4580   -4.2050   38.1900 C.ar  250  TYR250     -0.0201
     15  CD1       28.6000   -3.2050   39.1520 C.ar  250  TYR250     -0.0009
     16  CD2       28.0820   -5.4750   38.6290 C.ar  250  TYR250     -0.0009
     17  CE1       28.4420   -3.4710   40.4990 C.ar  250  TYR250      0.0417
     18  CE2       27.9280   -5.7520   39.9750 C.ar  250  TYR250      0.0417
     19  CZ        28.1060   -4.7440   40.9070 C.ar  250  TYR250      0.1957
     20  OH        27.9430   -5.0120   42.2500 O.3   250  TYR250     -0.2866
     21  N         32.5280   -7.6680   45.4620 N.3   260  TYR260     -0.1241
     22  CA        32.2270   -9.0660   45.7850 C.3   260  TYR260      0.1605
     23  C         32.5790  -10.0310   44.6480 C.2   260  TYR260      0.2264
     24  O         32.0470   -9.9310   43.5430 O.2   260  TYR260     -0.2867
     25  CB        30.7510   -9.2440   46.2050 C.3   260  TYR260      0.0534
     26  CG        29.7370   -9.1060   45.0830 C.ar  260  TYR260     -0.0201
     27  CD1       29.6930   -7.9650   44.2960 C.ar  260  TYR260     -0.0009
     28  CD2       28.8160  -10.1100   44.8240 C.ar  260  TYR260     -0.0009
     29  CE1       28.7770   -7.8310   43.2710 C.ar  260  TYR260      0.0417
     30  CE2       27.8830   -9.9810   43.8030 C.ar  260  TYR260      0.0417
     31  CZ        27.8710   -8.8370   43.0290 C.ar  260  TYR260      0.1957
     32  OH        26.9590   -8.6900   42.0070 O.3   260  TYR260     -0.2866
     33  N         32.1350  -13.9190   44.3350 N.3   262  THR262     -0.1218
     34  CA        31.3580  -14.8890   45.1020 C.3   262  THR262      0.1862
     35  C         31.0860  -16.2070   44.3680 C.2   262  THR262      0.2287
     36  O         30.3550  -16.2300   43.3720 O.2   262  THR262     -0.2866
     37  CB        30.0000  -14.2900   45.4690 C.3   262  THR262      0.1770
     38  OG1       30.1810  -12.9440   45.9210 O.3   262  THR262     -0.2211
     39  CG2       29.3320  -15.1090   46.5480 C.3   262  THR262      0.0375
     40  N         29.1730  -19.4580   43.7450 N.3   264  VAL264     -0.1245
     41  CA        27.7700  -19.8060   43.9660 C.3   264  VAL264      0.1561
     42  C         27.4030  -21.1420   43.3180 C.2   264  VAL264      0.2260
     43  O         27.7120  -21.3860   42.1520 O.2   264  VAL264     -0.2867
     44  CB        26.8200  -18.6890   43.4360 C.3   264  VAL264      0.0252
     45  CG1       25.3720  -19.1550   43.4220 C.3   264  VAL264      0.0019
     46  CG2       26.9550  -17.4330   44.2770 C.3   264  VAL264      0.0019
     47  N         18.0230   -9.2580   34.2910 N.3   273  SER273     -0.1202
     48  CA        18.5790   -8.2840   35.2370 C.3   273  SER273      0.2020
     49  C         19.5030   -8.9190   36.2880 C.2   273  SER273      0.2619
     50  O         20.2730   -8.2170   36.9510 O.2   273  SER273     -0.2717
     51  CB        17.4770   -7.4420   35.9060 C.3   273  SER273      0.2103
     52  OG        16.6470   -8.2150   36.7570 O.3   273  SER273     -0.2182
     53  N         19.4300  -10.2400   36.4400 N.am  274  GLY274     -0.1942
     54  CA        20.3870  -10.9550   37.2700 C.3   274  GLY274      0.2014
     55  C         19.8460  -11.5750   38.5470 C.2   274  GLY274      0.2638
     56  O         20.6210  -11.9380   39.4480 O.2   274  GLY274     -0.2714
     57  N         18.5230  -11.6940   38.6450 N.am  275  VAL275     -0.1977
     58  CA        17.9330  -12.4040   39.7750 C.3   275  VAL275      0.1596
     59  C         18.0220  -13.9120   39.5620 C.2   275  VAL275      0.2287
     60  O         17.6090  -14.4280   38.5090 O.2   275  VAL275     -0.2864
     61  CB        16.4760  -11.9890   40.0170 C.3   275  VAL275      0.0276
     62  CG1       15.8540  -12.8330   41.1440 C.3   275  VAL275      0.0022
     63  CG2       16.4090  -10.4940   40.3450 C.3   275  VAL275      0.0022
     64  N         19.2990  -19.6610   44.0560 N.3   278  HIS278     -0.1241
     65  CA        20.5650  -20.3840   44.2260 C.3   278  HIS278      0.1621
     66  C         20.8700  -20.8340   45.6480 C.2   278  HIS278      0.2264
     67  O         20.1440  -20.5030   46.5810 O.2   278  HIS278     -0.2867
     68  CB        21.7300  -19.5490   43.7020 C.3   278  HIS278      0.0745
     69  CG        21.9590  -18.2940   44.4760 C.ar  278  HIS278      0.0817
     70  ND1       22.5960  -18.2800   45.6980 N.ar  278  HIS278     -0.2268
     71  CD2       21.6290  -17.0090   44.2070 C.ar  278  HIS278      0.1154
     72  CE1       22.6500  -17.0400   46.1480 C.ar  278  HIS278      0.1986
     73  NE2       22.0760  -16.2480   45.2590 N.ar  278  HIS278     -0.2212
     74  N         19.7040  -10.5780   50.7870 N.3   293  SER293     -0.1202
     75  CA        20.4430  -10.6320   49.5310 C.3   293  SER293      0.2020
     76  C         20.3830   -9.3260   48.7560 C.2   293  SER293      0.2619
     77  O         19.7650   -8.3560   49.2000 O.2   293  SER293     -0.2717
     78  CB        19.9010  -11.7490   48.6410 C.3   293  SER293      0.2103
     79  OG        18.7260  -11.3350   47.9670 O.3   293  SER293     -0.2182
     80  N         21.0210   -9.3210   47.5880 N.am  294  HIS294     -0.1961
     81  CA        20.9720   -8.1820   46.6900 C.3   294  HIS294      0.1787
     82  C         19.8180   -8.2830   45.6960 C.2   294  HIS294      0.2621
     83  O         19.8140   -7.5890   44.6950 O.2   294  HIS294     -0.2715
     84  CB        22.2760   -8.0650   45.9080 C.3   294  HIS294      0.0785
     85  CG        23.4910   -7.9300   46.7710 C.ar  294  HIS294      0.0821
     86  ND1       24.2090   -9.0170   47.2200 N.ar  294  HIS294     -0.2267
     87  CD2       24.1210   -6.8330   47.2580 C.ar  294  HIS294      0.1154
     88  CE1       25.2290   -8.5970   47.9470 C.ar  294  HIS294      0.1986
     89  NE2       25.1990   -7.2760   47.9850 N.ar  294  HIS294     -0.2212
     90  N         18.8530   -9.1500   45.9650 N.am  295  GLY295     -0.1940
     91  CA        17.7690   -9.3800   45.0280 C.3   295  GLY295      0.2014
     92  C         17.5320  -10.8520   44.7180 C.2   295  GLY295      0.2639
     93  O         16.3900  -11.2770   44.5160 O.2   295  GLY295     -0.2714
     94  N         18.6150  -11.6270   44.6790 N.am  296  CYS296     -0.1967
     95  CA        18.5340  -13.0620   44.4430 C.3   296  CYS296      0.1712
     96  C         17.6530  -13.7340   45.4840 C.2   296  CYS296      0.2296
     97  O         17.5040  -13.2260   46.5960 O.2   296  CYS296     -0.2864
     98  CB        19.9300  -13.6880   44.4490 C.3   296  CYS296      0.0983
     99  SG        21.0010  -13.1360   43.1020 S.3   296  CYS296     -0.0798
@<TRIPOS>BOND
     1    47    48    1
     2    48    51    1
     3    48    49    1
     4     9    10    1
     5    51    52    1
     6    10    13    1
     7    10    11    1
     8    49    53   am
     9    49    50    2
    10    53    54    1
    11    13    14    1
    12    11    12    2
    13    54    55    1
    14    14    16   ar
    15    14    15   ar
    16    60    59    2
    17    55    57   am
    18    55    56    2
    19    16    18   ar
    20    57    58    1
    21    15    17   ar
    22    59    58    1
    23    58    61    1
    24    18    19   ar
    25    61    63    1
    26    61    62    1
    27     2     1    1
    28     2     3    1
    29     2     5    1
    30    17    19   ar
    31     6     7    1
    32     6     5    1
    33     3     4    2
    34    19    20    1
    35     7     8    1
    36    32    31    1
    37    43    42    2
    38    31    29   ar
    39    31    30   ar
    40    99    98    1
    41    29    27   ar
    42    42    41    1
    43    36    35    2
    44    45    44    1
    45    44    41    1
    46    44    46    1
    47    24    23    2
    48    68    65    1
    49    68    69    1
    50    40    41    1
    51    30    28   ar
    52    64    65    1
    53    71    69   ar
    54    71    73   ar
    55    65    66    1
    56    27    26   ar
    57    33    34    1
    58    35    34    1
    59    95    98    1
    60    95    94    1
    61    95    96    1
    62    69    70   ar
    63    93    92    2
    64    23    22    1
    65    94    92   am
    66    83    82    2
    67    92    91    1
    68    28    26   ar
    69    91    90    1
    70    26    25    1
    71    34    37    1
    72    73    72   ar
    73    21    22    1
    74    37    38    1
    75    37    39    1
    76    96    97    2
    77    66    67    2
    78    82    90   am
    79    82    81    1
    80    70    72   ar
    81    22    25    1
    82    84    81    1
    83    84    85    1
    84    81    80    1
    85    85    86   ar
    86    85    87   ar
    87    86    88   ar
    88    87    89   ar
    89    80    76   am
    90    88    89   ar
    91    79    78    1
    92    78    75    1
    93    76    77    2
    94    76    75    1
    95    75    74    1
