@<TRIPOS>MOLECULE
tmp/4qr7A00.pdb
 112 109 0 0 0
SMALL
GASTEIGER

@<TRIPOS>ATOM
      1  N         -0.5170  -24.1990  -23.8780 N.3     3  LYS3       -0.1231
      2  CA        -0.3490  -22.8880  -23.2810 C.3     3  LYS3        0.1693
      3  C          0.5720  -22.9920  -22.0660 C.2     3  LYS3        0.2592
      4  O          0.3970  -23.8610  -21.2090 O.2     3  LYS3       -0.2718
      5  CB        -1.7070  -22.3270  -22.8810 C.3     3  LYS3        0.0285
      6  CG        -1.7600  -20.8110  -22.8350 C.3     3  LYS3        0.0035
      7  CD        -2.0540  -20.2070  -24.2050 C.3     3  LYS3        0.0206
      8  CE        -2.3140  -18.6990  -24.0930 C.3     3  LYS3        0.1093
      9  NZ        -3.6340  -18.2890  -24.6750 N.3     3  LYS3       -0.1314
     10  N          1.5570  -22.1060  -22.0100 N.am    4  LEU4       -0.1966
     11  CA         2.5520  -22.1190  -20.9590 C.3     4  LEU4        0.1728
     12  C          2.3670  -20.9010  -20.0610 C.2     4  LEU4        0.2617
     13  O          2.3000  -19.7690  -20.5450 O.2     4  LEU4       -0.2715
     14  CB         3.9540  -22.1060  -21.5730 C.3     4  LEU4        0.0311
     15  CG         4.4530  -23.3910  -22.2360 C.3     4  LEU4        0.0022
     16  CD1        5.8320  -23.2020  -22.7730 C.3     4  LEU4        0.0001
     17  CD2        4.4960  -24.4920  -21.2250 C.3     4  LEU4        0.0001
     18  N          2.2750  -21.1290  -18.7550 N.am    5  THR5       -0.1937
     19  CA         2.2170  -20.0340  -17.8040 C.3     5  THR5        0.2028
     20  C          3.3310  -20.1950  -16.7890 C.2     5  THR5        0.2642
     21  O          3.7140  -21.3100  -16.4580 O.2     5  THR5       -0.2714
     22  CB         0.8970  -20.0350  -17.0540 C.3     5  THR5        0.1808
     23  OG1        0.6630  -21.3560  -16.5550 O.3     5  THR5       -0.2208
     24  CG2       -0.2450  -19.6370  -17.9730 C.3     5  THR5        0.0379
     25  N          3.8440  -19.0780  -16.2920 N.am    6  ALA6       -0.1963
     26  CA         4.9050  -19.1110  -15.2990 C.3     6  ALA6        0.1728
     27  C          4.5590  -18.1650  -14.1620 C.2     6  ALA6        0.2617
     28  O          3.7480  -17.2650  -14.3430 O.2     6  ALA6       -0.2715
     29  CB         6.2220  -18.7310  -15.9230 C.3     6  ALA6        0.0334
     30  N          5.1640  -18.3770  -12.9940 N.am    7  SER7       -0.1936
     31  CA         4.9140  -17.5200  -11.8420 C.3     7  SER7        0.2055
     32  C          5.8530  -16.3130  -11.8150 C.2     7  SER7        0.2643
     33  O          5.9380  -15.6120  -10.8120 O.2     7  SER7       -0.2714
     34  CB         5.0300  -18.3130  -10.5360 C.3     7  SER7        0.2130
     35  OG         6.3690  -18.6860  -10.2740 O.3     7  SER7       -0.2179
     36  N          6.5600  -16.0860  -12.9190 N.am    8  VAL8       -0.1963
     37  CA         7.4150  -14.9110  -13.0800 C.3     8  VAL8        0.1727
     38  C          7.1460  -14.3020  -14.4470 C.2     8  VAL8        0.2617
     39  O          6.6930  -14.9950  -15.3670 O.2     8  VAL8       -0.2715
     40  CB         8.9490  -15.2380  -12.9840 C.3     8  VAL8        0.0290
     41  CG1        9.3860  -15.3970  -11.5640 C.3     8  VAL8        0.0023
     42  CG2        9.3260  -16.4860  -13.8150 C.3     8  VAL8        0.0023
     43  N          7.4370  -13.0100  -14.5800 N.am    9  THR9       -0.1937
     44  CA         7.2210  -12.2910  -15.8280 C.3     9  THR9        0.2028
     45  C          8.5640  -12.0050  -16.5020 C.2     9  THR9        0.2642
     46  O          9.5720  -11.7750  -15.8170 O.2     9  THR9       -0.2714
     47  CB         6.4890  -10.9560  -15.5810 C.3     9  THR9        0.1808
     48  OG1        5.4800  -11.1400  -14.5850 O.3     9  THR9       -0.2208
     49  CG2        5.8390  -10.4650  -16.8590 C.3     9  THR9        0.0379
     50  N          8.5740  -12.0170  -17.8380 N.am   10  ASP10      -0.1971
     51  CA         9.8060  -11.7770  -18.5940 C.3    10  ASP10       0.1709
     52  C         10.2840  -10.3430  -18.3820 C.2    10  ASP10       0.2293
     53  O          9.5010   -9.4060  -18.4740 O.2    10  ASP10      -0.2864
     54  CB         9.6160  -12.0670  -20.0890 C.3    10  ASP10       0.1436
     55  CG        10.9050  -11.8890  -20.8860 C.2    10  ASP10       0.3671
     56  OD1       11.9800  -12.2440  -20.3780 O.co2  10  ASP10      -0.2456
     57  OD2       10.8480  -11.3810  -22.0220 O.co2  10  ASP10      -0.2456
     58  N          7.4490  -21.4460  -10.5470 N.3    22  SER22      -0.1202
     59  CA         6.7110  -22.5810  -11.0700 C.3    22  SER22       0.2020
     60  C          6.2810  -22.3490  -12.4980 C.2    22  SER22       0.2619
     61  O          6.1060  -21.2180  -12.9330 O.2    22  SER22      -0.2717
     62  CB         5.5190  -22.9340  -10.1720 C.3    22  SER22       0.2103
     63  OG         4.4730  -21.9920  -10.2870 O.3    22  SER22      -0.2182
     64  N          6.1490  -23.4450  -13.2330 N.am   23  VAL23      -0.1965
     65  CA         5.7020  -23.4040  -14.6130 C.3    23  VAL23       0.1727
     66  C          4.5550  -24.3980  -14.7790 C.2    23  VAL23       0.2616
     67  O          4.5940  -25.5160  -14.2450 O.2    23  VAL23      -0.2715
     68  CB         6.8580  -23.7280  -15.5860 C.3    23  VAL23       0.0290
     69  CG1        6.3760  -23.6820  -17.0330 C.3    23  VAL23       0.0023
     70  CG2        7.9860  -22.7540  -15.3910 C.3    23  VAL23       0.0023
     71  N          3.5370  -23.9690  -15.5120 N.am   24  THR24      -0.1951
     72  CA         2.3440  -24.7730  -15.7530 C.3    24  THR24       0.1897
     73  C          2.0610  -24.8840  -17.2480 C.2    24  THR24       0.2313
     74  O          2.3450  -23.9670  -18.0170 O.2    24  THR24      -0.2863
     75  CB         1.1450  -24.1480  -15.0180 C.3    24  THR24       0.1794
     76  OG1        1.1750  -24.5690  -13.6480 O.3    24  THR24      -0.2208
     77  CG2       -0.1550  -24.5620  -15.6110 C.3    24  THR24       0.0378
     78  N          7.3890  -23.7470  -27.4590 N.3    80  THR80      -0.1203
     79  CA         8.6030  -23.5180  -26.6820 C.3    80  THR80       0.1994
     80  C          8.6450  -22.0460  -26.3210 C.2    80  THR80       0.2618
     81  O          8.3860  -21.1940  -27.1640 O.2    80  THR80      -0.2717
     82  CB         9.8610  -23.8380  -27.5050 C.3    80  THR80       0.1784
     83  OG1        9.7410  -25.1440  -28.0800 O.3    80  THR80      -0.2211
     84  CG2       11.1130  -23.7830  -26.6350 C.3    80  THR80       0.0376
     85  N          8.9610  -21.7360  -25.0730 N.am   81  ARG81      -0.1965
     86  CA         8.9710  -20.3520  -24.6450 C.3    81  ARG81       0.1729
     87  C         10.1770  -20.1090  -23.7700 C.2    81  ARG81       0.2616
     88  O         10.7890  -21.0530  -23.2760 O.2    81  ARG81      -0.2715
     89  CB         7.6880  -20.0180  -23.8880 C.3    81  ARG81       0.0348
     90  CG         6.4040  -20.2580  -24.6880 C.3    81  ARG81       0.0492
     91  CD         6.2900  -19.3140  -25.8720 C.3    81  ARG81       0.2205
     92  NE         4.9600  -19.3590  -26.4750 N.pl3  81  ARG81      -0.0865
     93  CZ         4.6150  -20.1420  -27.4950 C.cat  81  ARG81       0.5346
     94  NH1        5.5010  -20.9550  -28.0550 N.pl3  81  ARG81       0.1354
     95  NH2        3.3720  -20.1050  -27.9600 N.pl3  81  ARG81       0.1354
     96  N         10.5180  -18.8370  -23.5880 N.am   82  GLN82      -0.1963
     97  CA        11.6860  -18.4590  -22.8140 C.3    82  GLN82       0.1733
     98  C         11.4850  -17.1120  -22.1620 C.2    82  GLN82       0.2616
     99  O         10.8790  -16.2230  -22.7620 O.2    82  GLN82      -0.2715
    100  CB        12.9220  -18.3950  -23.6970 C.3    82  GLN82       0.0408
    101  CG        14.1480  -17.9570  -22.9320 C.3    82  GLN82       0.0908
    102  CD        15.3840  -17.9460  -23.7780 C.2    82  GLN82       0.2608
    103  OE1       15.7130  -18.9420  -24.4240 O.2    82  GLN82      -0.2717
    104  NE2       16.0820  -16.8130  -23.7910 N.am   82  GLN82      -0.0878
    105  N         11.9830  -16.9580  -20.9350 N.am   83  LEU83      -0.1977
    106  CA        11.9950  -15.6540  -20.2840 C.3    83  LEU83       0.1596
    107  C         13.2090  -15.5010  -19.3870 C.2    83  LEU83       0.2287
    108  O         13.8110  -16.4870  -18.9700 O.2    83  LEU83      -0.2864
    109  CB        10.6970  -15.4120  -19.4950 C.3    83  LEU83       0.0297
    110  CG        10.3270  -16.3980  -18.3920 C.3    83  LEU83       0.0022
    111  CD1       11.0330  -16.0560  -17.0760 C.3    83  LEU83       0.0001
    112  CD2        8.8140  -16.4580  -18.2040 C.3    83  LEU83       0.0001
@<TRIPOS>BOND
     1    83    82    1
     2    94    93    1
     3    95    93    1
     4    82    79    1
     5    82    84    1
     6    93    92    2
     7    78    79    1
     8    81    80    2
     9    79    80    1
    10    92    91    1
    11    80    85   am
    12    91    90    1
    13    85    86    1
    14    90    89    1
    15     9     8    1
    16    86    89    1
    17    86    87    1
    18   103   102    2
    19     7     8    1
    20     7     6    1
    21     1     2    1
    22   104   102   am
    23   102   101    1
    24    87    96   am
    25    87    88    2
    26   100   101    1
    27   100    97    1
    28    96    97    1
    29     2     5    1
    30     2     3    1
    31     5     6    1
    32    97    98    1
    33    16    15    1
    34    99    98    2
    35    15    14    1
    36    15    17    1
    37    98   105   am
    38     3    10   am
    39     3     4    2
    40    57    55   ar
    41    10    11    1
    42    14    11    1
    43    11    12    1
    44   105   106    1
    45    55    56   ar
    46    55    54    1
    47    13    12    2
    48   106   109    1
    49   106   107    1
    50    54    51    1
    51    12    18   am
    52   109   110    1
    53   107   108    2
    54    18    19    1
    55    51    52    1
    56    51    50    1
    57    53    52    2
    58   110   112    1
    59   110   111    1
    60    74    73    2
    61    24    22    1
    62    50    45   am
    63    19    22    1
    64    19    20    1
    65    73    72    1
    66    22    23    1
    67    69    68    1
    68    49    47    1
    69    20    21    2
    70    20    25   am
    71    45    44    1
    72    45    46    2
    73    25    26    1
    74    29    26    1
    75    44    47    1
    76    44    43    1
    77    72    71    1
    78    72    75    1
    79    77    75    1
    80    68    70    1
    81    68    65    1
    82    47    48    1
    83    71    66   am
    84    39    38    2
    85    26    27    1
    86    75    76    1
    87    66    65    1
    88    66    67    2
    89    65    64    1
    90    43    38   am
    91    38    37    1
    92    28    27    2
    93    27    30   am
    94    42    40    1
    95    64    60   am
    96    37    40    1
    97    37    36    1
    98    30    31    1
    99    40    41    1
   100    61    60    2
   101    36    32   am
   102    60    59    1
   103    31    32    1
   104    31    34    1
   105    32    33    2
   106    59    58    1
   107    59    62    1
   108    34    35    1
   109    63    62    1
