@<TRIPOS>MOLECULE
tmp/4qrdA00.pdb
 198 198 0 0 0
SMALL
GASTEIGER

@<TRIPOS>ATOM
      1  N         12.1890   -5.8850  -22.9430 N.3    10  PRO10      -0.2102
      2  CA        10.8670   -6.1200  -22.2820 C.3    10  PRO10       0.1504
      3  C         10.2670   -7.4840  -22.7230 C.2    10  PRO10       0.2575
      4  O         10.7820   -8.1030  -23.6560 O.2    10  PRO10      -0.2718
      5  CB         9.9930   -4.9600  -22.7630 C.3    10  PRO10       0.0282
      6  CG        10.9480   -3.9180  -23.3870 C.3    10  PRO10       0.0208
      7  CD        12.1950   -4.7150  -23.8510 C.3    10  PRO10       0.0893
      8  N          9.2180   -7.9450  -22.0500 N.am   11  ILE11      -0.1980
      9  CA         8.4480   -9.0990  -22.4950 C.3    11  ILE11       0.1595
     10  C          7.3710   -8.5570  -23.4430 C.2    11  ILE11       0.2287
     11  O          6.6870   -7.5710  -23.1430 O.2    11  ILE11      -0.2864
     12  CB         7.8370   -9.9040  -21.3250 C.3    11  ILE11       0.0276
     13  CG1        7.0490   -8.9910  -20.3430 C.3    11  ILE11       0.0022
     14  CG2        8.9540  -10.7770  -20.6210 C.3    11  ILE11       0.0022
     15  CD1        6.3630   -9.7620  -19.2150 C.3    11  ILE11       0.0001
     16  N          3.9580   -8.6880  -25.8720 N.3    13  TYR13      -0.1241
     17  CA         2.5610   -9.1580  -25.7100 C.3    13  TYR13       0.1605
     18  C          2.1170   -9.8810  -26.9890 C.2    13  TYR13       0.2264
     19  O          2.1580   -9.2890  -28.0380 O.2    13  TYR13      -0.2867
     20  CB         1.6010   -7.9720  -25.3690 C.3    13  TYR13       0.0534
     21  CG         0.2820   -8.3550  -24.6890 C.ar   13  TYR13      -0.0201
     22  CD1        0.2690   -9.0210  -23.4900 C.ar   13  TYR13      -0.0009
     23  CD2       -0.9550   -7.9410  -25.2180 C.ar   13  TYR13      -0.0009
     24  CE1       -0.9320   -9.3540  -22.8390 C.ar   13  TYR13       0.0417
     25  CE2       -2.1600   -8.2350  -24.5810 C.ar   13  TYR13       0.0417
     26  CZ        -2.1520   -8.9680  -23.3960 C.ar   13  TYR13       0.1957
     27  OH        -3.3400   -9.2630  -22.7420 O.3    13  TYR13      -0.2866
     28  N          4.6950  -11.6860  -22.4010 N.3    50  ASP50      -0.1239
     29  CA         3.7060  -11.2400  -21.4490 C.3    50  ASP50       0.1674
     30  C          2.4370  -11.9270  -21.8950 C.2    50  ASP50       0.2266
     31  O          1.8730  -11.5270  -22.8880 O.2    50  ASP50      -0.2867
     32  CB         3.5530   -9.7100  -21.6630 C.3    50  ASP50       0.1410
     33  CG         2.5670   -9.0390  -20.7360 C.2    50  ASP50       0.3668
     34  OD1        1.9630   -9.6510  -19.8880 O.co2  50  ASP50      -0.2456
     35  OD2        2.3760   -7.8050  -20.9160 O.co2  50  ASP50      -0.2456
     36  N         -0.6550  -13.0050  -20.1910 N.3    52  HIS52      -0.1226
     37  CA        -1.8400  -13.0080  -19.3600 C.3    52  HIS52       0.1752
     38  C         -2.7390  -11.8040  -19.7100 C.2    52  HIS52       0.2596
     39  O         -2.3000  -10.8150  -20.4000 O.2    52  HIS52      -0.2718
     40  CB        -1.4820  -12.9390  -17.8280 C.3    52  HIS52       0.0759
     41  CG        -0.7530  -14.1430  -17.2960 C.ar   52  HIS52       0.0818
     42  ND1        0.2410  -14.0610  -16.3460 N.ar   52  HIS52      -0.2268
     43  CD2       -0.9100  -15.4590  -17.5670 C.ar   52  HIS52       0.1154
     44  CE1        0.6860  -15.2660  -16.0790 C.ar   52  HIS52       0.1986
     45  NE2       -0.0030  -16.1310  -16.8010 N.ar   52  HIS52      -0.2212
     46  N         -3.9770  -11.8780  -19.2030 N.am   53  GLY53      -0.1957
     47  CA        -4.9440  -10.7740  -19.3260 C.3    53  GLY53       0.1869
     48  C         -6.1830  -11.1300  -20.1240 C.2    53  GLY53       0.2309
     49  O         -6.2340  -12.1610  -20.8150 O.2    53  GLY53      -0.2863
     50  N         -9.4680   -2.5820  -23.6630 N.3   131  GLU131     -0.1231
     51  CA        -9.1160   -3.1990  -22.3860 C.3   131  GLU131      0.1699
     52  C         -8.1700   -2.2170  -21.6160 C.2   131  GLU131      0.2593
     53  O         -7.1710   -2.6190  -21.0200 O.2   131  GLU131     -0.2718
     54  CB        -8.4850   -4.6170  -22.6320 C.3   131  GLU131      0.0402
     55  CG        -8.6630   -5.6920  -21.5460 C.3   131  GLU131      0.1161
     56  CD        -8.0840   -5.2780  -20.1980 C.2   131  GLU131      0.3649
     57  OE1       -6.9880   -5.7540  -19.8450 O.co2 131  GLU131     -0.2457
     58  OE2       -8.7280   -4.4420  -19.5040 O.co2 131  GLU131     -0.2457
     59  N         -8.5100   -0.9220  -21.6320 N.am  132  THR132     -0.1939
     60  CA        -7.6290    0.1290  -21.1070 C.3   132  THR132      0.2028
     61  C         -8.4440    1.2420  -20.4390 C.2   132  THR132      0.2642
     62  O         -9.5120    1.6040  -20.9170 O.2   132  THR132     -0.2714
     63  CB        -6.7590    0.8050  -22.2190 C.3   132  THR132      0.1808
     64  OG1       -6.2200   -0.1680  -23.1060 O.3   132  THR132     -0.2208
     65  CG2       -5.6120    1.5760  -21.5970 C.3   132  THR132      0.0379
     66  N         -7.8950    1.7820  -19.3560 N.am  133  TYR133     -0.1973
     67  CA        -8.4530    2.9030  -18.6200 C.3   133  TYR133      0.1639
     68  C         -7.6970    4.1660  -19.0820 C.2   133  TYR133      0.2290
     69  O         -6.4920    4.0870  -19.4350 O.2   133  TYR133     -0.2864
     70  CB        -8.2590    2.7160  -17.1110 C.3   133  TYR133      0.0560
     71  CG        -9.2620    1.8460  -16.3800 C.ar  133  TYR133     -0.0198
     72  CD1       -8.9920    0.4930  -16.0850 C.ar  133  TYR133     -0.0009
     73  CD2      -10.4910    2.3620  -15.9650 C.ar  133  TYR133     -0.0009
     74  CE1       -9.9100   -0.3100  -15.3750 C.ar  133  TYR133      0.0417
     75  CE2      -11.4230    1.5500  -15.2540 C.ar  133  TYR133      0.0417
     76  CZ       -11.1050    0.2460  -14.9570 C.ar  133  TYR133      0.1957
     77  OH       -12.0280   -0.4850  -14.2730 O.3   133  TYR133     -0.2866
     78  N        -10.8720  -10.4440  -14.9810 N.3   219  PHE219     -0.1241
     79  CA       -10.4170  -11.4970  -15.8790 C.3   219  PHE219      0.1605
     80  C        -10.0300  -12.7700  -15.0530 C.2   219  PHE219      0.2264
     81  O         -9.9590  -12.7230  -13.7930 O.2   219  PHE219     -0.2867
     82  CB        -9.3130  -10.9540  -16.8160 C.3   219  PHE219      0.0534
     83  CG        -7.9610  -10.7140  -16.1370 C.ar  219  PHE219     -0.0203
     84  CD1       -6.8960  -11.5720  -16.3800 C.ar  219  PHE219     -0.0042
     85  CD2       -7.7490   -9.6350  -15.2480 C.ar  219  PHE219     -0.0042
     86  CE1       -5.6740  -11.3750  -15.7850 C.ar  219  PHE219     -0.0003
     87  CE2       -6.5180   -9.4420  -14.6480 C.ar  219  PHE219     -0.0003
     88  CZ        -5.4810  -10.2820  -14.9350 C.ar  219  PHE219     -0.0000
     89  N         -3.6310  -10.7710  -10.5680 N.3   233  VAL233     -0.1231
     90  CA        -2.5300   -9.7890  -10.6290 C.3   233  VAL233      0.1692
     91  C         -2.5580   -9.0680  -11.9790 C.2   233  VAL233      0.2592
     92  O         -2.5330   -9.6990  -13.0510 O.2   233  VAL233     -0.2718
     93  CB        -1.1050  -10.4210  -10.3500 C.3   233  VAL233      0.0266
     94  CG1       -0.0410   -9.3390  -10.2230 C.3   233  VAL233      0.0020
     95  CG2       -1.1690  -11.2960   -9.0860 C.3   233  VAL233      0.0020
     96  N         -2.6710   -7.7430  -11.9130 N.am  234  TYR234     -0.1962
     97  CA        -2.6870   -6.9200  -13.1060 C.3   234  TYR234      0.1771
     98  C         -1.2310   -6.7450  -13.7220 C.2   234  TYR234      0.2619
     99  O         -0.2610   -7.3570  -13.2170 O.2   234  TYR234     -0.2715
    100  CB        -3.4570   -5.6050  -12.8230 C.3   234  TYR234      0.0574
    101  CG        -3.6940   -4.8240  -14.0700 C.ar  234  TYR234     -0.0198
    102  CD1       -4.3990   -5.3830  -15.1310 C.ar  234  TYR234     -0.0009
    103  CD2       -3.2510   -3.5310  -14.1890 C.ar  234  TYR234     -0.0009
    104  CE1       -4.6690   -4.6610  -16.2920 C.ar  234  TYR234      0.0417
    105  CE2       -3.5130   -2.7980  -15.3320 C.ar  234  TYR234      0.0417
    106  CZ        -4.2050   -3.3750  -16.3800 C.ar  234  TYR234      0.1957
    107  OH        -4.4160   -2.6830  -17.5110 O.3   234  TYR234     -0.2866
    108  N         -1.0710   -5.9390  -14.7880 N.am  235  VAL235     -0.1963
    109  CA         0.1650   -5.9220  -15.5770 C.3   235  VAL235      0.1727
    110  C          1.4410   -5.5890  -14.7960 C.2   235  VAL235      0.2616
    111  O          2.5020   -6.1650  -15.0510 O.2   235  VAL235     -0.2715
    112  CB         0.0640   -5.1090  -16.9340 C.3   235  VAL235      0.0290
    113  CG1       -0.1180   -3.6260  -16.7480 C.3   235  VAL235      0.0023
    114  CG2        1.3020   -5.3830  -17.8690 C.3   235  VAL235      0.0023
    115  N          1.3390   -4.6530  -13.8440 N.am  236  TRP236     -0.1974
    116  CA         2.5590   -4.0830  -13.2670 C.3   236  TRP236      0.1640
    117  C          3.5120   -5.0960  -12.6770 C.2   236  TRP236      0.2290
    118  O          4.6450   -5.1670  -13.1330 O.2   236  TRP236     -0.2864
    119  CB         2.2060   -3.0310  -12.2560 C.3   236  TRP236      0.0576
    120  CG         1.1570   -2.1910  -12.8260 C.ar  236  TRP236      0.0006
    121  CD1       -0.1080   -2.0780  -12.3950 C.ar  236  TRP236      0.0946
    122  CD2        1.2790   -1.4070  -14.0240 C.ar  236  TRP236      0.0152
    123  NE1       -0.8150   -1.2110  -13.2390 N.ar  236  TRP236     -0.2442
    124  CE2        0.0250   -0.7880  -14.2420 C.ar  236  TRP236      0.0810
    125  CE3        2.3340   -1.1760  -14.9440 C.ar  236  TRP236      0.0012
    126  CZ2       -0.2000    0.0710  -15.3100 C.ar  236  TRP236      0.0191
    127  CZ3        2.1070   -0.3460  -16.0290 C.ar  236  TRP236      0.0001
    128  CH2        0.8530    0.3050  -16.1740 C.ar  236  TRP236      0.0015
    129  N          3.0250   -8.5330  -12.4670 N.3   238  ASP238     -0.1225
    130  CA         3.1650   -9.6860  -13.3630 C.3   238  ASP238      0.1805
    131  C          4.2870   -9.4780  -14.4040 C.2   238  ASP238      0.2598
    132  O          5.2570  -10.2260  -14.4370 O.2   238  ASP238     -0.2718
    133  CB         1.8080  -10.0180  -14.0350 C.3   238  ASP238      0.1424
    134  CG         1.7840  -11.3460  -14.8010 C.2   238  ASP238      0.3668
    135  OD1        2.7150  -12.1990  -14.7710 O.co2 238  ASP238     -0.2456
    136  OD2        0.7340  -11.6070  -15.4300 O.co2 238  ASP238     -0.2456
    137  N          4.1700   -8.4530  -15.2290 N.am  239  ALA239     -0.1966
    138  CA         5.2410   -8.1900  -16.2130 C.3   239  ALA239      0.1728
    139  C          6.5680   -7.8150  -15.6120 C.2   239  ALA239      0.2616
    140  O          7.5510   -8.2970  -16.0970 O.2   239  ALA239     -0.2715
    141  CB         4.8160   -7.1740  -17.2870 C.3   239  ALA239      0.0334
    142  N          6.6580   -6.9100  -14.6080 N.am  240  LEU240     -0.1977
    143  CA         8.0680   -6.4940  -14.1830 C.3   240  LEU240      0.1596
    144  C          8.9620   -7.6150  -13.6250 C.2   240  LEU240      0.2287
    145  O         10.1950   -7.6480  -13.8130 O.2   240  LEU240     -0.2864
    146  CB         8.0670   -5.2480  -13.2670 C.3   240  LEU240      0.0297
    147  CG         7.6010   -4.0090  -14.0670 C.3   240  LEU240      0.0022
    148  CD1        7.0700   -2.8610  -13.1920 C.3   240  LEU240      0.0001
    149  CD2        8.7130   -3.5500  -15.0810 C.3   240  LEU240      0.0001
    150  N          9.3380  -10.5910  -14.3700 N.3   242  ASN242     -0.1225
    151  CA         9.9370  -11.3800  -15.4480 C.3   242  ASN242      0.1785
    152  C         11.4540  -11.3720  -15.3860 C.2   242  ASN242      0.2597
    153  O         12.1200  -12.4440  -15.4990 O.2   242  ASN242     -0.2718
    154  CB         9.4040  -10.8990  -16.8120 C.3   242  ASN242      0.1169
    155  CG        10.2820   -9.8500  -17.4830 C.2   242  ASN242      0.2627
    156  OD1       11.3770  -10.1470  -17.8540 O.2   242  ASN242     -0.2716
    157  ND2        9.7780   -8.6230  -17.6680 N.am  242  ASN242     -0.0877
    158  N         12.0030  -10.1590  -15.1850 N.am  243  TYR243     -0.1976
    159  CA        13.4460   -9.9920  -15.0210 C.3   243  TYR243      0.1639
    160  C         14.1110  -10.7240  -13.8610 C.2   243  TYR243      0.2290
    161  O         15.3130  -10.9310  -13.9250 O.2   243  TYR243     -0.2864
    162  CB        13.8060   -8.4970  -14.9050 C.3   243  TYR243      0.0560
    163  CG        13.2720   -7.6370  -16.0090 C.ar  243  TYR243     -0.0198
    164  CD1       13.6030   -7.8720  -17.3470 C.ar  243  TYR243     -0.0009
    165  CD2       12.4680   -6.5510  -15.7110 C.ar  243  TYR243     -0.0009
    166  CE1       13.0570   -7.0120  -18.3930 C.ar  243  TYR243      0.0417
    167  CE2       11.9330   -5.7120  -16.7190 C.ar  243  TYR243      0.0417
    168  CZ        12.2790   -5.9300  -18.0650 C.ar  243  TYR243      0.1957
    169  OH        11.8100   -5.0950  -19.0950 O.3   243  TYR243     -0.2866
    170  N          7.1410    2.4990  -22.2310 N.3   272  ILE272     -0.1245
    171  CA         7.2280    1.7940  -20.9390 C.3   272  ILE272      0.1561
    172  C          8.4410    2.1820  -20.1010 C.2   272  ILE272      0.2260
    173  O          8.7660    1.5050  -19.1260 O.2   272  ILE272     -0.2867
    174  CB         7.2000    0.2540  -21.0960 C.3   272  ILE272      0.0252
    175  CG1        8.3590   -0.2630  -21.9340 C.3   272  ILE272      0.0019
    176  CG2        5.7720   -0.2660  -21.6080 C.3   272  ILE272      0.0019
    177  CD1        8.4470   -1.8150  -21.9100 C.3   272  ILE272      0.0001
    178  N          7.4850    3.2110  -16.4220 N.3   275  PHE275     -0.1227
    179  CA         7.2280    2.0050  -15.6220 C.3   275  PHE275      0.1736
    180  C          8.5100    1.3630  -15.0540 C.2   275  PHE275      0.2595
    181  O          8.5480    0.8920  -13.9020 O.2   275  PHE275     -0.2718
    182  CB         6.3890    1.0110  -16.4630 C.3   275  PHE275      0.0547
    183  CG         5.1090    1.6210  -17.1020 C.ar  275  PHE275     -0.0202
    184  CD1        4.3100    2.5300  -16.4160 C.ar  275  PHE275     -0.0042
    185  CD2        4.7150    1.2660  -18.3640 C.ar  275  PHE275     -0.0042
    186  CE1        3.1430    3.0430  -16.9730 C.ar  275  PHE275     -0.0003
    187  CE2        3.5170    1.7630  -18.9310 C.ar  275  PHE275     -0.0003
    188  CZ         2.7500    2.6710  -18.2440 C.ar  275  PHE275     -0.0000
    189  N          9.5770    1.3680  -15.8520 N.am  276  HIS276     -0.1975
    190  CA        10.8560    0.7830  -15.4490 C.3   276  HIS276      0.1656
    191  C         11.7360    1.7130  -14.6000 C.2   276  HIS276      0.2291
    192  O         12.5580    1.2550  -13.8090 O.2   276  HIS276     -0.2864
    193  CB        11.6500    0.3630  -16.7150 C.3   276  HIS276      0.0771
    194  CG        11.1110   -0.8640  -17.3890 C.ar  276  HIS276      0.0820
    195  ND1        9.9750   -0.8470  -18.1770 N.ar  276  HIS276     -0.2267
    196  CD2       11.5440   -2.1520  -17.3810 C.ar  276  HIS276      0.1154
    197  CE1        9.7240   -2.0650  -18.6120 C.ar  276  HIS276      0.1986
    198  NE2       10.6690   -2.8760  -18.1630 N.ar  276  HIS276     -0.2212
@<TRIPOS>BOND
     1    19    18    2
     2    18    17    1
     3    16    17    1
     4    17    20    1
     5    20    21    1
     6    23    21   ar
     7    23    25   ar
     8    21    22   ar
     9    25    26   ar
    10     7     6    1
    11     7     1    1
    12    50    51    1
    13     4     3    2
    14    22    24   ar
    15    10    11    2
    16    10     9    1
    17    26    24   ar
    18    26    27    1
    19     6     5    1
    20    64    63    1
    21     1     2    1
    22    31    30    2
    23     5     2    1
    24     3     2    1
    25     3     8   am
    26    54    51    1
    27    54    55    1
    28     9     8    1
    29     9    12    1
    30    28    29    1
    31    51    52    1
    32   170   171    1
    33    63    65    1
    34    63    60    1
    35   175   177    1
    36   175   174    1
    37    30    29    1
    38    32    29    1
    39    32    33    1
    40    59    52   am
    41    59    60    1
    42    52    53    2
    43   176   174    1
    44    55    56    1
    45    12    14    1
    46    12    13    1
    47    60    61    1
    48   174   171    1
    49   171   172    1
    50    62    61    2
    51    35    33   ar
    52    49    48    2
    53    33    34   ar
    54    61    66   am
    55    39    38    2
    56    13    15    1
    57    56    57   ar
    58    56    58   ar
    59    36    37    1
    60    48    47    1
    61   172   173    2
    62    38    37    1
    63    38    46   am
    64    69    68    2
    65    37    40    1
    66    66    67    1
    67    47    46    1
    68   169   168    1
    69    68    67    1
    70   187   185   ar
    71   187   188   ar
    72    67    70    1
    73   197   195   ar
    74   197   198   ar
    75   166   168   ar
    76   166   164   ar
    77   185   183   ar
    78   188   186   ar
    79   195   194   ar
    80   198   196   ar
    81   168   167   ar
    82   114   112    1
    83   156   155    2
    84    40    41    1
    85   157   155   am
    86    43    41   ar
    87    43    45   ar
    88   107   106    1
    89   155   154    1
    90   194   196   ar
    91   194   193    1
    92   164   163   ar
    93    41    42   ar
    94   141   138    1
    95    70    71    1
    96   183   182    1
    97   183   184   ar
    98   186   184   ar
    99   112   113    1
   100   112   109    1
   101    82    83    1
   102    82    79    1
   103   154   151    1
   104    45    44   ar
   105   167   165   ar
   106   193   190    1
   107   182   179    1
   108   178   179    1
   109    84    83   ar
   110    84    86   ar
   111   106   104   ar
   112   106   105   ar
   113    71    72   ar
   114    71    73   ar
   115    42    44   ar
   116   104   102   ar
   117   138   139    1
   118   138   137    1
   119   128   127   ar
   120   128   126   ar
   121    83    85   ar
   122   140   139    2
   123    72    74   ar
   124   127   125   ar
   125   163   165   ar
   126   163   162    1
   127    73    75   ar
   128    79    80    1
   129    79    78    1
   130   189   190    1
   131   189   180   am
   132    86    88   ar
   133   179   180    1
   134   139   142   am
   135   109   110    1
   136   109   108    1
   137   153   152    2
   138   190   191    1
   139   151   152    1
   140   151   150    1
   141   136   134   ar
   142   152   158   am
   143    74    76   ar
   144   105   103   ar
   145   126   124   ar
   146    75    76   ar
   147    85    87   ar
   148   137   131   am
   149   158   159    1
   150   102   101   ar
   151   149   147    1
   152   180   181    2
   153    80    81    2
   154   111   110    2
   155   159   162    1
   156   159   160    1
   157    76    77    1
   158   125   122   ar
   159    88    87   ar
   160   134   135   ar
   161   134   133    1
   162   110   115   am
   163   108    98   am
   164   142   143    1
   165   191   192    2
   166   132   131    2
   167   131   130    1
   168   124   122   ar
   169   124   123   ar
   170   103   101   ar
   171   143   144    1
   172   143   146    1
   173   101   100    1
   174   147   146    1
   175   147   148    1
   176   133   130    1
   177   122   120   ar
   178   161   160    2
   179   115   116    1
   180   145   144    2
   181    98    99    2
   182    98    97    1
   183   130   129    1
   184   116   117    1
   185   116   119    1
   186   123   121   ar
   187   118   117    2
   188    97   100    1
   189    97    96    1
   190    92    91    2
   191   120   121   ar
   192   120   119    1
   193    91    96   am
   194    91    90    1
   195    90    89    1
   196    90    93    1
   197    93    94    1
   198    93    95    1
