@<TRIPOS>MOLECULE
tmp/4qreA01.pdb
 177 177 0 0 0
SMALL
GASTEIGER

@<TRIPOS>ATOM
      1  N         12.9650    4.6410    8.4230 N.3    10  PRO10      -0.2116
      2  CA        11.6220    4.8270    7.8720 C.3    10  PRO10       0.1372
      3  C         11.0850    6.2010    8.2630 C.2    10  PRO10       0.2244
      4  O         11.6250    6.8370    9.1590 O.2    10  PRO10      -0.2868
      5  CB        10.8020    3.7270    8.5620 C.3    10  PRO10       0.0268
      6  CG        11.8150    2.7170    9.0300 C.3    10  PRO10       0.0207
      7  CD        12.9820    3.5670    9.4340 C.3    10  PRO10       0.0892
      8  N          8.2340    7.8610   10.1060 N.3    12  TYR12      -0.1227
      9  CA         7.2310    7.3710   11.0510 C.3    12  TYR12       0.1736
     10  C          5.8990    8.0940   10.9060 C.2    12  TYR12       0.2595
     11  O          5.8570    9.2620   10.4920 O.2    12  TYR12      -0.2718
     12  CB         7.7530    7.4250   12.4900 C.3    12  TYR12       0.0548
     13  CG         9.1360    6.8350   12.6150 C.ar   12  TYR12      -0.0200
     14  CD1        9.3740    5.4810   12.3240 C.ar   12  TYR12      -0.0009
     15  CD2       10.2170    7.6390   12.9730 C.ar   12  TYR12      -0.0009
     16  CE1       10.6480    4.9330   12.4230 C.ar   12  TYR12       0.0417
     17  CE2       11.5200    7.1000   13.0610 C.ar   12  TYR12       0.0417
     18  CZ        11.7180    5.7560   12.7960 C.ar   12  TYR12       0.1957
     19  OH        12.9940    5.2600   12.8910 O.3    12  TYR12      -0.2866
     20  N          4.8190    7.3880   11.2410 N.am   13  TYR13      -0.1976
     21  CA         3.4680    7.9310   11.0990 C.3    13  TYR13       0.1639
     22  C          2.9930    8.5530   12.4240 C.2    13  TYR13       0.2290
     23  O          2.7210    7.8250   13.3930 O.2    13  TYR13      -0.2864
     24  CB         2.5030    6.8290   10.6120 C.3    13  TYR13       0.0560
     25  CG         1.2540    7.3730    9.9370 C.ar   13  TYR13      -0.0198
     26  CD1        1.3560    8.2190    8.8290 C.ar   13  TYR13      -0.0009
     27  CD2       -0.0160    7.0320   10.3900 C.ar   13  TYR13      -0.0009
     28  CE1        0.2280    8.7380    8.2040 C.ar   13  TYR13       0.0417
     29  CE2       -1.1650    7.5530    9.7670 C.ar   13  TYR13       0.0417
     30  CZ        -1.0290    8.4030    8.6750 C.ar   13  TYR13       0.1957
     31  OH        -2.1540    8.8950    8.0450 O.3    13  TYR13      -0.2866
     32  N          7.4740    5.4790   20.3720 N.3    19  HIS19      -0.1241
     33  CA         7.9000    4.6860   21.5320 C.3    19  HIS19       0.1621
     34  C          9.3120    4.1260   21.3070 C.2    19  HIS19       0.2264
     35  O          9.9680    4.4420   20.2970 O.2    19  HIS19      -0.2867
     36  CB         6.8890    3.5710   21.8490 C.3    19  HIS19       0.0745
     37  CG         6.5240    2.7340   20.6640 C.ar   19  HIS19       0.0817
     38  ND1        7.4090    1.8610   20.0690 N.ar   19  HIS19      -0.2268
     39  CD2        5.3640    2.6250   19.9740 C.ar   19  HIS19       0.1154
     40  CE1        6.8150    1.2630   19.0510 C.ar   19  HIS19       0.1986
     41  NE2        5.5740    1.7090   18.9740 N.ar   19  HIS19      -0.2212
     42  N         10.3360    1.4130   20.2180 N.3    21  GLY21      -0.1210
     43  CA        10.4620    0.7130   18.9270 C.3    21  GLY21       0.1956
     44  C         10.9700    1.6640   17.8470 C.2    21  GLY21       0.2611
     45  O         11.8960    1.3470   17.0900 O.2    21  GLY21      -0.2717
     46  N         10.3780    2.8520   17.8040 N.am   22  HIS22      -0.1975
     47  CA        10.8540    3.8910   16.8910 C.3    22  HIS22       0.1656
     48  C         12.2680    4.3570   17.2740 C.2    22  HIS22       0.2291
     49  O         13.1260    4.5150   16.4060 O.2    22  HIS22      -0.2864
     50  CB         9.8710    5.0620   16.8400 C.3    22  HIS22       0.0771
     51  CG         8.4620    4.6530   16.5390 C.ar   22  HIS22       0.0820
     52  ND1        7.5090    4.4960   17.5230 N.ar   22  HIS22      -0.2267
     53  CD2        7.8520    4.3530   15.3700 C.ar   22  HIS22       0.1154
     54  CE1        6.3660    4.1290   16.9680 C.ar   22  HIS22       0.1986
     55  NE2        6.5490    4.0330   15.6620 N.ar   22  HIS22      -0.2212
     56  N         14.5650    2.6730   18.7100 N.3    24  TYR24      -0.1227
     57  CA        15.4400    1.5770   18.3230 C.3    24  TYR24       0.1736
     58  C         16.0120    1.7660   16.9190 C.2    24  TYR24       0.2596
     59  O         17.2320    1.7890   16.7570 O.2    24  TYR24      -0.2718
     60  CB        14.6770    0.2580   18.4540 C.3    24  TYR24       0.0548
     61  CG        15.4500   -1.0010   18.2040 C.ar   24  TYR24      -0.0200
     62  CD1       16.6750   -1.2460   18.8360 C.ar   24  TYR24      -0.0009
     63  CD2       14.9110   -2.0050   17.3970 C.ar   24  TYR24      -0.0009
     64  CE1       17.3630   -2.4480   18.6290 C.ar   24  TYR24       0.0417
     65  CE2       15.5870   -3.1980   17.1880 C.ar   24  TYR24       0.0417
     66  CZ        16.8110   -3.4120   17.7970 C.ar   24  TYR24       0.1957
     67  OH        17.4680   -4.6040   17.5910 O.3    24  TYR24      -0.2866
     68  N         15.1430    1.9310   15.9160 N.am   25  SER25      -0.1952
     69  CA        15.6030    2.1610   14.5260 C.3    25  SER25       0.1924
     70  C         16.4680    3.4210   14.4090 C.2    25  SER25       0.2314
     71  O         17.4970    3.4190   13.7270 O.2    25  SER25      -0.2863
     72  CB        14.4060    2.3160   13.5790 C.3    25  SER25       0.2116
     73  OG        13.5450    1.1870   13.6340 O.3    25  SER25      -0.2180
     74  N         14.9640   -0.4590    8.7140 N.3   268  MET268     -0.1230
     75  CA        13.5390   -0.5910    9.0670 C.3   268  MET268      0.1702
     76  C         13.3100   -1.8600    9.8920 C.2   268  MET268      0.2592
     77  O         14.2230   -2.6780   10.0390 O.2   268  MET268     -0.2718
     78  CB        12.6870   -0.6870    7.7960 C.3   268  MET268      0.0401
     79  CG        12.9620   -1.9540    6.9670 C.3   268  MET268      0.0596
     80  SD        12.7000   -1.7590    5.1880 S.3   268  MET268     -0.1393
     81  CE        14.0330   -0.6340    4.7840 C.3   268  MET268      0.0692
     82  N         12.0910   -2.0340   10.4030 N.am  269  ALA269     -0.1980
     83  CA        11.6560   -3.3580   10.9200 C.3   269  ALA269      0.1597
     84  C         10.9930   -4.1940    9.8150 C.2   269  ALA269      0.2287
     85  O         10.6850   -3.6700    8.7440 O.2   269  ALA269     -0.2864
     86  CB        10.7140   -3.2160   12.1180 C.3   269  ALA269      0.0319
     87  N          8.1000   -5.4440    8.9420 N.3   271  GLU271     -0.1231
     88  CA         6.7650   -5.3110    8.3320 C.3   271  GLU271      0.1699
     89  C          6.7150   -4.4150    7.0780 C.2   271  GLU271      0.2592
     90  O          5.7170   -4.4200    6.3510 O.2   271  GLU271     -0.2718
     91  CB         5.7000   -4.8920    9.3570 C.3   271  GLU271      0.0402
     92  CG         5.7550   -3.4300    9.7620 C.3   271  GLU271      0.1161
     93  CD         7.0360   -3.0670   10.4840 C.2   271  GLU271      0.3649
     94  OE1        7.4380   -3.8050   11.4250 O.co2 271  GLU271     -0.2457
     95  OE2        7.6350   -2.0440   10.0970 O.co2 271  GLU271     -0.2457
     96  N          7.7820   -3.6520    6.8300 N.am  272  ILE272     -0.1980
     97  CA         7.8340   -2.7780    5.6520 C.3   272  ILE272      0.1595
     98  C          8.9710   -3.1550    4.6890 C.2   272  ILE272      0.2287
     99  O          9.2290   -2.4380    3.7220 O.2   272  ILE272     -0.2864
    100  CB         7.8790   -1.2680    6.0150 C.3   272  ILE272      0.0276
    101  CG1        9.1250   -0.9170    6.8460 C.3   272  ILE272      0.0022
    102  CG2        6.5760   -0.8270    6.7150 C.3   272  ILE272      0.0022
    103  CD1        9.1990    0.5960    7.2250 C.3   272  ILE272      0.0001
    104  N         15.7760   -4.9100   10.9160 N.3   298  HIS298     -0.1226
    105  CA        16.0050   -5.4500   12.2530 C.3   298  HIS298      0.1752
    106  C         14.7180   -6.0540   12.8220 C.2   298  HIS298      0.2597
    107  O         13.6540   -5.9790   12.1930 O.2   298  HIS298     -0.2718
    108  CB        16.5570   -4.3750   13.1910 C.3   298  HIS298      0.0759
    109  CG        15.6730   -3.1770   13.3250 C.ar  298  HIS298      0.0818
    110  ND1       14.4460   -3.2240   13.9540 N.ar  298  HIS298     -0.2268
    111  CD2       15.8430   -1.8950   12.9190 C.ar  298  HIS298      0.1154
    112  CE1       13.8930   -2.0200   13.9170 C.ar  298  HIS298      0.1986
    113  NE2       14.7280   -1.1940   13.3070 N.ar  298  HIS298     -0.2212
    114  N         14.8210   -6.6500   14.0120 N.am  299  GLY299     -0.1942
    115  CA        13.6850   -7.3080   14.6470 C.3   299  GLY299      0.2014
    116  C         12.7990   -6.3520   15.4220 C.2   299  GLY299      0.2639
    117  O         13.0020   -5.1390   15.3930 O.2   299  GLY299     -0.2714
    118  N         11.8210   -6.9090   16.1220 N.am  300  TRP300     -0.1959
    119  CA        10.8650   -6.1290   16.9000 C.3   300  TRP300      0.1771
    120  C         11.1960   -6.1300   18.3770 C.2   300  TRP300      0.2619
    121  O         11.6190   -7.1510   18.9360 O.2   300  TRP300     -0.2715
    122  CB         9.4490   -6.7070   16.7560 C.3   300  TRP300      0.0590
    123  CG         8.8310   -6.5430   15.4060 C.ar  300  TRP300      0.0006
    124  CD1        9.0930   -5.5650   14.4860 C.ar  300  TRP300      0.0946
    125  CD2        7.8230   -7.3790   14.8330 C.ar  300  TRP300      0.0152
    126  NE1        8.3150   -5.7510   13.3640 N.ar  300  TRP300     -0.2442
    127  CE2        7.5250   -6.8560   13.5510 C.ar  300  TRP300      0.0810
    128  CE3        7.1400   -8.5230   15.2780 C.ar  300  TRP300      0.0012
    129  CZ2        6.5690   -7.4370   12.7060 C.ar  300  TRP300      0.0191
    130  CZ3        6.1810   -9.1030   14.4370 C.ar  300  TRP300      0.0001
    131  CH2        5.9070   -8.5550   13.1660 C.ar  300  TRP300      0.0015
    132  N         10.9870   -4.9840   19.0150 N.am  301  ILE301     -0.1977
    133  CA        10.8660   -4.9370   20.4630 C.3   301  ILE301      0.1596
    134  C          9.4610   -5.4110   20.8330 C.2   301  ILE301      0.2287
    135  O          8.4550   -4.8740   20.3470 O.2   301  ILE301     -0.2864
    136  CB        11.1080   -3.5190   21.0220 C.3   301  ILE301      0.0276
    137  CG1       12.5230   -3.0390   20.6660 C.3   301  ILE301      0.0022
    138  CG2       10.8740   -3.4860   22.5290 C.3   301  ILE301      0.0022
    139  CD1       12.8120   -1.6000   21.0600 C.3   301  ILE301      0.0001
    140  N          4.3710   -7.6980   20.0080 N.3   307  LYS307     -0.1231
    141  CA         5.0310   -6.5000   19.4220 C.3   307  LYS307      0.1693
    142  C          4.5330   -5.2060   20.0630 C.2   307  LYS307      0.2592
    143  O          3.3190   -5.0030   20.2210 O.2   307  LYS307     -0.2718
    144  CB         4.8620   -6.4000   17.8900 C.3   307  LYS307      0.0285
    145  CG         5.6120   -5.1920   17.2510 C.3   307  LYS307      0.0035
    146  CD         5.2800   -5.0200   15.7690 C.3   307  LYS307      0.0206
    147  CE         5.9960   -3.8110   15.1610 C.3   307  LYS307      0.1093
    148  NZ         5.5680   -3.5820   13.7460 N.3   307  LYS307     -0.1314
    149  N          5.4780   -4.3440   20.4370 N.am  308  MET308     -0.1965
    150  CA         5.1540   -3.0500   21.0180 C.3   308  MET308      0.1736
    151  C          4.5520   -2.1350   19.9520 C.2   308  MET308      0.2617
    152  O          5.1700   -1.8740   18.9270 O.2   308  MET308     -0.2715
    153  CB         6.3900   -2.3950   21.6270 C.3   308  MET308      0.0427
    154  CG         6.0940   -1.0230   22.2100 C.3   308  MET308      0.0599
    155  SD         7.4920   -0.2390   23.0150 S.3   308  MET308     -0.1393
    156  CE         7.8030   -1.3860   24.3660 C.3   308  MET308      0.0692
    157  N          3.3330   -1.6670   20.2130 N.am  309  SER309     -0.1936
    158  CA         2.6070   -0.8090   19.2840 C.3   309  SER309      0.2055
    159  C          1.4900   -0.0710   20.0110 C.2   309  SER309      0.2643
    160  O          0.8560   -0.6260   20.9150 O.2   309  SER309     -0.2714
    161  CB         2.0190   -1.6240   18.1270 C.3   309  SER309      0.2130
    162  OG         2.1090   -0.8800   16.9140 O.3   309  SER309     -0.2179
    163  N          1.2340    1.1650   19.5890 N.am  310  LYS310     -0.1963
    164  CA         0.2240    2.0250   20.2310 C.3   310  LYS310      0.1728
    165  C         -1.1750    1.4180   20.3460 C.2   310  LYS310      0.2616
    166  O         -1.8710    1.6450   21.3470 O.2   310  LYS310     -0.2715
    167  CB         0.1520    3.4000   19.5500 C.3   310  LYS310      0.0311
    168  CG        -0.3150    3.3970   18.0930 C.3   310  LYS310      0.0038
    169  CD        -0.4010    4.8380   17.5590 C.3   310  LYS310      0.0206
    170  CE        -1.0370    4.9080   16.1760 C.3   310  LYS310      0.1093
    171  NZ        -0.1330    4.4310   15.0830 N.3   310  LYS310     -0.1314
    172  N         -1.5810    0.6580   19.3300 N.am  311  SER311     -0.1950
    173  CA        -2.9170    0.0600   19.2950 C.3   311  SER311      0.1924
    174  C         -3.0690   -1.0680   20.3140 C.2   311  SER311      0.2314
    175  O         -4.1860   -1.3950   20.7200 O.2   311  SER311     -0.2863
    176  CB        -3.2500   -0.4610   17.8900 C.3   311  SER311      0.2116
    177  OG        -2.3520   -1.4890   17.4850 O.3   311  SER311     -0.2180
@<TRIPOS>BOND
     1    99    98    2
     2    98    97    1
     3    81    80    1
     4    80    79    1
     5    97   100    1
     6    97    96    1
     7   100   102    1
     8   100   101    1
     9    90    89    2
    10    96    89   am
    11   101   103    1
    12    79    78    1
    13    89    88    1
    14    78    75    1
    15     2     3    1
    16     2     1    1
    17     2     5    1
    18    31    30    1
    19    28    30   ar
    20    28    26   ar
    21     3     4    2
    22    88    87    1
    23    88    91    1
    24     1     7    1
    25     5     6    1
    26    30    29   ar
    27    74    75    1
    28    85    84    2
    29    26    25   ar
    30     6     7    1
    31    75    76    1
    32    91    92    1
    33    92    93    1
    34    29    27   ar
    35    84    83    1
    36    76    77    2
    37    76    82   am
    38    25    27   ar
    39    25    24    1
    40    95    93   ar
    41     8     9    1
    42    82    83    1
    43    93    94   ar
    44    11    10    2
    45    24    21    1
    46    10     9    1
    47    10    20   am
    48   104   105    1
    49    83    86    1
    50     9    12    1
    51    21    20    1
    52    21    22    1
    53   107   106    2
    54   105   106    1
    55   105   108    1
    56    14    16   ar
    57    14    13   ar
    58    16    18   ar
    59    22    23    2
    60    12    13    1
    61    13    15   ar
    62   129   131   ar
    63   129   127   ar
    64    18    19    1
    65    18    17   ar
    66   106   114   am
    67   111   113   ar
    68   111   109   ar
    69    15    17   ar
    70   131   130   ar
    71   108   109    1
    72   113   112   ar
    73   109   110   ar
    74   126   127   ar
    75   126   124   ar
    76   127   125   ar
    77    72    73    1
    78    72    69    1
    79    71    70    2
    80   148   147    1
    81   112   110   ar
    82   114   115    1
    83    70    69    1
    84   130   128   ar
    85   124   123   ar
    86    69    68    1
    87   115   116    1
    88   125   128   ar
    89   125   123   ar
    90   171   170    1
    91   147   146    1
    92    53    55   ar
    93    53    51   ar
    94   117   116    2
    95   123   122    1
    96   116   118   am
    97    55    54   ar
    98   146   145    1
    99    68    58   am
   100   118   119    1
   101   170   169    1
   102    49    48    2
   103    51    50    1
   104    51    52   ar
   105   122   119    1
   106    59    58    2
   107    50    47    1
   108    47    48    1
   109    47    46    1
   110   119   120    1
   111   162   161    1
   112    58    57    1
   113    54    52   ar
   114    45    44    2
   115    65    63   ar
   116    65    66   ar
   117   145   144    1
   118    63    61   ar
   119   177   176    1
   120   169   168    1
   121    67    66    1
   122    66    64   ar
   123    46    44   am
   124    44    43    1
   125   144   141    1
   126   176   173    1
   127   168   167    1
   128   161   158    1
   129    61    60    1
   130    61    62   ar
   131    57    60    1
   132    57    56    1
   133   120   121    2
   134   120   132   am
   135    64    62   ar
   136    43    42    1
   137   152   151    2
   138    41    40   ar
   139    41    39   ar
   140   132   133    1
   141    40    38   ar
   142   158   159    1
   143   158   157    1
   144   173   172    1
   145   173   174    1
   146   172   165   am
   147   141   140    1
   148   141   142    1
   149   167   164    1
   150   163   159   am
   151   163   164    1
   152   151   157   am
   153   151   150    1
   154    39    37   ar
   155   159   160    2
   156   142   143    2
   157   142   149   am
   158    38    37   ar
   159   164   165    1
   160    35    34    2
   161   174   175    2
   162   165   166    2
   163   135   134    2
   164    32    33    1
   165   149   150    1
   166   133   134    1
   167   133   136    1
   168    37    36    1
   169   137   136    1
   170   137   139    1
   171   150   153    1
   172   136   138    1
   173    34    33    1
   174    33    36    1
   175   153   154    1
   176   154   155    1
   177   155   156    1
