@<TRIPOS>MOLECULE
tmp/4qreA00.pdb
 235 237 0 0 0
SMALL
GASTEIGER

@<TRIPOS>ATOM
      1  N         12.9650    4.6410    8.4230 N.3    10  PRO10      -0.2102
      2  CA        11.6220    4.8270    7.8720 C.3    10  PRO10       0.1504
      3  C         11.0850    6.2010    8.2630 C.2    10  PRO10       0.2576
      4  O         11.6250    6.8370    9.1590 O.2    10  PRO10      -0.2718
      5  CB        10.8020    3.7270    8.5620 C.3    10  PRO10       0.0282
      6  CG        11.8150    2.7170    9.0300 C.3    10  PRO10       0.0208
      7  CD        12.9820    3.5670    9.4340 C.3    10  PRO10       0.0893
      8  N         10.0520    6.6680    7.5780 N.am   11  ILE11      -0.1966
      9  CA         9.4220    7.9090    8.0070 C.3    11  ILE11       0.1727
     10  C          8.1880    7.5340    8.8160 C.2    11  ILE11       0.2616
     11  O          7.2450    6.9240    8.2960 O.2    11  ILE11      -0.2715
     12  CB         9.1700    8.9510    6.8610 C.3    11  ILE11       0.0290
     13  CG1        8.3790    8.3710    5.6840 C.3    11  ILE11       0.0022
     14  CG2       10.5030    9.5510    6.3860 C.3    11  ILE11       0.0023
     15  CD1        7.7510    9.4530    4.7660 C.3    11  ILE11       0.0001
     16  N          8.2340    7.8610   10.1060 N.am   12  TYR12      -0.1960
     17  CA         7.2310    7.3710   11.0510 C.3    12  TYR12       0.1771
     18  C          5.8990    8.0940   10.9060 C.2    12  TYR12       0.2619
     19  O          5.8570    9.2620   10.4920 O.2    12  TYR12      -0.2715
     20  CB         7.7530    7.4250   12.4900 C.3    12  TYR12       0.0574
     21  CG         9.1360    6.8350   12.6150 C.ar   12  TYR12      -0.0198
     22  CD1        9.3740    5.4810   12.3240 C.ar   12  TYR12      -0.0009
     23  CD2       10.2170    7.6390   12.9730 C.ar   12  TYR12      -0.0009
     24  CE1       10.6480    4.9330   12.4230 C.ar   12  TYR12       0.0417
     25  CE2       11.5200    7.1000   13.0610 C.ar   12  TYR12       0.0417
     26  CZ        11.7180    5.7560   12.7960 C.ar   12  TYR12       0.1957
     27  OH        12.9940    5.2600   12.8910 O.3    12  TYR12      -0.2866
     28  N          4.8190    7.3880   11.2410 N.am   13  TYR13      -0.1974
     29  CA         3.4680    7.9310   11.0990 C.3    13  TYR13       0.1639
     30  C          2.9930    8.5530   12.4240 C.2    13  TYR13       0.2290
     31  O          2.7210    7.8250   13.3930 O.2    13  TYR13      -0.2864
     32  CB         2.5030    6.8290   10.6120 C.3    13  TYR13       0.0560
     33  CG         1.2540    7.3730    9.9370 C.ar   13  TYR13      -0.0198
     34  CD1        1.3560    8.2190    8.8290 C.ar   13  TYR13      -0.0009
     35  CD2       -0.0160    7.0320   10.3900 C.ar   13  TYR13      -0.0009
     36  CE1        0.2280    8.7380    8.2040 C.ar   13  TYR13       0.0417
     37  CE2       -1.1650    7.5530    9.7670 C.ar   13  TYR13       0.0417
     38  CZ        -1.0290    8.4030    8.6750 C.ar   13  TYR13       0.1957
     39  OH        -2.1540    8.8950    8.0450 O.3    13  TYR13      -0.2866
     40  N          5.9280   10.6340    7.9510 N.3    50  ASP50      -0.1239
     41  CA         4.9110   10.3810    6.9310 C.3    50  ASP50       0.1674
     42  C          3.6310   11.0480    7.4310 C.2    50  ASP50       0.2266
     43  O          3.0860   10.6300    8.4460 O.2    50  ASP50      -0.2867
     44  CB         4.7660    8.8550    6.8220 C.3    50  ASP50       0.1410
     45  CG         3.6790    8.3940    5.8530 C.2    50  ASP50       0.3668
     46  OD1        3.2110    9.1690    4.9880 O.co2  50  ASP50      -0.2456
     47  OD2        3.3240    7.2010    5.9610 O.co2  50  ASP50      -0.2456
     48  N          0.5660   12.3490    5.6250 N.3    52  HIS52      -0.1226
     49  CA        -0.7050   12.4060    4.9030 C.3    52  HIS52       0.1752
     50  C         -1.6190   11.2490    5.2450 C.2    52  HIS52       0.2597
     51  O         -1.2130   10.3110    5.9380 O.2    52  HIS52      -0.2718
     52  CB        -0.4750   12.5010    3.3960 C.3    52  HIS52       0.0759
     53  CG         0.2380   13.7530    2.9960 C.ar   52  HIS52       0.0818
     54  ND1        1.3350   13.7550    2.1630 N.ar   52  HIS52      -0.2268
     55  CD2        0.0370   15.0400    3.3590 C.ar   52  HIS52       0.1154
     56  CE1        1.7620   14.9940    2.0080 C.ar   52  HIS52       0.1986
     57  NE2        0.9990   15.7920    2.7310 N.ar   52  HIS52      -0.2212
     58  N         -2.8650   11.3430    4.7860 N.am   53  GLY53      -0.1942
     59  CA        -3.7920   10.2430    4.9580 C.3    53  GLY53       0.2014
     60  C         -4.9730   10.5360    5.8500 C.2    53  GLY53       0.2638
     61  O         -4.9800   11.5010    6.6340 O.2    53  GLY53      -0.2714
     62  N         -5.9740    9.6720    5.7310 N.am   54  GLN54      -0.1977
     63  CA        -7.2260    9.8280    6.4620 C.3    54  GLN54       0.1601
     64  C         -7.0480    9.8330    7.9780 C.2    54  GLN54       0.2287
     65  O         -7.7270   10.5820    8.6740 O.2    54  GLN54      -0.2864
     66  CB        -8.2060    8.7340    6.0570 C.3    54  GLN54       0.0394
     67  CG        -9.6350    9.0730    6.4150 C.3    54  GLN54       0.0908
     68  CD       -10.6220    8.1170    5.8150 C.2    54  GLN54       0.2608
     69  OE1      -10.9550    7.0910    6.4140 O.2    54  GLN54      -0.2717
     70  NE2      -11.1190    8.4520    4.6300 N.am   54  GLN54      -0.0878
     71  N         -7.7480   -0.8840   11.0460 N.3   131  GLU131     -0.1231
     72  CA        -7.3140    0.1920   10.1970 C.3   131  GLU131      0.1699
     73  C         -6.5270   -0.3520    9.0540 C.2   131  GLU131      0.2593
     74  O         -5.5220    0.1900    8.6620 O.2   131  GLU131     -0.2718
     75  CB        -6.5550    1.2430   11.0240 C.3   131  GLU131      0.0402
     76  CG        -7.4990    1.9360   11.9910 C.3   131  GLU131      0.1161
     77  CD        -6.8780    3.0400   12.8280 C.2   131  GLU131      0.3649
     78  OE1       -5.6680    3.1710   12.7930 O.co2 131  GLU131     -0.2457
     79  OE2       -7.6190    3.7430   13.5130 O.co2 131  GLU131     -0.2457
     80  N         -7.0390   -1.4620    8.5230 N.am  132  THR132     -0.1939
     81  CA        -6.3680   -2.2790    7.5430 C.3   132  THR132      0.2028
     82  C         -7.3460   -2.7140    6.4430 C.2   132  THR132      0.2642
     83  O         -8.4250   -3.1160    6.7260 O.2   132  THR132     -0.2714
     84  CB        -5.7440   -3.5070    8.1780 C.3   132  THR132      0.1808
     85  OG1       -4.7250   -3.0910    9.0380 O.3   132  THR132     -0.2208
     86  CG2       -5.0900   -4.3170    7.1780 C.3   132  THR132      0.0379
     87  N         -6.9160   -2.5970    5.2080 N.am  133  TYR133     -0.1973
     88  CA        -7.6160   -3.1610    4.0770 C.3   133  TYR133      0.1639
     89  C         -7.0100   -4.4760    3.7240 C.2   133  TYR133      0.2290
     90  O         -5.8350   -4.6410    3.8060 O.2   133  TYR133     -0.2864
     91  CB        -7.6090   -2.2400    2.8680 C.3   133  TYR133      0.0560
     92  CG        -8.2250   -0.8780    3.1090 C.ar  133  TYR133     -0.0198
     93  CD1       -9.4850   -0.5500    2.6340 C.ar  133  TYR133     -0.0009
     94  CD2       -7.5300    0.0860    3.7930 C.ar  133  TYR133     -0.0009
     95  CE1      -10.0140    0.6750    2.8810 C.ar  133  TYR133      0.0417
     96  CE2       -8.0420    1.3010    4.0110 C.ar  133  TYR133      0.0417
     97  CZ        -9.2740    1.6190    3.5560 C.ar  133  TYR133      0.1957
     98  OH        -9.7520    2.8880    3.8340 O.3   133  TYR133     -0.2866
     99  N        -10.2660   10.6790    0.3820 N.3   219  PHE219     -0.1241
    100  CA        -9.7830   11.6230    1.3840 C.3   219  PHE219      0.1605
    101  C         -8.9950   12.7620    0.7120 C.2   219  PHE219      0.2264
    102  O         -8.4690   12.5820   -0.3860 O.2   219  PHE219     -0.2867
    103  CB        -8.9450   10.9030    2.4570 C.3   219  PHE219      0.0534
    104  CG        -7.6630   10.3020    1.9460 C.ar  219  PHE219     -0.0203
    105  CD1       -7.6390    8.9840    1.4810 C.ar  219  PHE219     -0.0042
    106  CD2       -6.4790   11.0310    1.9500 C.ar  219  PHE219     -0.0042
    107  CE1       -6.4540    8.4070    1.0230 C.ar  219  PHE219     -0.0003
    108  CE2       -5.2910   10.4740    1.4980 C.ar  219  PHE219     -0.0003
    109  CZ        -5.2740    9.1470    1.0280 C.ar  219  PHE219     -0.0000
    110  N         -5.8660   11.7860   -4.8360 N.3   232  VAL232     -0.1231
    111  CA        -4.7920   12.0310   -3.8830 C.3   232  VAL232      0.1692
    112  C         -3.8440   10.8410   -3.9070 C.2   232  VAL232      0.2592
    113  O         -4.2790    9.6810   -3.9640 O.2   232  VAL232     -0.2718
    114  CB        -5.3220   12.3070   -2.4450 C.3   232  VAL232      0.0266
    115  CG1       -6.0470   11.0780   -1.8590 C.3   232  VAL232      0.0020
    116  CG2       -4.1830   12.7040   -1.5490 C.3   232  VAL232      0.0020
    117  N         -2.5520   11.1360   -3.8810 N.am  233  VAL233     -0.1966
    118  CA        -1.5380   10.0800   -3.9270 C.3   233  VAL233      0.1727
    119  C         -1.5970    9.2900   -2.6340 C.2   233  VAL233      0.2616
    120  O         -1.6430    9.8380   -1.5270 O.2   233  VAL233     -0.2715
    121  CB        -0.1160   10.6390   -4.2100 C.3   233  VAL233      0.0290
    122  CG1        0.8680    9.4780   -4.3630 C.3   233  VAL233      0.0023
    123  CG2       -0.1380   11.4350   -5.5100 C.3   233  VAL233      0.0023
    124  N         -1.6430    7.9730   -2.7790 N.am  234  TYR234     -0.1960
    125  CA        -1.7410    7.1350   -1.6200 C.3   234  TYR234      0.1771
    126  C         -0.3200    6.8940   -1.0700 C.2   234  TYR234      0.2619
    127  O          0.6650    7.4780   -1.5730 O.2   234  TYR234     -0.2715
    128  CB        -2.5210    5.8680   -1.9930 C.3   234  TYR234      0.0574
    129  CG        -2.8860    4.9790   -0.8370 C.ar  234  TYR234     -0.0198
    130  CD1       -3.6200    5.4650    0.2590 C.ar  234  TYR234     -0.0009
    131  CD2       -2.4930    3.6430   -0.8430 C.ar  234  TYR234     -0.0009
    132  CE1       -3.9440    4.6100    1.3400 C.ar  234  TYR234      0.0417
    133  CE2       -2.8100    2.7890    0.2110 C.ar  234  TYR234      0.0417
    134  CZ        -3.5240    3.2740    1.2920 C.ar  234  TYR234      0.1957
    135  OH        -3.8130    2.4090    2.3210 O.3   234  TYR234     -0.2866
    136  N         -0.2040    6.0630   -0.0420 N.am  235  VAL235     -0.1963
    137  CA         1.0540    5.9200    0.6760 C.3   235  VAL235      0.1727
    138  C          2.2780    5.5640   -0.1690 C.2   235  VAL235      0.2616
    139  O          3.3240    6.1540    0.0470 O.2   235  VAL235     -0.2715
    140  CB         0.9420    5.0000    1.9290 C.3   235  VAL235      0.0290
    141  CG1        0.6800    3.5640    1.5530 C.3   235  VAL235      0.0023
    142  CG2        2.2010    5.1280    2.8090 C.3   235  VAL235      0.0023
    143  N          2.1430    4.6340   -1.1180 N.am  236  TRP236     -0.1974
    144  CA         3.2950    4.0500   -1.8220 C.3   236  TRP236      0.1640
    145  C          4.2590    5.0800   -2.4220 C.2   236  TRP236      0.2290
    146  O          5.4380    5.1560   -2.0350 O.2   236  TRP236     -0.2864
    147  CB         2.8110    3.0400   -2.8890 C.3   236  TRP236      0.0576
    148  CG         1.6700    2.1470   -2.3780 C.ar  236  TRP236      0.0006
    149  CD1        0.4080    2.0800   -2.8670 C.ar  236  TRP236      0.0946
    150  CD2        1.7130    1.2720   -1.2420 C.ar  236  TRP236      0.0152
    151  NE1       -0.3540    1.1970   -2.1130 N.ar  236  TRP236     -0.2442
    152  CE2        0.4330    0.6880   -1.1120 C.ar  236  TRP236      0.0810
    153  CE3        2.7170    0.9200   -0.3210 C.ar  236  TRP236      0.0012
    154  CZ2        0.1280   -0.2340   -0.1090 C.ar  236  TRP236      0.0191
    155  CZ3        2.4120    0.0170    0.6840 C.ar  236  TRP236      0.0001
    156  CH2        1.1230   -0.5570    0.7790 C.ar  236  TRP236      0.0015
    157  N          3.9890    8.4350   -2.2230 N.3   238  ASP238     -0.1225
    158  CA         4.1870    9.5590   -1.3020 C.3   238  ASP238      0.1805
    159  C          5.3130    9.2460   -0.3000 C.2   238  ASP238      0.2598
    160  O          6.3440    9.9270   -0.2900 O.2   238  ASP238     -0.2718
    161  CB         2.8680    9.8710   -0.5880 C.3   238  ASP238      0.1424
    162  CG         2.9330   11.1500    0.2610 C.2   238  ASP238      0.3668
    163  OD1        4.0200   11.7340    0.4060 O.co2 238  ASP238     -0.2456
    164  OD2        1.8910   11.5360    0.8280 O.co2 238  ASP238     -0.2456
    165  N          5.1400    8.2000    0.5050 N.am  239  ALA239     -0.1966
    166  CA         6.0980    7.9300    1.5810 C.3   239  ALA239      0.1728
    167  C          7.4760    7.5010    1.0500 C.2   239  ALA239      0.2616
    168  O          8.5010    8.0050    1.5280 O.2   239  ALA239     -0.2715
    169  CB         5.5370    6.9160    2.5770 C.3   239  ALA239      0.0334
    170  N          7.4960    6.6240    0.0430 N.am  240  LEU240     -0.1977
    171  CA         8.7730    6.0650   -0.4260 C.3   240  LEU240      0.1596
    172  C          9.7390    7.1190   -0.9810 C.2   240  LEU240      0.2287
    173  O         10.9480    7.0420   -0.7370 O.2   240  LEU240     -0.2864
    174  CB         8.5640    4.9150   -1.4200 C.3   240  LEU240      0.0297
    175  CG         8.0430    3.6100   -0.7820 C.3   240  LEU240      0.0022
    176  CD1        7.6500    2.6040   -1.8540 C.3   240  LEU240      0.0001
    177  CD2        9.0700    3.0070    0.2050 C.3   240  LEU240      0.0001
    178  N         10.4020   10.0290   -0.1130 N.3   242  ASN242     -0.1225
    179  CA        11.0880   10.8570    0.8970 C.3   242  ASN242      0.1785
    180  C         12.6260   10.7370    0.8100 C.2   242  ASN242      0.2597
    181  O         13.3530   11.7160    1.0100 O.2   242  ASN242     -0.2718
    182  CB        10.6080   10.4900    2.3120 C.3   242  ASN242      0.1169
    183  CG        11.4630    9.4270    2.9600 C.2   242  ASN242      0.2627
    184  OD1       12.5080    9.7180    3.5470 O.2   242  ASN242     -0.2716
    185  ND2       11.0450    8.1890    2.8350 N.am  242  ASN242     -0.0877
    186  N         13.1160    9.5340    0.4880 N.am  243  TYR243     -0.1976
    187  CA        14.5490    9.2680    0.5170 C.3   243  TYR243      0.1639
    188  C         15.3170   10.0440   -0.5680 C.2   243  TYR243      0.2290
    189  O         16.5350   10.2570   -0.4710 O.2   243  TYR243     -0.2864
    190  CB        14.7920    7.7640    0.3570 C.3   243  TYR243      0.0560
    191  CG        14.1430    6.8720    1.4160 C.ar  243  TYR243     -0.0198
    192  CD1       14.3400    7.1030    2.7930 C.ar  243  TYR243     -0.0009
    193  CD2       13.3710    5.7660    1.0330 C.ar  243  TYR243     -0.0009
    194  CE1       13.7740    6.2350    3.7510 C.ar  243  TYR243      0.0417
    195  CE2       12.7920    4.9080    1.9820 C.ar  243  TYR243      0.0417
    196  CZ        12.9970    5.1460    3.3320 C.ar  243  TYR243      0.1957
    197  OH        12.4470    4.2930    4.2680 O.3   243  TYR243     -0.2866
    198  N          8.1000   -5.4440    8.9420 N.3   271  GLU271     -0.1231
    199  CA         6.7650   -5.3110    8.3320 C.3   271  GLU271      0.1699
    200  C          6.7150   -4.4150    7.0780 C.2   271  GLU271      0.2592
    201  O          5.7170   -4.4200    6.3510 O.2   271  GLU271     -0.2718
    202  CB         5.7000   -4.8920    9.3570 C.3   271  GLU271      0.0402
    203  CG         5.7550   -3.4300    9.7620 C.3   271  GLU271      0.1161
    204  CD         7.0360   -3.0670   10.4840 C.2   271  GLU271      0.3649
    205  OE1        7.4380   -3.8050   11.4250 O.co2 271  GLU271     -0.2457
    206  OE2        7.6350   -2.0440   10.0970 O.co2 271  GLU271     -0.2457
    207  N          7.7820   -3.6520    6.8300 N.am  272  ILE272     -0.1980
    208  CA         7.8340   -2.7780    5.6520 C.3   272  ILE272      0.1595
    209  C          8.9710   -3.1550    4.6890 C.2   272  ILE272      0.2287
    210  O          9.2290   -2.4380    3.7220 O.2   272  ILE272     -0.2864
    211  CB         7.8790   -1.2680    6.0150 C.3   272  ILE272      0.0276
    212  CG1        9.1250   -0.9170    6.8460 C.3   272  ILE272      0.0022
    213  CG2        6.5760   -0.8270    6.7150 C.3   272  ILE272      0.0022
    214  CD1        9.1990    0.5960    7.2250 C.3   272  ILE272      0.0001
    215  N          7.7420   -3.4930    1.0260 N.3   275  PHE275     -0.1227
    216  CA         7.5430   -2.2000    0.3560 C.3   275  PHE275      0.1736
    217  C          8.8690   -1.6270   -0.1190 C.2   275  PHE275      0.2595
    218  O          8.9300   -0.9580   -1.1610 O.2   275  PHE275     -0.2718
    219  CB         6.8360   -1.1670    1.2550 C.3   275  PHE275      0.0547
    220  CG         5.5520   -1.6540    1.8740 C.ar  275  PHE275     -0.0202
    221  CD1        4.7230   -2.5500    1.1990 C.ar  275  PHE275     -0.0042
    222  CD2        5.1460   -1.1650    3.1240 C.ar  275  PHE275     -0.0042
    223  CE1        3.5370   -2.9990    1.7750 C.ar  275  PHE275     -0.0003
    224  CE2        3.9520   -1.6120    3.7090 C.ar  275  PHE275     -0.0003
    225  CZ         3.1500   -2.5190    3.0310 C.ar  275  PHE275     -0.0000
    226  N          9.9270   -1.8740    0.6500 N.am  276  HIS276     -0.1975
    227  CA        11.2460   -1.3410    0.3170 C.3   276  HIS276      0.1656
    228  C         12.0520   -2.2070   -0.6440 C.2   276  HIS276      0.2291
    229  O         13.0130   -1.7200   -1.2450 O.2   276  HIS276     -0.2864
    230  CB        12.0600   -1.0770    1.5830 C.3   276  HIS276      0.0771
    231  CG        11.5950    0.1150    2.3530 C.ar  276  HIS276      0.0820
    232  ND1       10.5160    0.0760    3.2100 N.ar  276  HIS276     -0.2267
    233  CD2       12.0660    1.3850    2.3940 C.ar  276  HIS276      0.1154
    234  CE1       10.3490    1.2730    3.7550 C.ar  276  HIS276      0.1986
    235  NE2       11.2750    2.0830    3.2740 N.ar  276  HIS276     -0.2212
@<TRIPOS>BOND
     1   123   121    1
     2   110   111    1
     3   122   121    1
     4   121   118    1
     5   113   112    2
     6   118   117    1
     7   118   119    1
     8   112   111    1
     9   112   117   am
    10   111   114    1
    11   147   148    1
    12   147   144    1
    13   149   148   ar
    14   149   151   ar
    15   124   119   am
    16   124   125    1
    17   119   120    2
    18   114   115    1
    19   114   116    1
    20   145   146    2
    21   145   144    1
    22   148   150   ar
    23   157   158    1
    24   151   152   ar
    25   128   125    1
    26   128   129    1
    27   176   175    1
    28   144   143    1
    29   125   126    1
    30   127   126    2
    31   174   175    1
    32   174   171    1
    33   158   161    1
    34   158   159    1
    35   229   228    2
    36   150   152   ar
    37   150   153   ar
    38   218   217    2
    39   143   138   am
    40   152   154   ar
    41   126   136   am
    42   172   173    2
    43   172   171    1
    44   131   129   ar
    45   131   133   ar
    46   129   130   ar
    47   175   177    1
    48   228   227    1
    49   161   162    1
    50   188   189    2
    51   188   187    1
    52   171   170    1
    53   102   101    2
    54   153   155   ar
    55   159   160    2
    56   159   165   am
    57   138   139    2
    58   138   137    1
    59   217   216    1
    60   217   226   am
    61   178   179    1
    62   154   156   ar
    63   136   137    1
    64   170   167   am
    65   133   134   ar
    66   130   132   ar
    67   162   163   ar
    68   162   164   ar
    69   227   226    1
    70   227   230    1
    71   216   215    1
    72   216   219    1
    73   190   187    1
    74   190   191    1
    75    99   100    1
    76   186   187    1
    77   186   180   am
    78   165   166    1
    79   137   140    1
    80   155   156   ar
    81   101   100    1
    82   180   179    1
    83   180   181    2
    84   179   182    1
    85   107   109   ar
    86   107   105   ar
    87   109   108   ar
    88   193   191   ar
    89   193   195   ar
    90   167   168    2
    91   167   166    1
    92   221   223   ar
    93   221   220   ar
    94   219   220    1
    95   134   132   ar
    96   134   135    1
    97   100   103    1
    98   191   192   ar
    99   105   104   ar
   100   108   106   ar
   101   141   140    1
   102   166   169    1
   103   230   231    1
   104   223   225   ar
   105   220   222   ar
   106   140   142    1
   107   104   106   ar
   108   104   103    1
   109   195   196   ar
   110    56    54   ar
   111    56    57   ar
   112    54    53   ar
   113   182   183    1
   114   231   233   ar
   115   231   232   ar
   116   233   235   ar
   117    93    95   ar
   118    93    92   ar
   119    57    55   ar
   120   192   194   ar
   121   185   183   am
   122    91    92    1
   123    91    88    1
   124    95    97   ar
   125   183   184    2
   126    53    55   ar
   127    53    52    1
   128   225   224   ar
   129    92    94   ar
   130   222   224   ar
   131   232   234   ar
   132   235   234   ar
   133   196   194   ar
   134   196   197    1
   135    52    49    1
   136    97    98    1
   137    97    96   ar
   138   210   209    2
   139    89    90    2
   140    89    88    1
   141    94    96   ar
   142    88    87    1
   143    70    68   am
   144   209   208    1
   145    15    13    1
   146    58    59    1
   147    58    50   am
   148    49    50    1
   149    49    48    1
   150    59    60    1
   151    46    45   ar
   152    87    82   am
   153    50    51    2
   154   208   211    1
   155   208   207    1
   156    13    12    1
   157    62    60   am
   158    62    63    1
   159    68    69    2
   160    68    67    1
   161    60    61    2
   162    45    47   ar
   163    45    44    1
   164   211   213    1
   165   211   212    1
   166    66    67    1
   167    66    63    1
   168   201   200    2
   169    14    12    1
   170    82    83    2
   171    82    81    1
   172    63    64    1
   173    44    41    1
   174   207   200   am
   175   212   214    1
   176    12     9    1
   177    41    42    1
   178    41    40    1
   179   200   199    1
   180    86    84    1
   181    42    43    2
   182    81    84    1
   183    81    80    1
   184     8     9    1
   185     8     3   am
   186     2     3    1
   187     2     1    1
   188     2     5    1
   189    64    65    2
   190     9    10    1
   191    39    38    1
   192    84    85    1
   193    36    38   ar
   194    36    34   ar
   195     3     4    2
   196    11    10    2
   197   199   198    1
   198   199   202    1
   199     1     7    1
   200    80    73   am
   201     5     6    1
   202    74    73    2
   203    38    37   ar
   204    10    16   am
   205    34    33   ar
   206     6     7    1
   207    73    72    1
   208   202   203    1
   209   203   204    1
   210    37    35   ar
   211    33    35   ar
   212    33    32    1
   213   206   204   ar
   214    16    17    1
   215    72    75    1
   216    72    71    1
   217   204   205   ar
   218    19    18    2
   219    32    29    1
   220    18    17    1
   221    18    28   am
   222    75    76    1
   223    17    20    1
   224    29    28    1
   225    29    30    1
   226    76    77    1
   227    22    24   ar
   228    22    21   ar
   229    24    26   ar
   230    30    31    2
   231    20    21    1
   232    21    23   ar
   233    78    77   ar
   234    26    27    1
   235    26    25   ar
   236    77    79   ar
   237    23    25   ar
