@<TRIPOS>MOLECULE
tmp/4qrfB00.pdb
 93 84 0 0 0
SMALL
GASTEIGER

@<TRIPOS>ATOM
      1  N        -19.2440   11.1090  -32.8160 N.3     4  MET4       -0.1245
      2  CA       -20.5090   10.3860  -32.9220 C.3     4  MET4        0.1570
      3  C        -20.9580    9.9300  -31.5330 C.2     4  MET4        0.2261
      4  O        -20.1270    9.6710  -30.6650 O.2     4  MET4       -0.2867
      5  CB       -20.3660    9.1940  -33.8670 C.3     4  MET4        0.0387
      6  CG       -21.6770    8.4760  -34.1670 C.3     4  MET4        0.0595
      7  SD       -21.9660    6.9970  -33.1620 S.3     4  MET4       -0.1393
      8  CE       -20.7610    5.8820  -33.8880 C.3     4  MET4        0.0692
      9  N        -23.5250    7.2100  -29.3540 N.3     6  LYS6       -0.1245
     10  CA       -24.3600    6.0260  -29.4490 C.3     6  LYS6        0.1561
     11  C        -25.0490    5.8270  -28.1160 C.2     6  LYS6        0.2260
     12  O        -24.3960    5.8580  -27.0790 O.2     6  LYS6       -0.2867
     13  CB       -23.4980    4.8020  -29.7550 C.3     6  LYS6        0.0271
     14  CG       -24.2890    3.5300  -29.8820 C.3     6  LYS6        0.0035
     15  CD       -23.4160    2.4420  -30.4870 C.3     6  LYS6        0.0206
     16  CE       -24.2350    1.5520  -31.3890 C.3     6  LYS6        0.1093
     17  NZ       -25.4860    1.1520  -30.7000 N.3     6  LYS6       -0.1314
     18  N        -27.7760    3.4180  -25.7780 N.3     8  LEU8       -0.1245
     19  CA       -28.4100    2.1130  -25.6360 C.3     8  LEU8        0.1561
     20  C        -29.3340    2.1060  -24.4220 C.2     8  LEU8        0.2260
     21  O        -29.1000    2.8280  -23.4540 O.2     8  LEU8       -0.2867
     22  CB       -27.3570    1.0050  -25.4840 C.3     8  LEU8        0.0270
     23  CG       -26.3780    0.8360  -26.6470 C.3     8  LEU8        0.0019
     24  CD1      -25.5040   -0.3710  -26.3870 C.3     8  LEU8        0.0001
     25  CD2      -27.1480    0.6600  -27.9300 C.3     8  LEU8        0.0001
     26  N        -27.9520    5.8950  -32.8780 N.3    45  GLU45      -0.1245
     27  CA       -26.7310    6.6350  -33.1920 C.3    45  GLU45       0.1567
     28  C        -27.0300    8.0440  -33.6630 C.2    45  GLU45       0.2260
     29  O        -28.0580    8.2940  -34.2900 O.2    45  GLU45      -0.2867
     30  CB       -25.9050    5.9020  -34.2530 C.3    45  GLU45       0.0388
     31  CG       -25.3390    4.5760  -33.7450 C.3    45  GLU45       0.1160
     32  CD       -24.5550    3.8090  -34.7960 C.2    45  GLU45       0.3649
     33  OE1      -24.8620    3.9460  -35.9970 O.co2  45  GLU45      -0.2457
     34  OE2      -23.6310    3.0640  -34.4120 O.co2  45  GLU45      -0.2457
     35  N        -16.0610    8.4670  -30.4170 N.3    91  THR91      -0.1218
     36  CA       -17.3740    7.8900  -30.2440 C.3    91  THR91       0.1862
     37  C        -17.7000    7.8820  -28.7550 C.2    91  THR91       0.2287
     38  O        -16.9610    7.3070  -27.9610 O.2    91  THR91      -0.2866
     39  CB       -17.4480    6.4570  -30.7540 C.3    91  THR91       0.1770
     40  OG1      -17.2470    6.4380  -32.1730 O.3    91  THR91      -0.2211
     41  CG2      -18.8010    5.8890  -30.4380 C.3    91  THR91       0.0375
     42  N        -20.3030    6.5410  -26.0540 N.3    93  ALA93      -0.1231
     43  CA       -21.4290    5.6340  -25.9000 C.3    93  ALA93       0.1694
     44  C        -22.0280    5.7930  -24.5150 C.2    93  ALA93       0.2592
     45  O        -21.3100    5.9350  -23.5420 O.2    93  ALA93      -0.2718
     46  CB       -21.0070    4.1970  -26.1300 C.3    93  ALA93       0.0304
     47  N        -23.3480    5.7630  -24.4450 N.am   94  ALA94      -0.1966
     48  CA       -24.0420    5.8820  -23.1790 C.3    94  ALA94       0.1728
     49  C        -25.0210    4.7220  -23.0610 C.2    94  ALA94       0.2616
     50  O        -25.7440    4.4170  -24.0010 O.2    94  ALA94      -0.2715
     51  CB       -24.7690    7.1900  -23.1170 C.3    94  ALA94       0.0334
     52  N        -25.0300    4.0730  -21.9050 N.am   95  LEU95      -0.1977
     53  CA       -25.9640    2.9920  -21.6480 C.3    95  LEU95       0.1596
     54  C        -26.8930    3.4620  -20.5520 C.2    95  LEU95       0.2287
     55  O        -26.4360    3.8300  -19.4730 O.2    95  LEU95      -0.2864
     56  CB       -25.2120    1.7420  -21.1900 C.3    95  LEU95       0.0297
     57  CG       -26.0840    0.5620  -20.7660 C.3    95  LEU95       0.0022
     58  CD1      -26.7980   -0.0610  -21.9600 C.3    95  LEU95       0.0001
     59  CD2      -25.2500   -0.4830  -20.0280 C.3    95  LEU95       0.0001
     60  N        -24.0530    4.7020  -17.7170 N.3   102  SER102     -0.1202
     61  CA       -22.6290    4.5390  -17.9350 C.3   102  SER102      0.2020
     62  C        -22.2840    5.2270  -19.2450 C.2   102  SER102      0.2619
     63  O        -23.1140    5.3070  -20.1470 O.2   102  SER102     -0.2717
     64  CB       -22.2640    3.0560  -18.0070 C.3   102  SER102      0.2103
     65  OG       -22.8550    2.3280  -16.9340 O.3   102  SER102     -0.2182
     66  N        -21.0690    5.7410  -19.3450 N.am  103  THR103     -0.1938
     67  CA       -20.6300    6.3520  -20.5780 C.3   103  THR103      0.2028
     68  C        -19.1770    6.0060  -20.7990 C.2   103  THR103      0.2642
     69  O        -18.4020    5.9190  -19.8550 O.2   103  THR103     -0.2714
     70  CB       -20.8640    7.8740  -20.5920 C.3   103  THR103      0.1808
     71  OG1      -20.4550    8.3820  -21.8570 O.3   103  THR103     -0.2208
     72  CG2      -20.0760    8.5870  -19.4700 C.3   103  THR103      0.0379
     73  N        -18.8090    5.7620  -22.0450 N.am  104  THR104     -0.1950
     74  CA       -17.4380    5.4130  -22.3270 C.3   104  THR104      0.1897
     75  C        -17.0660    6.1100  -23.6120 C.2   104  THR104      0.2313
     76  O        -17.9360    6.4620  -24.4090 O.2   104  THR104     -0.2863
     77  CB       -17.2420    3.8800  -22.4600 C.3   104  THR104      0.1794
     78  OG1      -15.8390    3.5690  -22.4450 O.3   104  THR104     -0.2208
     79  CG2      -17.8390    3.3820  -23.7530 C.3   104  THR104      0.0378
     80  N        -14.5950    5.9340  -27.0560 N.3   106  VAL106     -0.1245
     81  CA       -13.7560    5.1090  -27.9010 C.3   106  VAL106      0.1561
     82  C        -13.0180    6.1020  -28.7880 C.2   106  VAL106      0.2260
     83  O        -13.6180    6.7540  -29.6420 O.2   106  VAL106     -0.2867
     84  CB       -14.6040    4.1420  -28.7370 C.3   106  VAL106      0.0252
     85  CG1      -13.7220    3.2350  -29.5880 C.3   106  VAL106      0.0019
     86  CG2      -15.4840    3.3030  -27.8300 C.3   106  VAL106      0.0019
     87  N        -10.1740    6.7250  -31.4630 N.3   108  THR108     -0.1218
     88  CA        -9.3970    6.0070  -32.4690 C.3   108  THR108      0.1862
     89  C         -8.6380    6.9340  -33.4210 C.2   108  THR108      0.2287
     90  O         -8.8040    8.1550  -33.3920 O.2   108  THR108     -0.2866
     91  CB       -10.2850    5.0600  -33.2950 C.3   108  THR108      0.1770
     92  OG1      -11.3570    5.8030  -33.8860 O.3   108  THR108     -0.2211
     93  CG2      -10.8590    3.9370  -32.4170 C.3   108  THR108      0.0375
@<TRIPOS>BOND
     1    33    32   ar
     2    32    34   ar
     3    32    31    1
     4    29    28    2
     5    30    31    1
     6    30    27    1
     7     6     5    1
     8     6     7    1
     9     8     7    1
    10    92    91    1
    11     5     2    1
    12    28    27    1
    13    89    90    2
    14    89    88    1
    15    91    88    1
    16    91    93    1
    17    27    26    1
    18     2     1    1
    19     2     3    1
    20    88    87    1
    21    40    39    1
    22     3     4    2
    23    16    17    1
    24    16    15    1
    25    39    41    1
    26    39    36    1
    27    15    14    1
    28    35    36    1
    29    36    37    1
    30    14    13    1
    31    13    10    1
    32    83    82    2
    33    85    84    1
    34    10     9    1
    35    10    11    1
    36    82    81    1
    37    37    38    2
    38    84    81    1
    39    84    86    1
    40    11    12    2
    41    25    23    1
    42    81    80    1
    43    23    24    1
    44    23    22    1
    45    46    43    1
    46    42    43    1
    47    43    44    1
    48    18    19    1
    49    19    22    1
    50    19    20    1
    51    44    47   am
    52    44    45    2
    53    47    48    1
    54    20    21    2
    55    76    75    2
    56    50    49    2
    57    79    77    1
    58    75    74    1
    59    48    51    1
    60    48    49    1
    61    49    52   am
    62    77    78    1
    63    77    74    1
    64    74    73    1
    65    73    68   am
    66    58    57    1
    67    52    53    1
    68    71    70    1
    69    53    56    1
    70    53    54    1
    71    56    57    1
    72    68    67    1
    73    68    69    2
    74    57    59    1
    75    70    67    1
    76    70    72    1
    77    67    66    1
    78    54    55    2
    79    63    62    2
    80    66    62   am
    81    62    61    1
    82    64    61    1
    83    64    65    1
    84    61    60    1
