@<TRIPOS>MOLECULE
tmp/4qrhB00.pdb
 172 164 0 0 0
SMALL
GASTEIGER

@<TRIPOS>ATOM
      1  N        101.4180  -21.9230  106.6930 N.3    14  SER14      -0.1202
      2  CA       100.5330  -22.9960  107.1300 C.3    14  SER14       0.2020
      3  C         99.5590  -22.5370  108.2090 C.2    14  SER14       0.2619
      4  O         99.9640  -21.8960  109.1880 O.2    14  SER14      -0.2717
      5  CB       101.3600  -24.1640  107.6770 C.3    14  SER14       0.2103
      6  OG       102.2540  -24.6680  106.6960 O.3    14  SER14      -0.2182
      7  N         98.2790  -22.8350  108.0180 N.am   15  GLY15      -0.1942
      8  CA        97.2650  -22.5990  109.0430 C.3    15  GLY15       0.2014
      9  C         96.8020  -21.1660  109.2190 C.2    15  GLY15       0.2639
     10  O         96.0830  -20.8690  110.1700 O.2    15  GLY15      -0.2714
     11  N         97.2120  -20.2760  108.3150 N.am   16  VAL16      -0.1963
     12  CA        96.8240  -18.8650  108.3860 C.3    16  VAL16       0.1727
     13  C         95.3570  -18.6630  107.9750 C.2    16  VAL16       0.2617
     14  O         94.7250  -17.6900  108.3850 O.2    16  VAL16      -0.2715
     15  CB        97.7600  -17.9780  107.5280 C.3    16  VAL16       0.0290
     16  CG1       97.5170  -18.1850  106.0370 C.3    16  VAL16       0.0023
     17  CG2       97.5980  -16.5090  107.8950 C.3    16  VAL16       0.0023
     18  N         94.8210  -19.5840  107.1700 N.am   17  GLY17      -0.1940
     19  CA        93.4130  -19.5560  106.7590 C.3    17  GLY17       0.2014
     20  C         93.1490  -19.1750  105.3060 C.2    17  GLY17       0.2639
     21  O         92.1020  -18.5960  104.9810 O.2    17  GLY17      -0.2714
     22  N         94.0930  -19.5110  104.4270 N.am   18  LYS18      -0.1963
     23  CA        93.9390  -19.2850  102.9800 C.3    18  LYS18       0.1728
     24  C         92.6680  -19.9320  102.4370 C.2    18  LYS18       0.2617
     25  O         91.9430  -19.3330  101.6390 O.2    18  LYS18      -0.2715
     26  CB        95.1390  -19.8610  102.2180 C.3    18  LYS18       0.0311
     27  CG        96.4850  -19.2490  102.5520 C.3    18  LYS18       0.0038
     28  CD        97.6420  -19.9480  101.8260 C.3    18  LYS18       0.0206
     29  CE        97.9830  -21.3330  102.3330 C.3    18  LYS18       0.1093
     30  NZ        98.4340  -21.2950  103.7550 N.3    18  LYS18      -0.1314
     31  N         92.4010  -21.1680  102.8600 N.am   19  GLY19      -0.1940
     32  CA        91.2180  -21.8900  102.4060 C.3    19  GLY19       0.2014
     33  C         89.9230  -21.1860  102.7780 C.2    19  GLY19       0.2639
     34  O         89.0370  -21.0110  101.9450 O.2    19  GLY19      -0.2714
     35  N         89.8350  -20.7670  104.0360 N.am   20  THR20      -0.1950
     36  CA        88.6620  -20.0620  104.5440 C.3    20  THR20       0.1897
     37  C         88.4290  -18.7190  103.8400 C.2    20  THR20       0.2313
     38  O         87.2910  -18.3910  103.5140 O.2    20  THR20      -0.2863
     39  CB        88.7610  -19.8490  106.0630 C.3    20  THR20       0.1794
     40  OG1       88.8980  -21.1230  106.7090 O.3    20  THR20      -0.2208
     41  CG2       87.5040  -19.1670  106.6020 C.3    20  THR20       0.0378
     42  N         88.0070  -19.6000   89.8070 N.3    35  TYR35      -0.1241
     43  CA        88.8690  -20.3530   90.7060 C.3    35  TYR35       0.1605
     44  C         89.5250  -21.5380   90.0090 C.2    35  TYR35       0.2264
     45  O         88.8570  -22.3540   89.3640 O.2    35  TYR35      -0.2867
     46  CB        88.0690  -20.8700   91.8990 C.3    35  TYR35       0.0534
     47  CG        88.8820  -21.6410   92.9010 C.ar   35  TYR35      -0.0201
     48  CD1       90.0450  -21.1010   93.4510 C.ar   35  TYR35      -0.0009
     49  CD2       88.4830  -22.9090   93.3260 C.ar   35  TYR35      -0.0009
     50  CE1       90.7870  -21.7910   94.3870 C.ar   35  TYR35       0.0417
     51  CE2       89.2120  -23.5960   94.2720 C.ar   35  TYR35       0.0417
     52  CZ        90.3670  -23.0410   94.7960 C.ar   35  TYR35       0.1957
     53  OH        91.1050  -23.7290   95.7440 O.3    35  TYR35      -0.2866
     54  N         92.4750  -27.2690   91.9550 N.3    38  SER38      -0.1217
     55  CA        93.7500  -27.9850   91.9870 C.3    38  SER38       0.1889
     56  C         93.5220  -29.4810   91.9120 C.2    38  SER38       0.2288
     57  O         92.4240  -29.9630   92.1920 O.2    38  SER38      -0.2866
     58  CB        94.4910  -27.6920   93.2780 C.3    38  SER38       0.2089
     59  OG        94.8280  -26.3160   93.4010 O.3    38  SER38      -0.2183
     60  N         95.7380  -36.3720   98.0800 N.3    42  ARG42      -0.1245
     61  CA        95.1990  -36.6880   99.4080 C.3    42  ARG42       0.1563
     62  C         93.7920  -37.2780   99.2740 C.2    42  ARG42       0.2260
     63  O         93.1180  -37.0940   98.2550 O.2    42  ARG42      -0.2867
     64  CB        95.2200  -35.4700  100.3360 C.3    42  ARG42       0.0307
     65  CG        94.1330  -34.4280  100.1520 C.3    42  ARG42       0.0489
     66  CD        93.7760  -33.8560  101.5210 C.3    42  ARG42       0.2205
     67  NE        92.9800  -32.6390  101.4700 N.pl3  42  ARG42      -0.0865
     68  CZ        91.6810  -32.5730  101.1910 C.cat  42  ARG42       0.5346
     69  NH1       90.9720  -33.6630  100.8920 N.pl3  42  ARG42       0.1354
     70  NH2       91.0910  -31.3920  101.1950 N.pl3  42  ARG42       0.1354
     71  N         87.6330  -35.9760  101.6570 N.3    45  ARG45      -0.1245
     72  CA        87.0890  -35.9040  103.0120 C.3    45  ARG45       0.1563
     73  C         85.5780  -35.7650  102.9490 C.2    45  ARG45       0.2260
     74  O         85.0270  -35.3950  101.9100 O.2    45  ARG45      -0.2867
     75  CB        87.6900  -34.7110  103.7590 C.3    45  ARG45       0.0307
     76  CG        89.1490  -34.9010  104.1430 C.3    45  ARG45       0.0489
     77  CD        89.8490  -33.5780  104.4210 C.3    45  ARG45       0.2205
     78  NE        91.2830  -33.7630  104.6400 N.pl3  45  ARG45      -0.0865
     79  CZ        92.1610  -32.7810  104.8370 C.cat  45  ARG45       0.5346
     80  NH1       91.7730  -31.5070  104.8420 N.pl3  45  ARG45       0.1354
     81  NH2       93.4420  -33.0770  105.0270 N.pl3  45  ARG45       0.1354
     82  N         88.5830  -30.3290   94.6760 N.3    54  TYR54      -0.1241
     83  CA        89.8300  -30.7000   94.0080 C.3    54  TYR54       0.1605
     84  C         89.4840  -31.6660   92.8860 C.2    54  TYR54       0.2264
     85  O         88.3670  -32.1710   92.8250 O.2    54  TYR54      -0.2867
     86  CB        90.7680  -31.4280   94.9760 C.3    54  TYR54       0.0534
     87  CG        91.3830  -30.5590   96.0400 C.ar   54  TYR54      -0.0201
     88  CD1       92.5560  -29.8570   95.7950 C.ar   54  TYR54      -0.0009
     89  CD2       90.8040  -30.4430   97.3060 C.ar   54  TYR54      -0.0009
     90  CE1       93.1310  -29.0520   96.7690 C.ar   54  TYR54       0.0417
     91  CE2       91.3650  -29.6310   98.2840 C.ar   54  TYR54       0.0417
     92  CZ        92.5410  -28.9480   98.0170 C.ar   54  TYR54       0.1957
     93  OH        93.1170  -28.1390   98.9650 O.3    54  TYR54      -0.2866
     94  N        102.5430  -25.3610   88.7830 N.3    73  GLU73      -0.1245
     95  CA       103.2550  -25.5980   90.0280 C.3    73  GLU73       0.1567
     96  C        102.6980  -26.8490   90.6890 C.2    73  GLU73       0.2260
     97  O        101.5230  -27.1800   90.5260 O.2    73  GLU73      -0.2867
     98  CB       103.1430  -24.3950   90.9850 C.3    73  GLU73       0.0388
     99  CG       101.7200  -24.0740   91.4590 C.3    73  GLU73       0.1160
    100  CD       101.2020  -25.0440   92.5060 C.2    73  GLU73       0.3649
    101  OE1       99.9740  -25.2900   92.5200 O.co2  73  GLU73      -0.2457
    102  OE2      102.0160  -25.5660   93.3090 O.co2  73  GLU73      -0.2457
    103  N        103.4340  -29.1190   94.6650 N.3    75  ALA75      -0.1245
    104  CA       104.1770  -29.2390   95.9000 C.3    75  ALA75       0.1562
    105  C        103.7130  -30.4550   96.6610 C.2    75  ALA75       0.2260
    106  O        102.6720  -31.0400   96.3510 O.2    75  ALA75      -0.2867
    107  CB       104.0050  -27.9870   96.7510 C.3    75  ALA75       0.0290
    108  N        102.6740  -31.3900  100.4700 N.3    77  TYR77      -0.1241
    109  CA       102.2650  -30.8210  101.7460 C.3    77  TYR77       0.1605
    110  C        101.7560  -31.9720  102.6090 C.2    77  TYR77       0.2264
    111  O        100.8480  -32.6860  102.2100 O.2    77  TYR77      -0.2867
    112  CB       101.1790  -29.7640  101.5280 C.3    77  TYR77       0.0534
    113  CG       100.5710  -29.2250  102.8050 C.ar   77  TYR77      -0.0201
    114  CD1      101.1960  -28.2090  103.5180 C.ar   77  TYR77      -0.0009
    115  CD2       99.3710  -29.7310  103.2940 C.ar   77  TYR77      -0.0009
    116  CE1      100.6470  -27.7200  104.6890 C.ar   77  TYR77       0.0417
    117  CE2       98.8090  -29.2460  104.4660 C.ar   77  TYR77       0.0417
    118  CZ        99.4500  -28.2420  105.1560 C.ar   77  TYR77       0.1957
    119  OH        98.8920  -27.7630  106.3150 O.3    77  TYR77      -0.2866
    120  N         99.8860  -31.6250   95.7170 N.3    82  TYR82      -0.1227
    121  CA        98.9100  -30.6260   95.3230 C.3    82  TYR82       0.1740
    122  C         99.5060  -29.8800   94.1310 C.2    82  TYR82       0.2635
    123  O        100.6950  -29.6060   94.1160 O.2    82  TYR82      -0.2714
    124  CB        98.6620  -29.6240   96.4510 C.3    82  TYR82       0.0548
    125  CG        98.0960  -30.2170   97.7210 C.ar   82  TYR82      -0.0200
    126  CD1       98.9200  -30.8750   98.6220 C.ar   82  TYR82      -0.0009
    127  CD2       96.7470  -30.1180   98.0110 C.ar   82  TYR82      -0.0009
    128  CE1       98.4080  -31.4190   99.7860 C.ar   82  TYR82       0.0417
    129  CE2       96.2280  -30.6510   99.1870 C.ar   82  TYR82       0.0417
    130  CZ        97.0670  -31.2930  100.0610 C.ar   82  TYR82       0.1957
    131  OH        96.5560  -31.8450  101.2250 O.3    82  TYR82      -0.2866
    132  N         98.6840  -29.5490   93.1430 N.am   83  GLY83      -0.1718
    133  CA        99.1760  -28.8170   91.9800 C.2    83  GLY83       0.1480
    134  C         98.1200  -28.1300   91.1470 C.2    83  GLY83       0.2821
    135  O         96.9420  -28.4990   91.1610 O.2    83  GLY83      -0.2669
    136  N         98.5690  -27.1110   90.4160 N.am   84  THR84      -0.1916
    137  CA        97.7230  -26.3070   89.5540 C.3    84  THR84       0.1900
    138  C         97.8250  -26.7490   88.0810 C.2    84  THR84       0.2313
    139  O         98.8550  -26.5160   87.4340 O.2    84  THR84      -0.2863
    140  CB        98.1500  -24.8170   89.6680 C.3    84  THR84       0.1794
    141  OG1       97.9840  -24.3660   91.0190 O.3    84  THR84      -0.2208
    142  CG2       97.3660  -23.9200   88.7400 C.3    84  THR84       0.0378
    143  N         94.7310  -20.5430   95.1250 N.3   102  GLU102     -0.1231
    144  CA        94.9590  -20.6170   96.5640 C.3   102  GLU102      0.1699
    145  C         95.8740  -21.7990   96.8050 C.2   102  GLU102      0.2592
    146  O         95.4650  -22.9460   96.6210 O.2   102  GLU102     -0.2718
    147  CB        93.6380  -20.7660   97.3370 C.3   102  GLU102      0.0402
    148  CG        93.8260  -20.9750   98.8360 C.3   102  GLU102      0.1161
    149  CD        93.3940  -22.3450   99.3270 C.2   102  GLU102      0.3649
    150  OE1       92.3470  -22.8420   98.8640 O.co2 102  GLU102     -0.2457
    151  OE2       94.0960  -22.9130  100.2000 O.co2 102  GLU102     -0.2457
    152  N         97.1250  -21.5110   97.1500 N.am  103  ILE103     -0.1966
    153  CA        98.1850  -22.5160   97.1980 C.3   103  ILE103      0.1727
    154  C         99.1610  -22.2360   98.3400 C.2   103  ILE103      0.2616
    155  O         99.1850  -21.1290   98.8910 O.2   103  ILE103     -0.2715
    156  CB        98.9630  -22.5620   95.8620 C.3   103  ILE103      0.0290
    157  CG1       99.6730  -21.2280   95.5880 C.3   103  ILE103      0.0022
    158  CG2       98.0320  -22.9130   94.7120 C.3   103  ILE103      0.0023
    159  CD1      100.4070  -21.1700   94.2560 C.3   103  ILE103      0.0001
    160  N         99.9770  -23.2210   98.7030 N.am  104  GLU104     -0.1977
    161  CA       100.9610  -23.0120   99.7520 C.3   104  GLU104      0.1602
    162  C        102.2490  -22.3810   99.2050 C.2   104  GLU104      0.2287
    163  O        102.3780  -22.1660   97.9920 O.2   104  GLU104     -0.2864
    164  CB       101.1910  -24.2750  100.5950 C.3   104  GLU104      0.0415
    165  CG       101.6790  -25.5200   99.8650 C.3   104  GLU104      0.1163
    166  CD       103.0490  -25.3500   99.2940 C.2   104  GLU104      0.3649
    167  OE1      103.1300  -25.2110   98.0570 O.co2 104  GLU104     -0.2457
    168  OE2      104.0320  -25.3070  100.0780 O.co2 104  GLU104     -0.2457
    169  N        104.6650  -23.8230   96.2740 N.3   107  GLY107     -0.1225
    170  CA       104.0010  -23.6640   94.9930 C.3   107  GLY107      0.1811
    171  C        104.0520  -22.2420   94.4660 C.2   107  GLY107      0.2280
    172  O        104.2910  -22.0260   93.2760 O.2   107  GLY107     -0.2866
@<TRIPOS>BOND
     1   139   138    2
     2   138   137    1
     3   142   140    1
     4    94    95    1
     5    45    44    2
     6   137   140    1
     7   137   136    1
     8   140   141    1
     9    42    43    1
    10    44    43    1
    11    95    96    1
    12    95    98    1
    13   136   134   am
    14    97    96    2
    15    43    46    1
    16    98    99    1
    17   134   135    2
    18   134   133    1
    19    99   100    1
    20    46    47    1
    21    56    55    1
    22    56    57    2
    23    54    55    1
    24   133   132    2
    25    55    58    1
    26   100   101   ar
    27   100   102   ar
    28    85    84    2
    29    84    83    1
    30    47    49   ar
    31    47    48   ar
    32   132   122    1
    33   172   171    2
    34    58    59    1
    35    49    51   ar
    36    48    50   ar
    37    83    82    1
    38    83    86    1
    39   123   122    2
    40   122   121    1
    41   159   157    1
    42    51    52   ar
    43    50    52   ar
    44   171   170    1
    45   103   104    1
    46   158   156    1
    47    52    53    1
    48    86    87    1
    49   170   169    1
    50   143   144    1
    51   121   120    1
    52   121   124    1
    53   157   156    1
    54    88    87   ar
    55    88    90   ar
    56   156   153    1
    57   104   105    1
    58   104   107    1
    59    87    89   ar
    60   106   105    2
    61   124   125    1
    62   144   145    1
    63   144   147    1
    64   146   145    2
    65    90    92   ar
    66   145   152   am
    67   152   153    1
    68   153   154    1
    69    89    91   ar
    70   147   148    1
    71   125   127   ar
    72   125   126   ar
    73   163   162    2
    74   127   129   ar
    75    92    91   ar
    76    92    93    1
    77   167   166   ar
    78    60    61    1
    79    63    62    2
    80   154   160   am
    81   154   155    2
    82   126   128   ar
    83   160   161    1
    84   148   149    1
    85   150   149   ar
    86   129   130   ar
    87   162   161    1
    88    62    61    1
    89   166   165    1
    90   166   168   ar
    91   149   151   ar
    92    61    64    1
    93   161   164    1
    94   128   130   ar
    95   165   164    1
    96   130   131    1
    97    65    64    1
    98    65    66    1
    99   108   109    1
   100    69    68    1
   101    68    70    1
   102    68    67    2
   103    67    66    1
   104   112   109    1
   105   112   113    1
   106    25    24    2
   107    71    72    1
   108   109   110    1
   109    28    29    1
   110    28    27    1
   111    74    73    2
   112    34    33    2
   113   111   110    2
   114    26    27    1
   115    26    23    1
   116    29    30    1
   117    32    33    1
   118    32    31    1
   119    24    31   am
   120    24    23    1
   121    33    35   am
   122   113   115   ar
   123   113   114   ar
   124    73    72    1
   125    23    22    1
   126    72    75    1
   127   115   117   ar
   128    38    37    2
   129   114   116   ar
   130    75    76    1
   131    37    36    1
   132    35    36    1
   133    76    77    1
   134    77    78    1
   135    22    20   am
   136   117   118   ar
   137    36    39    1
   138    78    79    2
   139   116   118   ar
   140    79    80    1
   141    79    81    1
   142    21    20    2
   143   118   119    1
   144    20    19    1
   145    16    15    1
   146    39    41    1
   147    39    40    1
   148     1     2    1
   149     6     5    1
   150    19    18    1
   151     2     5    1
   152     2     3    1
   153    18    13   am
   154    15    17    1
   155    15    12    1
   156    13    14    2
   157    13    12    1
   158     7     3   am
   159     7     8    1
   160     3     4    2
   161    11    12    1
   162    11     9   am
   163     8     9    1
   164     9    10    2
