@<TRIPOS>MOLECULE
tmp/4qrjA02.pdb
 84 81 0 0 0
SMALL
GASTEIGER

@<TRIPOS>ATOM
      1  N          4.1100    7.9470   20.6630 N.3    50  ASP50      -0.1239
      2  CA         3.1310    6.8580   20.5650 C.3    50  ASP50       0.1674
      3  C          3.7910    5.4470   20.6380 C.2    50  ASP50       0.2266
      4  O          3.0920    4.4430   20.5080 O.2    50  ASP50      -0.2867
      5  CB         2.2980    6.9910   19.2670 C.3    50  ASP50       0.1410
      6  CG         3.0540    6.8280   17.9470 C.2    50  ASP50       0.3668
      7  OD1        4.2790    6.5540   17.9840 O.co2  50  ASP50      -0.2456
      8  OD2        2.4320    7.0100   16.8840 O.co2  50  ASP50      -0.2456
      9  N          7.5040    4.2260   16.6790 N.3    53  PHE53      -0.1241
     10  CA         8.7380    4.4500   15.9240 C.3    53  PHE53       0.1605
     11  C          9.9140    4.6350   16.8290 C.2    53  PHE53       0.2264
     12  O          9.7580    5.0540   17.9760 O.2    53  PHE53      -0.2867
     13  CB         8.6070    5.6460   14.9700 C.3    53  PHE53       0.0534
     14  CG         7.5470    5.4270   13.9170 C.ar   53  PHE53      -0.0203
     15  CD1        7.8260    4.6990   12.7660 C.ar   53  PHE53      -0.0042
     16  CD2        6.2450    5.8840   14.1110 C.ar   53  PHE53      -0.0042
     17  CE1        6.8250    4.4460   11.8210 C.ar   53  PHE53      -0.0003
     18  CE2        5.2500    5.6450   13.1570 C.ar   53  PHE53      -0.0003
     19  CZ         5.5430    4.9190   12.0260 C.ar   53  PHE53      -0.0000
     20  N         14.0360    6.1210   16.5790 N.3    55  TYR55      -0.1241
     21  CA        15.0360    6.8650   15.8180 C.3    55  TYR55       0.1605
     22  C         16.3780    6.6380   16.4980 C.2    55  TYR55       0.2264
     23  O         16.5280    6.9740   17.6630 O.2    55  TYR55      -0.2867
     24  CB        14.6310    8.3490   15.7010 C.3    55  TYR55       0.0534
     25  CG        13.2570    8.4610   15.0740 C.ar   55  TYR55      -0.0201
     26  CD1       13.0730    8.2400   13.7120 C.ar   55  TYR55      -0.0009
     27  CD2       12.1240    8.6310   15.8620 C.ar   55  TYR55      -0.0009
     28  CE1       11.8010    8.2370   13.1440 C.ar   55  TYR55       0.0417
     29  CE2       10.8470    8.6420   15.3020 C.ar   55  TYR55       0.0417
     30  CZ        10.6900    8.4280   13.9450 C.ar   55  TYR55       0.1957
     31  OH         9.4370    8.4260   13.3890 O.3    55  TYR55      -0.2866
     32  N          7.9610   14.5380   17.2900 N.3    98  GLY98      -0.1210
     33  CA         6.9610   13.9950   16.3780 C.3    98  GLY98       0.1956
     34  C          6.8160   14.7090   15.0500 C.2    98  GLY98       0.2611
     35  O          6.1550   14.1840   14.1640 O.2    98  GLY98      -0.2717
     36  N          7.4280   15.9000   14.8850 N.am   99  ARG99      -0.1979
     37  CA         7.3880   16.6570   13.6220 C.3    99  ARG99       0.1597
     38  C          8.7740   16.6140   12.9880 C.2    99  ARG99       0.2287
     39  O          8.8890   16.5030   11.7690 O.2    99  ARG99      -0.2864
     40  CB         6.9110   18.1120   13.8410 C.3    99  ARG99       0.0334
     41  CG         6.6740   18.8990   12.5340 C.3    99  ARG99       0.0492
     42  CD         6.3100   20.3640   12.7660 C.3    99  ARG99       0.2205
     43  NE         7.3860   21.1010   13.4310 N.pl3  99  ARG99      -0.0865
     44  CZ         7.3600   22.4000   13.7010 C.cat  99  ARG99       0.5346
     45  NH1        6.3070   23.1320   13.3680 N.pl3  99  ARG99       0.1354
     46  NH2        8.3840   22.9760   14.3160 N.pl3  99  ARG99       0.1354
     47  N         10.1970   14.9090    9.7640 N.3   115  LEU115     -0.1231
     48  CA         9.6680   13.5570    9.6730 C.3   115  LEU115      0.1693
     49  C          8.6950   13.4700    8.5160 C.2   115  LEU115      0.2592
     50  O          8.0380   14.4670    8.1980 O.2   115  LEU115     -0.2718
     51  CB         8.9810   13.1530   10.9930 C.3   115  LEU115      0.0284
     52  CG         9.9200   12.6990   12.1100 C.3   115  LEU115      0.0019
     53  CD1        9.1970   12.6670   13.4340 C.3   115  LEU115      0.0001
     54  CD2       10.5010   11.3170   11.8230 C.3   115  LEU115      0.0001
     55  N          8.6360   12.2990    7.8530 N.am  116  GLN116     -0.1966
     56  CA         7.6720   12.0390    6.7680 C.3   116  GLN116      0.1733
     57  C          6.3910   11.5040    7.4200 C.2   116  GLN116      0.2616
     58  O          6.4520   11.0240    8.5580 O.2   116  GLN116     -0.2715
     59  CB         8.2310   11.0530    5.7220 C.3   116  GLN116      0.0408
     60  CG         9.6280   11.3940    5.1960 C.3   116  GLN116      0.0908
     61  CD         9.6460   12.2410    3.9510 C.2   116  GLN116      0.2608
     62  OE1        8.8670   13.1870    3.7840 O.2   116  GLN116     -0.2717
     63  NE2       10.5990   11.9650    3.0750 N.am  116  GLN116     -0.0878
     64  N          5.2380   11.5780    6.7110 N.am  117  LYS117     -0.1963
     65  CA         3.9200   11.1560    7.2040 C.3   117  LYS117      0.1728
     66  C          3.9040    9.6960    7.6770 C.2   117  LYS117      0.2616
     67  O          3.1620    9.3670    8.6040 O.2   117  LYS117     -0.2715
     68  CB         2.8370   11.3500    6.1140 C.3   117  LYS117      0.0311
     69  CG         2.5990   12.8130    5.7460 C.3   117  LYS117      0.0038
     70  CD         1.7840   13.4670    6.8310 C.3   117  LYS117      0.0206
     71  CE         2.3670   14.7970    7.2240 C.3   117  LYS117      0.1093
     72  NZ         1.6180   15.3750    8.3670 N.3   117  LYS117     -0.1314
     73  N          4.7020    8.8170    7.0280 N.am  118  ASP118     -0.1957
     74  CA         4.7850    7.3910    7.3790 C.3   118  ASP118      0.1840
     75  C          5.7370    7.1620    8.5690 C.2   118  ASP118      0.2622
     76  O          5.9880    6.0140    8.9380 O.2   118  ASP118     -0.2715
     77  CB         5.2320    6.5650    6.1550 C.3   118  ASP118      0.1450
     78  CG         6.6120    6.8760    5.5920 C.2   118  ASP118      0.3671
     79  OD1        7.2660    7.8180    6.0930 O.co2 118  ASP118     -0.2456
     80  OD2        7.0390    6.1760    4.6400 O.co2 118  ASP118     -0.2456
     81  N          6.2830    8.2440    9.1270 N.am  119  GLY119     -0.1954
     82  CA         7.1990    8.1710   10.2640 C.3   119  GLY119      0.1869
     83  C          8.6640    8.0000    9.9190 C.2   119  GLY119      0.2309
     84  O          9.5010    8.0100   10.8230 O.2   119  GLY119     -0.2863
@<TRIPOS>BOND
     1    63    61   am
     2    62    61    2
     3    61    60    1
     4    80    78   ar
     5    60    59    1
     6    78    79   ar
     7    78    77    1
     8    59    56    1
     9    69    68    1
    10    69    70    1
    11    68    65    1
    12    77    74    1
    13    64    65    1
    14    64    57   am
    15    56    57    1
    16    56    55    1
    17    70    71    1
    18    73    74    1
    19    73    66   am
    20    65    66    1
    21    71    72    1
    22    74    75    1
    23    57    58    2
    24    66    67    2
    25    55    49   am
    26    50    49    2
    27    49    48    1
    28    75    76    2
    29    75    81   am
    30    81    82    1
    31    48    47    1
    32    48    51    1
    33    83    82    1
    34    83    84    2
    35    51    52    1
    36    39    38    2
    37    17    19   ar
    38    17    15   ar
    39    54    52    1
    40    19    18   ar
    41    52    53    1
    42    41    42    1
    43    41    40    1
    44    42    43    1
    45    15    14   ar
    46    38    37    1
    47    28    26   ar
    48    28    30   ar
    49    18    16   ar
    50    45    44    1
    51    31    30    1
    52    43    44    2
    53    37    40    1
    54    37    36    1
    55    44    46    1
    56    26    25   ar
    57    14    16   ar
    58    14    13    1
    59    30    29   ar
    60    35    34    2
    61    36    34   am
    62    13    10    1
    63    34    33    1
    64    25    24    1
    65    25    27   ar
    66    29    27   ar
    67    24    21    1
    68    21    22    1
    69    21    20    1
    70    10     9    1
    71    10    11    1
    72    33    32    1
    73    22    23    2
    74    11    12    2
    75     8     6   ar
    76     6     7   ar
    77     6     5    1
    78     5     2    1
    79     4     3    2
    80     2     3    1
    81     2     1    1
