@<TRIPOS>MOLECULE
tmp/4qrnA00.pdb
 143 138 0 0 0
SMALL
GASTEIGER

@<TRIPOS>ATOM
      1  N         25.0470    1.8750  112.1330 N.3    20  GLU20      -0.1245
      2  CA        25.9760    0.8240  112.5490 C.3    20  GLU20       0.1567
      3  C         25.2250   -0.4850  112.8180 C.2    20  GLU20       0.2260
      4  O         25.1380   -0.9550  113.9470 O.2    20  GLU20      -0.2867
      5  CB        26.8040    1.2110  113.7730 C.3    20  GLU20       0.0388
      6  CG        28.0180    0.2610  113.9660 C.3    20  GLU20       0.1160
      7  CD        28.6100    0.3270  115.3590 C.2    20  GLU20       0.3649
      8  OE1       29.1210    1.3950  115.7260 O.co2  20  GLU20      -0.2457
      9  OE2       28.5800   -0.6850  116.1120 O.co2  20  GLU20      -0.2457
     10  N         24.2040   -4.5730  112.0230 N.3    22  ALA22      -0.1245
     11  CA        24.9990   -5.7640  111.7640 C.3    22  ALA22       0.1562
     12  C         24.1880   -6.9090  111.1480 C.2    22  ALA22       0.2260
     13  O         22.9910   -7.0860  111.4520 O.2    22  ALA22      -0.2867
     14  CB        25.6080   -6.2530  113.0650 C.3    22  ALA22       0.0290
     15  N         33.6360  -14.2620  122.3550 N.3    48  LEU48      -0.1231
     16  CA        32.5360  -13.5620  121.7050 C.3    48  LEU48       0.1693
     17  C         31.6270  -14.5210  120.9360 C.2    48  LEU48       0.2592
     18  O         30.4010  -14.5080  121.1180 O.2    48  LEU48      -0.2718
     19  CB        33.1250  -12.5180  120.7390 C.3    48  LEU48       0.0284
     20  CG        32.1430  -11.6480  119.9620 C.3    48  LEU48       0.0019
     21  CD1       31.3560  -10.7660  120.9140 C.3    48  LEU48       0.0001
     22  CD2       32.8970  -10.8160  118.9400 C.3    48  LEU48       0.0001
     23  N         32.2310  -15.3410  120.0740 N.am   49  TRP49      -0.1976
     24  CA        31.4530  -16.2040  119.1980 C.3    49  TRP49       0.1640
     25  C         31.1350  -17.5490  119.8440 C.2    49  TRP49       0.2290
     26  O         30.1250  -18.1430  119.5150 O.2    49  TRP49      -0.2864
     27  CB        32.0870  -16.2970  117.7880 C.3    49  TRP49       0.0576
     28  CG        31.7340  -15.0170  117.0830 C.ar   49  TRP49       0.0006
     29  CD1       32.5350  -13.9340  116.8430 C.ar   49  TRP49       0.0946
     30  CD2       30.4220  -14.6400  116.6930 C.ar   49  TRP49       0.0152
     31  NE1       31.7970  -12.9020  116.2970 N.ar   49  TRP49      -0.2442
     32  CE2       30.4960  -13.3150  116.2050 C.ar   49  TRP49       0.0810
     33  CE3       29.1810  -15.2890  116.7160 C.ar   49  TRP49       0.0012
     34  CZ2       29.3870  -12.6270  115.7690 C.ar   49  TRP49       0.0191
     35  CZ3       28.0770  -14.5920  116.2490 C.ar   49  TRP49       0.0001
     36  CH2       28.2010  -13.2860  115.7840 C.ar   49  TRP49       0.0015
     37  N         27.8510  -16.0740  121.3370 N.3    52  TYR52      -0.1241
     38  CA        26.6810  -15.8600  120.4890 C.3    52  TYR52       0.1605
     39  C         26.2610  -17.1040  119.7360 C.2    52  TYR52       0.2264
     40  O         25.0640  -17.3050  119.5140 O.2    52  TYR52      -0.2867
     41  CB        26.8570  -14.6580  119.5270 C.3    52  TYR52       0.0534
     42  CG        26.7710  -13.3650  120.2880 C.ar   52  TYR52      -0.0201
     43  CD1       25.5840  -12.9960  120.9210 C.ar   52  TYR52      -0.0009
     44  CD2       27.8710  -12.5370  120.4190 C.ar   52  TYR52      -0.0009
     45  CE1       25.5210  -11.8450  121.6850 C.ar   52  TYR52       0.0417
     46  CE2       27.8060  -11.3870  121.1800 C.ar   52  TYR52       0.0417
     47  CZ        26.6420  -11.0510  121.8090 C.ar   52  TYR52       0.1957
     48  OH        26.5760   -9.9290  122.5920 O.3    52  TYR52      -0.2866
     49  N         19.0500  -13.4810  125.1980 N.3    59  ARG59      -0.1245
     50  CA        19.6750  -12.4230  124.4370 C.3    59  ARG59       0.1563
     51  C         20.5110  -12.9820  123.2770 C.2    59  ARG59       0.2260
     52  O         20.3960  -12.4990  122.1380 O.2    59  ARG59      -0.2867
     53  CB        20.5230  -11.5280  125.3340 C.3    59  ARG59       0.0307
     54  CG        21.2740  -10.4500  124.5650 C.3    59  ARG59       0.0489
     55  CD        21.9300   -9.4190  125.5040 C.3    59  ARG59       0.2205
     56  NE        22.5430   -8.3720  124.6960 N.pl3  59  ARG59      -0.0865
     57  CZ        23.7590   -8.4410  124.1550 C.cat  59  ARG59       0.5346
     58  NH1       24.5930   -9.4250  124.4570 N.pl3  59  ARG59       0.1354
     59  NH2       24.1270   -7.4960  123.2980 N.pl3  59  ARG59       0.1354
     60  N         29.1390   -8.6500  110.6270 N.3    91  THR91      -0.1203
     61  CA        29.4310   -8.4710  112.0270 C.3    91  THR91       0.1994
     62  C         30.8610   -8.8560  112.3800 C.2    91  THR91       0.2618
     63  O         31.4760   -9.7690  111.8000 O.2    91  THR91      -0.2717
     64  CB        28.3890   -9.2300  112.8610 C.3    91  THR91       0.1784
     65  OG1       28.4870   -8.8420  114.2270 O.3    91  THR91      -0.2211
     66  CG2       28.5450  -10.7290  112.7790 C.3    91  THR91       0.0376
     67  N         31.3930   -8.1410  113.3650 N.am   92  SER92      -0.1951
     68  CA        32.7640   -8.3400  113.8020 C.3    92  SER92       0.1924
     69  C         32.9800   -9.7640  114.3120 C.2    92  SER92       0.2314
     70  O         32.1490  -10.2890  115.0470 O.2    92  SER92      -0.2863
     71  CB        33.0460   -7.3370  114.9050 C.3    92  SER92       0.2116
     72  OG        34.3560   -7.4920  115.3940 O.3    92  SER92      -0.2180
     73  N         35.0490   -0.5140  113.2080 N.3   189  HIS189     -0.1227
     74  CA        34.1420   -1.1010  114.1760 C.3   189  HIS189      0.1737
     75  C         34.9530   -1.9030  115.1960 C.2   189  HIS189      0.2438
     76  O         36.0260   -2.4150  114.8650 O.2   189  HIS189     -0.2733
     77  CB        33.2040   -2.0460  113.4190 C.3   189  HIS189      0.0758
     78  CG        32.1090   -2.6110  114.2670 C.ar  189  HIS189      0.0818
     79  ND1       32.2870   -3.7020  115.0800 N.ar  189  HIS189     -0.2268
     80  CD2       30.8240   -2.2110  114.4410 C.ar  189  HIS189      0.1154
     81  CE1       31.1540   -3.9360  115.7350 C.ar  189  HIS189      0.1986
     82  NE2       30.2400   -3.0610  115.3470 N.ar  189  HIS189     -0.2212
     83  N         34.4500   -2.0800  116.4280 N.am  190  PRO190     -0.2729
     84  CA        35.2370   -2.8510  117.3900 C.3   190  PRO190      0.1401
     85  C         35.3930   -4.3170  117.0180 C.2   190  PRO190      0.2269
     86  O         34.6640   -4.9200  116.2190 O.2   190  PRO190     -0.2865
     87  CB        34.4240   -2.7400  118.6830 C.3   190  PRO190      0.0296
     88  CG        33.6470   -1.4700  118.5590 C.3   190  PRO190      0.0237
     89  CD        33.3060   -1.3950  117.0680 C.3   190  PRO190      0.0939
     90  N         34.4540   -7.6370  125.9770 N.3   208  GLY208     -0.1210
     91  CA        33.5130   -7.3270  124.8980 C.3   208  GLY208      0.1956
     92  C         33.0230   -5.8950  124.9270 C.2   208  GLY208      0.2611
     93  O         33.7660   -4.9540  125.2710 O.2   208  GLY208     -0.2717
     94  N         31.7740   -5.7190  124.5030 N.am  209  ALA209     -0.1979
     95  CA        31.1680   -4.4020  124.3140 C.3   209  ALA209      0.1597
     96  C         31.2160   -3.5350  125.5680 C.2   209  ALA209      0.2287
     97  O         31.3030   -2.3050  125.4450 O.2   209  ALA209     -0.2864
     98  CB        29.7470   -4.5480  123.8080 C.3   209  ALA209      0.0319
     99  N         35.9170   -3.5970  123.8130 N.3   213  PHE213     -0.1241
    100  CA        35.6560   -3.0390  122.4760 C.3   213  PHE213      0.1605
    101  C         36.1410   -1.5900  122.3770 C.2   213  PHE213      0.2264
    102  O         36.7330   -1.1990  121.3730 O.2   213  PHE213     -0.2867
    103  CB        34.1520   -3.0990  122.1710 C.3   213  PHE213      0.0534
    104  CG        33.6450   -4.4250  121.6280 C.ar  213  PHE213     -0.0203
    105  CD1       34.3830   -5.6020  121.6810 C.ar  213  PHE213     -0.0042
    106  CD2       32.3780   -4.4550  121.0400 C.ar  213  PHE213     -0.0042
    107  CE1       33.8550   -6.7930  121.1480 C.ar  213  PHE213     -0.0003
    108  CE2       31.8490   -5.6360  120.5230 C.ar  213  PHE213     -0.0003
    109  CZ        32.5920   -6.8050  120.5770 C.ar  213  PHE213     -0.0000
    110  N         29.9410    4.2500  119.1580 N.3   242  HIS242     -0.1241
    111  CA        30.0380    4.2400  120.6120 C.3   242  HIS242      0.1621
    112  C         30.5730    5.5700  121.1220 C.2   242  HIS242      0.2264
    113  O         31.3770    5.6310  122.0490 O.2   242  HIS242     -0.2867
    114  CB        30.8400    3.0110  121.0920 C.3   242  HIS242      0.0745
    115  CG        30.4600    1.7890  120.3200 C.ar  242  HIS242      0.0817
    116  ND1       31.2470    1.2940  119.3050 N.ar  242  HIS242     -0.2268
    117  CD2       29.2970    1.0860  120.2760 C.ar  242  HIS242      0.1154
    118  CE1       30.6080    0.2950  118.7140 C.ar  242  HIS242      0.1986
    119  NE2       29.4230    0.1510  119.2810 N.ar  242  HIS242     -0.2212
    120  N         25.0600    2.2290  120.7530 N.3   291  GLY291     -0.1225
    121  CA        25.1580    1.7910  122.1240 C.3   291  GLY291      0.1811
    122  C         25.0910    2.8740  123.1840 C.2   291  GLY291      0.2280
    123  O         25.1860    2.5510  124.3860 O.2   291  GLY291     -0.2866
    124  N         22.9420   -0.0540  116.4130 N.3   315  ASP315     -0.1239
    125  CA        23.6870   -1.2690  116.7690 C.3   315  ASP315      0.1674
    126  C         22.7210   -2.4650  116.8010 C.2   315  ASP315      0.2266
    127  O         22.9110   -3.4100  117.5730 O.2   315  ASP315     -0.2867
    128  CB        24.4950   -1.1070  118.0920 C.3   315  ASP315      0.1410
    129  CG        25.9850   -1.4980  117.9580 C.2   315  ASP315      0.3668
    130  OD1       26.3440   -2.3020  117.0420 O.co2 315  ASP315     -0.2456
    131  OD2       26.7750   -0.9930  118.8010 O.co2 315  ASP315     -0.2456
    132  N         22.3810   -6.1640  118.4060 N.3   318  TYR318     -0.1241
    133  CA        22.9990   -6.2290  119.7180 C.3   318  TYR318      0.1605
    134  C         22.3420   -5.3180  120.7410 C.2   318  TYR318      0.2264
    135  O         22.3810   -5.5890  121.9440 O.2   318  TYR318     -0.2867
    136  CB        24.4990   -5.9230  119.6120 C.3   318  TYR318      0.0534
    137  CG        25.1980   -6.9370  118.7200 C.ar  318  TYR318     -0.0201
    138  CD1       25.4780   -8.2170  119.1860 C.ar  318  TYR318     -0.0009
    139  CD2       25.5760   -6.6230  117.4160 C.ar  318  TYR318     -0.0009
    140  CE1       26.0810   -9.1680  118.3820 C.ar  318  TYR318      0.0417
    141  CE2       26.1780   -7.5730  116.5820 C.ar  318  TYR318      0.0417
    142  CZ        26.4460   -8.8320  117.0940 C.ar  318  TYR318      0.1957
    143  OH        27.0510   -9.7810  116.3240 O.3   318  TYR318     -0.2866
@<TRIPOS>BOND
     1    60    61    1
     2    12    13    2
     3    12    11    1
     4    11    10    1
     5    11    14    1
     6    63    62    2
     7    61    62    1
     8    61    64    1
     9     1     2    1
    10    62    67   am
    11     2     3    1
    12     2     5    1
    13    66    64    1
    14     3     4    2
    15    64    65    1
    16    73    74    1
    17    67    68    1
    18    77    74    1
    19    77    78    1
    20     5     6    1
    21    68    69    1
    22    68    71    1
    23     6     7    1
    24    74    75    1
    25    78    80   ar
    26    78    79   ar
    27    69    70    2
    28    80    82   ar
    29    76    75    2
    30    71    72    1
    31    79    81   ar
    32    75    83   am
    33    82    81   ar
    34     7     8   ar
    35     7     9   ar
    36    34    36   ar
    37    34    32   ar
    38    36    35   ar
    39    32    31   ar
    40    32    30   ar
    41    86    85    2
    42    35    33   ar
    43    31    29   ar
    44   143   142    1
    45   124   125    1
    46    83    89    1
    47    83    84    1
    48   141   142   ar
    49   141   139   ar
    50    30    33   ar
    51    30    28   ar
    52   125   126    1
    53   125   128    1
    54   126   127    2
    55    29    28   ar
    56    85    84    1
    57   130   129   ar
    58    89    88    1
    59    28    27    1
    60   142   140   ar
    61    84    87    1
    62   139   137   ar
    63    27    24    1
    64   129   128    1
    65   129   131   ar
    66   140   138   ar
    67   132   133    1
    68    88    87    1
    69   118   119   ar
    70   118   116   ar
    71   137   138   ar
    72   137   136    1
    73    22    20    1
    74   110   111    1
    75    24    25    1
    76    24    23    1
    77   119   117   ar
    78   116   115   ar
    79    40    39    2
    80    26    25    2
    81    41    42    1
    82    41    38    1
    83   136   133    1
    84   133   134    1
    85    39    38    1
    86    20    19    1
    87    20    21    1
    88    23    17   am
    89   117   115   ar
    90    42    44   ar
    91    42    43   ar
    92   115   114    1
    93    44    46   ar
    94    38    37    1
    95   108   109   ar
    96   108   106   ar
    97   109   107   ar
    98   111   114    1
    99   111   112    1
   100    19    16    1
   101   134   135    2
   102   120   121    1
   103    43    45   ar
   104    17    18    2
   105    17    16    1
   106   106   104   ar
   107   112   113    2
   108   107   105   ar
   109    46    47   ar
   110   102   101    2
   111   104   105   ar
   112   104   103    1
   113    45    47   ar
   114    16    15    1
   115    47    48    1
   116   121   122    1
   117    52    51    2
   118   103   100    1
   119   101   100    1
   120   100    99    1
   121   122   123    2
   122    51    50    1
   123    59    57    1
   124    98    95    1
   125    57    58    1
   126    57    56    2
   127    95    94    1
   128    95    96    1
   129    50    49    1
   130    50    53    1
   131    94    92   am
   132    54    53    1
   133    54    55    1
   134    56    55    1
   135    91    92    1
   136    91    90    1
   137    92    93    2
   138    97    96    2
