@<TRIPOS>MOLECULE
tmp/4qroA00.pdb
 101 98 0 0 0
SMALL
GASTEIGER

@<TRIPOS>ATOM
      1  N         -0.2260   -4.6270  -13.8630 N.3     8  GLU8       -0.1245
      2  CA        -1.0630   -5.5490  -13.1060 C.3     8  GLU8        0.1567
      3  C         -2.3470   -4.8080  -12.7780 C.2     8  GLU8        0.2260
      4  O         -2.5700   -4.3500  -11.6570 O.2     8  GLU8       -0.2867
      5  CB        -0.3820   -6.0880  -11.8310 C.3     8  GLU8        0.0388
      6  CG        -1.0250   -7.3990  -11.3920 C.3     8  GLU8        0.1160
      7  CD        -0.4580   -7.9910  -10.1120 C.2     8  GLU8        0.3649
      8  OE1       -1.2670   -8.3930   -9.2360 O.co2   8  GLU8       -0.2457
      9  OE2        0.7780   -8.1270  -10.0150 O.co2   8  GLU8       -0.2457
     10  N         -6.4160   -4.9800  -13.4500 N.3    10  HIS10      -0.1241
     11  CA        -7.3640   -6.0290  -13.6890 C.3    10  HIS10       0.1621
     12  C         -8.7460   -5.5120  -14.0490 C.2    10  HIS10       0.2264
     13  O         -9.1480   -4.4320  -13.6330 O.2    10  HIS10      -0.2867
     14  CB        -7.5040   -6.9050  -12.4460 C.3    10  HIS10       0.0745
     15  CG        -6.2270   -7.5230  -11.9720 C.ar   10  HIS10       0.0817
     16  ND1       -5.5690   -8.5090  -12.6780 N.ar   10  HIS10      -0.2268
     17  CD2       -5.5360   -7.3540  -10.8180 C.ar   10  HIS10       0.1154
     18  CE1       -4.4990   -8.8900  -11.9990 C.ar   10  HIS10       0.1986
     19  NE2       -4.4660   -8.2160  -10.8610 N.ar   10  HIS10      -0.2212
     20  N        -12.7180  -11.5840   -1.8810 N.3    23  PHE23      -0.1241
     21  CA       -11.4710  -10.8500   -1.5690 C.3    23  PHE23       0.1605
     22  C        -11.6330   -9.5110   -0.8460 C.2    23  PHE23       0.2264
     23  O        -10.6360   -8.9080   -0.4690 O.2    23  PHE23      -0.2867
     24  CB       -10.5970  -10.7120   -2.8260 C.3    23  PHE23       0.0534
     25  CG       -10.0740  -12.0240   -3.3220 C.ar   23  PHE23      -0.0203
     26  CD1       -9.0370  -12.6760   -2.6470 C.ar   23  PHE23      -0.0042
     27  CD2      -10.6220  -12.6300   -4.4460 C.ar   23  PHE23      -0.0042
     28  CE1       -8.5630  -13.9020   -3.1010 C.ar   23  PHE23      -0.0003
     29  CE2      -10.1470  -13.8510   -4.9000 C.ar   23  PHE23      -0.0003
     30  CZ        -9.1150  -14.4880   -4.2260 C.ar   23  PHE23      -0.0000
     31  N         -8.8420  -12.9690  -11.2030 N.3    61  ALA61      -0.1245
     32  CA        -8.2900  -14.2710  -10.7810 C.3    61  ALA61       0.1562
     33  C         -9.3220  -15.0430   -9.9630 C.2    61  ALA61       0.2260
     34  O        -10.1640  -14.4250   -9.3210 O.2    61  ALA61      -0.2867
     35  CB        -7.0410  -14.0510   -9.9500 C.3    61  ALA61       0.0290
     36  N          0.7940  -14.7720  -12.1930 N.3   164  HIS164     -0.1241
     37  CA         0.0710  -14.0190  -11.1620 C.3   164  HIS164      0.1621
     38  C         -0.3880  -15.0140  -10.1060 C.2   164  HIS164      0.2264
     39  O         -0.4390  -16.2340  -10.3650 O.2   164  HIS164     -0.2867
     40  CB        -1.1330  -13.3100  -11.8310 C.3   164  HIS164      0.0745
     41  CG        -1.9520  -12.4520  -10.9250 C.ar  164  HIS164      0.0817
     42  ND1       -3.0390  -12.9340  -10.2260 N.ar  164  HIS164     -0.2268
     43  CD2       -1.8720  -11.1310  -10.6370 C.ar  164  HIS164      0.1154
     44  CE1       -3.5830  -11.9460   -9.5430 C.ar  164  HIS164      0.1986
     45  NE2       -2.8980  -10.8440   -9.7770 N.ar  164  HIS164     -0.2212
     46  N         -3.9210  -12.1740   -0.6450 N.3   185  PRO185     -0.2116
     47  CA        -2.7070  -11.3320   -0.7240 C.3   185  PRO185      0.1372
     48  C         -1.9100  -11.1990    0.5820 C.2   185  PRO185      0.2244
     49  O         -0.7400  -10.8290    0.5490 O.2   185  PRO185     -0.2868
     50  CB        -3.2590   -9.9570   -1.1610 C.3   185  PRO185      0.0268
     51  CG        -4.6870   -9.9710   -0.7180 C.3   185  PRO185      0.0207
     52  CD        -5.1480  -11.3830   -0.9040 C.3   185  PRO185      0.0892
     53  N         -1.0630  -16.2120   -1.3810 N.3   189  PHE189     -0.1241
     54  CA        -0.7600  -15.8130   -2.7960 C.3   189  PHE189      0.1605
     55  C          0.7400  -15.8120   -3.0990 C.2   189  PHE189      0.2264
     56  O          1.1800  -16.3300   -4.1210 O.2   189  PHE189     -0.2867
     57  CB        -1.2520  -14.3720   -3.0450 C.3   189  PHE189      0.0534
     58  CG        -2.6690  -14.2550   -3.5410 C.ar  189  PHE189     -0.0203
     59  CD1       -3.5280  -15.3540   -3.6350 C.ar  189  PHE189     -0.0042
     60  CD2       -3.1360  -13.0130   -3.9290 C.ar  189  PHE189     -0.0042
     61  CE1       -4.8110  -15.2010   -4.1240 C.ar  189  PHE189     -0.0003
     62  CE2       -4.4270  -12.8520   -4.3880 C.ar  189  PHE189     -0.0003
     63  CZ        -5.2650  -13.9440   -4.4780 C.ar  189  PHE189     -0.0000
     64  N          4.1200   -8.0160   -7.0020 N.3   218  HIS218     -0.1241
     65  CA         4.2560   -7.9930   -5.5360 C.3   218  HIS218      0.1621
     66  C          5.7280   -8.0260   -5.1060 C.2   218  HIS218      0.2264
     67  O          6.0990   -8.6080   -4.0860 O.2   218  HIS218     -0.2867
     68  CB         3.4000   -9.1110   -4.9370 C.3   218  HIS218      0.0745
     69  CG         2.0180   -9.1760   -5.5350 C.ar  218  HIS218      0.0817
     70  ND1        1.6230  -10.1560   -6.4220 N.ar  218  HIS218     -0.2268
     71  CD2        0.9790   -8.3040   -5.4590 C.ar  218  HIS218      0.1154
     72  CE1        0.3780   -9.9150   -6.8250 C.ar  218  HIS218      0.1986
     73  NE2       -0.0330   -8.8020   -6.2470 N.ar  218  HIS218     -0.2212
     74  N         -1.9320   -3.0640   -9.2160 N.3   287  ASP287     -0.1239
     75  CA        -2.9190   -4.0630   -8.7690 C.3   287  ASP287      0.1674
     76  C         -4.3410   -3.4830   -8.6270 C.2   287  ASP287      0.2266
     77  O         -5.1760   -4.0550   -7.9500 O.2   287  ASP287     -0.2867
     78  CB        -2.4980   -4.7300   -7.4670 C.3   287  ASP287      0.1410
     79  CG        -2.9020   -6.2010   -7.3940 C.2   287  ASP287      0.3668
     80  OD1       -3.5890   -6.7340   -8.3190 O.co2 287  ASP287     -0.2456
     81  OD2       -2.5070   -6.8270   -6.3880 O.co2 287  ASP287     -0.2456
     82  N         -7.7580   -3.8310   -6.7310 N.3   290  PHE290     -0.1227
     83  CA        -7.6230   -4.4200   -5.3980 C.3   290  PHE290      0.1736
     84  C         -6.7640   -3.5230   -4.5180 C.2   290  PHE290      0.2595
     85  O         -6.8250   -3.6130   -3.2650 O.2   290  PHE290     -0.2718
     86  CB        -7.0520   -5.8490   -5.5090 C.3   290  PHE290      0.0547
     87  CG        -7.8920   -6.7580   -6.3610 C.ar  290  PHE290     -0.0202
     88  CD1       -9.0630   -7.2820   -5.8760 C.ar  290  PHE290     -0.0042
     89  CD2       -7.5270   -7.0490   -7.6800 C.ar  290  PHE290     -0.0042
     90  CE1       -9.8630   -8.0800   -6.6730 C.ar  290  PHE290     -0.0003
     91  CE2       -8.3220   -7.8620   -8.4840 C.ar  290  PHE290     -0.0003
     92  CZ        -9.4790   -8.3850   -7.9680 C.ar  290  PHE290     -0.0000
     93  N         -5.9420   -2.7040   -5.1800 N.am  291  GLU291     -0.1979
     94  CA        -5.2560   -1.5680   -4.5810 C.3   291  GLU291      0.1602
     95  C         -5.6580   -0.2960   -5.3030 C.2   291  GLU291      0.2287
     96  O         -5.9680   -0.3260   -6.5130 O.2   291  GLU291     -0.2864
     97  CB        -3.7450   -1.6880   -4.7450 C.3   291  GLU291      0.0415
     98  CG        -3.1470   -2.9530   -4.2190 C.3   291  GLU291      0.1163
     99  CD        -3.1760   -3.0160   -2.7210 C.2   291  GLU291      0.3649
    100  OE1       -3.3970   -1.9580   -2.0760 O.co2 291  GLU291     -0.2457
    101  OE2       -3.0060   -4.1350   -2.2130 O.co2 291  GLU291     -0.2457
@<TRIPOS>BOND
     1    12    11    1
     2    12    13    2
     3     1     2    1
     4    11    10    1
     5    11    14    1
     6     2     3    1
     7     2     5    1
     8     3     4    2
     9    16    18   ar
    10    16    15   ar
    11    14    15    1
    12    36    37    1
    13    18    19   ar
    14    15    17   ar
    15     5     6    1
    16    40    37    1
    17    40    41    1
    18     6     7    1
    19    31    32    1
    20    37    38    1
    21    41    43   ar
    22    41    42   ar
    23    19    17   ar
    24    32    33    1
    25    32    35    1
    26    43    45   ar
    27    39    38    2
    28    42    44   ar
    29     7     9   ar
    30     7     8   ar
    31    33    34    2
    32    45    44   ar
    33    74    75    1
    34    75    76    1
    35    75    78    1
    36    76    77    2
    37    91    92   ar
    38    91    89   ar
    39    80    79   ar
    40    92    90   ar
    41    89    87   ar
    42    78    79    1
    43    79    81   ar
    44    64    65    1
    45    72    70   ar
    46    72    73   ar
    47    82    83    1
    48    90    88   ar
    49    96    95    2
    50    70    69   ar
    51    87    88   ar
    52    87    86    1
    53    73    71   ar
    54    65    66    1
    55    65    68    1
    56    69    71   ar
    57    69    68    1
    58    86    83    1
    59    83    84    1
    60    95    94    1
    61    93    94    1
    62    93    84   am
    63    66    67    2
    64    29    27   ar
    65    29    30   ar
    66    97    94    1
    67    97    98    1
    68    84    85    2
    69    63    62   ar
    70    63    61   ar
    71    27    25   ar
    72    62    60   ar
    73    30    28   ar
    74    98    99    1
    75    61    59   ar
    76    56    55    2
    77    60    58   ar
    78    59    58   ar
    79    58    57    1
    80    25    24    1
    81    25    26   ar
    82    28    26   ar
    83    55    54    1
    84    57    54    1
    85    24    21    1
    86    54    53    1
    87    99   101   ar
    88    99   100   ar
    89    20    21    1
    90    21    22    1
    91    50    47    1
    92    50    51    1
    93    52    51    1
    94    52    46    1
    95    22    23    2
    96    47    46    1
    97    47    48    1
    98    49    48    2
