@<TRIPOS>MOLECULE
tmp/4qrsA00.pdb
 158 151 0 0 0
SMALL
GASTEIGER

@<TRIPOS>ATOM
      1  N         -2.7490   -3.9960  -36.2110 N.3    72  GLN72      -0.1231
      2  CA        -4.1730   -3.9670  -36.5280 C.3    72  GLN72       0.1698
      3  C         -4.9120   -5.1390  -35.8780 C.2    72  GLN72       0.2593
      4  O         -5.9850   -4.9740  -35.2990 O.2    72  GLN72      -0.2718
      5  CB        -4.3930   -3.9730  -38.0380 C.3    72  GLN72       0.0381
      6  CG        -5.8570   -4.1070  -38.4470 C.3    72  GLN72       0.0905
      7  CD        -6.7430   -3.0400  -37.8320 C.2    72  GLN72       0.2608
      8  OE1       -6.2620   -2.0170  -37.3370 O.2    72  GLN72      -0.2717
      9  NE2       -8.0510   -3.2730  -37.8630 N.am   72  GLN72      -0.0878
     10  N         -4.3330   -6.3250  -35.9730 N.am   73  THR73      -0.1939
     11  CA        -4.9870   -7.5090  -35.4390 C.3    73  THR73       0.2028
     12  C         -5.1670   -7.4190  -33.9350 C.2    73  THR73       0.2642
     13  O         -6.2350   -7.7460  -33.4170 O.2    73  THR73      -0.2714
     14  CB        -4.2030   -8.7730  -35.8000 C.3    73  THR73       0.1808
     15  OG1       -4.2040   -8.9250  -37.2230 O.3    73  THR73      -0.2208
     16  CG2       -4.8220  -10.0050  -35.1400 C.3    73  THR73       0.0379
     17  N         -4.1460   -6.9630  -33.2220 N.am   74  ASP74      -0.1971
     18  CA        -4.2820   -6.9200  -31.7770 C.3    74  ASP74       0.1709
     19  C         -5.1460   -5.7430  -31.3190 C.2    74  ASP74       0.2293
     20  O         -5.8080   -5.8370  -30.2920 O.2    74  ASP74      -0.2864
     21  CB        -2.9150   -7.0200  -31.0650 C.3    74  ASP74       0.1436
     22  CG        -2.4230   -8.4730  -30.9590 C.2    74  ASP74       0.3671
     23  OD1       -3.0150   -9.3270  -31.6420 O.co2  74  ASP74      -0.2456
     24  OD2       -1.4510   -8.7760  -30.2130 O.co2  74  ASP74      -0.2456
     25  N         -7.8810   -4.7900  -33.0260 N.3    76  GLU76      -0.1231
     26  CA        -9.2310   -5.3360  -33.1800 C.3    76  GLU76       0.1699
     27  C         -9.5300   -6.3910  -32.1160 C.2    76  GLU76       0.2592
     28  O        -10.6420   -6.4760  -31.6150 O.2    76  GLU76      -0.2718
     29  CB        -9.4460   -5.9070  -34.5780 C.3    76  GLU76       0.0402
     30  CG        -9.4630   -4.8450  -35.6690 C.3    76  GLU76       0.1161
     31  CD       -10.4400   -3.7180  -35.3830 C.2    76  GLU76       0.3649
     32  OE1      -11.5680   -4.0030  -34.9240 O.co2  76  GLU76      -0.2457
     33  OE2      -10.0710   -2.5450  -35.6080 O.co2  76  GLU76      -0.2457
     34  N         -8.5270   -7.1960  -31.7680 N.am   77  SER77      -0.1952
     35  CA        -8.6790   -8.1480  -30.6740 C.3    77  SER77       0.1924
     36  C         -9.0050   -7.4700  -29.3330 C.2    77  SER77       0.2314
     37  O         -9.8830   -7.9400  -28.5920 O.2    77  SER77      -0.2863
     38  CB        -7.4190   -9.0160  -30.5680 C.3    77  SER77       0.2116
     39  OG        -7.2590   -9.8350  -31.7280 O.3    77  SER77      -0.2180
     40  N        -12.5950   -6.6510  -29.4670 N.3    80  ASN80      -0.1225
     41  CA       -13.4570   -7.8080  -29.2940 C.3    80  ASN80       0.1785
     42  C        -13.4820   -8.2870  -27.8480 C.2    80  ASN80       0.2597
     43  O        -14.5520   -8.6440  -27.3260 O.2    80  ASN80      -0.2718
     44  CB       -13.0540   -8.9330  -30.2370 C.3    80  ASN80       0.1169
     45  CG       -13.2950   -8.5790  -31.6880 C.2    80  ASN80       0.2627
     46  OD1      -13.9900   -7.6080  -31.9840 O.2    80  ASN80      -0.2716
     47  ND2      -12.7250   -9.3500  -32.5980 N.am   80  ASN80      -0.0877
     48  N        -12.3150   -8.3260  -27.2010 N.am   81  LEU81      -0.1980
     49  CA       -12.2630   -8.7870  -25.8220 C.3    81  LEU81       0.1596
     50  C        -13.0490   -7.8610  -24.8970 C.2    81  LEU81       0.2287
     51  O        -13.6890   -8.3240  -23.9610 O.2    81  LEU81      -0.2864
     52  CB       -10.8180   -8.9870  -25.3190 C.3    81  LEU81       0.0297
     53  CG       -10.3110  -10.4430  -25.4340 C.3    81  LEU81       0.0022
     54  CD1      -10.3370  -10.9070  -26.8780 C.3    81  LEU81       0.0001
     55  CD2       -8.8940  -10.5600  -24.8630 C.3    81  LEU81       0.0001
     56  N        -16.4430   -9.1250  -25.0960 N.3    84  TYR84      -0.1241
     57  CA       -16.6630  -10.4240  -24.4540 C.3    84  TYR84       0.1605
     58  C        -16.8160  -10.2860  -22.9470 C.2    84  TYR84       0.2264
     59  O        -17.4250  -11.1360  -22.3110 O.2    84  TYR84      -0.2867
     60  CB       -15.4870  -11.3720  -24.6910 C.3    84  TYR84       0.0534
     61  CG       -15.1830  -11.7310  -26.1210 C.ar   84  TYR84      -0.0201
     62  CD1      -16.1300  -11.6130  -27.1420 C.ar   84  TYR84      -0.0009
     63  CD2      -13.9290  -12.2120  -26.4600 C.ar   84  TYR84      -0.0009
     64  CE1      -15.8110  -11.9540  -28.4500 C.ar   84  TYR84       0.0417
     65  CE2      -13.6150  -12.5530  -27.7450 C.ar   84  TYR84       0.0417
     66  CZ       -14.5410  -12.4260  -28.7420 C.ar   84  TYR84       0.1957
     67  OH       -14.1970  -12.7660  -30.0360 O.3    84  TYR84      -0.2866
     68  N         -3.6200   -6.3080  -23.6390 N.3    95  LEU95      -0.1245
     69  CA        -3.5440   -7.6380  -24.2210 C.3    95  LEU95       0.1561
     70  C         -2.0840   -7.9640  -24.4640 C.2    95  LEU95       0.2260
     71  O         -1.4150   -7.2630  -25.2170 O.2    95  LEU95      -0.2867
     72  CB        -4.3150   -7.6660  -25.5380 C.3    95  LEU95       0.0270
     73  CG        -4.3040   -8.9860  -26.3170 C.3    95  LEU95       0.0019
     74  CD1       -4.9330  -10.1100  -25.4960 C.3    95  LEU95       0.0001
     75  CD2       -4.9980   -8.8020  -27.6660 C.3    95  LEU95       0.0001
     76  N         -1.4120  -15.9350  -24.4460 N.3   116  TYR116     -0.1241
     77  CA        -1.9460  -14.5960  -24.2720 C.3   116  TYR116      0.1605
     78  C         -2.5000  -14.3780  -22.8920 C.2   116  TYR116      0.2264
     79  O         -3.0040  -15.3150  -22.2630 O.2   116  TYR116     -0.2867
     80  CB        -3.1160  -14.3690  -25.2140 C.3   116  TYR116      0.0534
     81  CG        -2.7680  -14.1990  -26.6420 C.ar  116  TYR116     -0.0201
     82  CD1       -2.4230  -15.2830  -27.4230 C.ar  116  TYR116     -0.0009
     83  CD2       -2.8060  -12.9290  -27.2230 C.ar  116  TYR116     -0.0009
     84  CE1       -2.1060  -15.1270  -28.7590 C.ar  116  TYR116      0.0417
     85  CE2       -2.5140  -12.7580  -28.5520 C.ar  116  TYR116      0.0417
     86  CZ        -2.1500  -13.8640  -29.3060 C.ar  116  TYR116      0.1957
     87  OH        -1.8610  -13.7030  -30.6390 O.3   116  TYR116     -0.2866
     88  N         -5.3470  -15.9130  -20.6800 N.3   123  TYR123     -0.1227
     89  CA        -6.5340  -15.8730  -21.5210 C.3   123  TYR123      0.1736
     90  C         -6.6530  -17.1240  -22.4200 C.2   123  TYR123      0.2595
     91  O         -7.6350  -17.8650  -22.3440 O.2   123  TYR123     -0.2718
     92  CB        -6.5190  -14.5750  -22.3640 C.3   123  TYR123      0.0548
     93  CG        -7.7340  -14.4170  -23.2550 C.ar  123  TYR123     -0.0200
     94  CD1       -8.9440  -13.9560  -22.7350 C.ar  123  TYR123     -0.0009
     95  CD2       -7.6910  -14.7370  -24.6050 C.ar  123  TYR123     -0.0009
     96  CE1      -10.0690  -13.8240  -23.5390 C.ar  123  TYR123      0.0417
     97  CE2       -8.8140  -14.6010  -25.4210 C.ar  123  TYR123      0.0417
     98  CZ        -9.9970  -14.1330  -24.8760 C.ar  123  TYR123      0.1957
     99  OH       -11.1430  -13.9940  -25.6340 O.3   123  TYR123     -0.2866
    100  N         -5.6780  -17.3300  -23.2940 N.am  124  ILE124     -0.1980
    101  CA        -5.6620  -18.5110  -24.1590 C.3   124  ILE124      0.1595
    102  C         -4.2230  -18.8750  -24.4430 C.2   124  ILE124      0.2287
    103  O         -3.3450  -18.0120  -24.4570 O.2   124  ILE124     -0.2864
    104  CB        -6.4470  -18.2760  -25.4750 C.3   124  ILE124      0.0276
    105  CG1       -6.7700  -19.6200  -26.1540 C.3   124  ILE124      0.0022
    106  CG2       -5.7120  -17.3070  -26.4330 C.3   124  ILE124      0.0022
    107  CD1       -7.7220  -19.4780  -27.3520 C.3   124  ILE124      0.0001
    108  N        -12.7140  -16.9310  -28.6510 N.3   143  THR143     -0.1218
    109  CA       -11.4770  -16.8460  -29.4140 C.3   143  THR143      0.1862
    110  C        -11.0720  -18.2360  -29.9210 C.2   143  THR143      0.2287
    111  O        -10.7040  -18.3910  -31.0810 O.2   143  THR143     -0.2866
    112  CB       -10.3670  -16.2520  -28.5660 C.3   143  THR143      0.1770
    113  OG1      -10.7160  -14.9030  -28.2330 O.3   143  THR143     -0.2211
    114  CG2       -9.0580  -16.2380  -29.3370 C.3   143  THR143      0.0375
    115  N        -13.1720  -19.1630  -32.9410 N.3   146  LYS146     -0.1231
    116  CA       -12.7650  -18.4220  -34.1230 C.3   146  LYS146      0.1693
    117  C        -11.4390  -18.9700  -34.6730 C.2   146  LYS146      0.2592
    118  O        -11.2520  -19.1220  -35.8830 O.2   146  LYS146     -0.2718
    119  CB       -12.6110  -16.9390  -33.7900 C.3   146  LYS146      0.0285
    120  CG       -13.9190  -16.2110  -33.4670 C.3   146  LYS146      0.0035
    121  CD       -13.6460  -14.7280  -33.2780 C.3   146  LYS146      0.0206
    122  CE       -14.8990  -13.9260  -32.9380 C.3   146  LYS146      0.1093
    123  NZ       -14.5070  -12.5030  -32.7130 N.3   146  LYS146     -0.1314
    124  N        -10.5110  -19.2610  -33.7760 N.am  147  TRP147     -0.1976
    125  CA        -9.1940  -19.7170  -34.1970 C.3   147  TRP147      0.1640
    126  C         -9.2170  -21.1550  -34.7100 C.2   147  TRP147      0.2290
    127  O         -8.4620  -21.4990  -35.6230 O.2   147  TRP147     -0.2864
    128  CB        -8.1810  -19.5400  -33.0630 C.3   147  TRP147      0.0576
    129  CG        -7.7110  -18.1350  -32.9420 C.ar  147  TRP147      0.0006
    130  CD1       -8.1190  -17.0620  -33.6800 C.ar  147  TRP147      0.0946
    131  CD2       -6.7270  -17.6490  -32.0290 C.ar  147  TRP147      0.0152
    132  NE1       -7.4310  -15.9300  -33.2870 N.ar  147  TRP147     -0.2442
    133  CE2       -6.5730  -16.2760  -32.2710 C.ar  147  TRP147      0.0810
    134  CE3       -5.9580  -18.2520  -31.0350 C.ar  147  TRP147      0.0012
    135  CZ2       -5.6740  -15.4990  -31.5540 C.ar  147  TRP147      0.0191
    136  CZ3       -5.0660  -17.4800  -30.3170 C.ar  147  TRP147      0.0001
    137  CH2       -4.9410  -16.1150  -30.5750 C.ar  147  TRP147      0.0015
    138  N        -10.6400  -20.9850  -38.2480 N.3   150  ALA150     -0.1245
    139  CA        -9.6900  -20.4370  -39.2100 C.3   150  ALA150      0.1562
    140  C         -8.3670  -21.2230  -39.2580 C.2   150  ALA150      0.2260
    141  O         -7.4350  -20.8070  -39.9390 O.2   150  ALA150     -0.2867
    142  CB        -9.4220  -18.9660  -38.9020 C.3   150  ALA150      0.0290
    143  N         -5.9420  -21.5530  -37.1690 N.3   152  VAL152     -0.1245
    144  CA        -4.8160  -20.7390  -36.7330 C.3   152  VAL152      0.1561
    145  C         -3.6860  -21.5840  -36.1430 C.2   152  VAL152      0.2260
    146  O         -2.5100  -21.2980  -36.3700 O.2   152  VAL152     -0.2867
    147  CB        -5.2990  -19.6790  -35.7230 C.3   152  VAL152      0.0252
    148  CG1       -4.1320  -19.0040  -35.0270 C.3   152  VAL152      0.0019
    149  CG2       -6.1640  -18.6610  -36.4190 C.3   152  VAL152      0.0019
    150  N         -1.1480  -22.6820  -38.6180 N.3   155  GLN155     -0.1245
    151  CA        -0.2260  -21.6330  -39.0270 C.3   155  GLN155      0.1566
    152  C          0.8000  -21.3500  -37.9360 C.2   155  GLN155      0.2260
    153  O          1.9810  -21.1810  -38.2270 O.2   155  GLN155     -0.2867
    154  CB        -0.9860  -20.3680  -39.4120 C.3   155  GLN155      0.0367
    155  CG        -1.7600  -20.5270  -40.7090 C.3   155  GLN155      0.0905
    156  CD        -2.7570  -19.4170  -40.9380 C.2   155  GLN155      0.2608
    157  OE1       -3.5370  -19.0740  -40.0510 O.2   155  GLN155     -0.2717
    158  NE2       -2.7380  -18.8480  -42.1360 N.am  155  GLN155     -0.0878
@<TRIPOS>BOND
     1   158   156   am
     2   156   155    1
     3   156   157    2
     4   155   154    1
     5   141   140    2
     6   154   151    1
     7   140   139    1
     8   139   142    1
     9   139   138    1
    10   151   150    1
    11   151   152    1
    12     6     5    1
    13     6     7    1
    14   153   152    2
    15     5     2    1
    16     9     7   am
    17     7     8    2
    18    15    14    1
    19   143   144    1
    20   144   145    1
    21   144   147    1
    22     2     1    1
    23     2     3    1
    24   149   147    1
    25   146   145    2
    26    10     3   am
    27    10    11    1
    28   118   117    2
    29     3     4    2
    30    14    11    1
    31    14    16    1
    32   147   148    1
    33    30    31    1
    34    30    29    1
    35   127   126    2
    36    33    31   ar
    37    11    12    1
    38    31    32   ar
    39   126   125    1
    40   117   116    1
    41   117   124   am
    42    29    26    1
    43   125   124    1
    44   125   128    1
    45   116   119    1
    46   116   115    1
    47    12    13    2
    48    12    17   am
    49   119   120    1
    50   130   132   ar
    51   130   129   ar
    52   120   121    1
    53   132   133   ar
    54   121   122    1
    55    17    18    1
    56    26    25    1
    57    26    27    1
    58   128   129    1
    59   129   131   ar
    60   122   123    1
    61    47    45   am
    62   133   131   ar
    63   133   135   ar
    64    27    34   am
    65    27    28    2
    66   131   134   ar
    67    46    45    2
    68    18    19    1
    69    18    21    1
    70    34    35    1
    71    39    38    1
    72    45    44    1
    73    23    22   ar
    74   135   137   ar
    75    19    20    2
    76   111   110    2
    77    21    22    1
    78   134   136   ar
    79    22    24   ar
    80    35    38    1
    81    35    36    1
    82    87    86    1
    83   137   136   ar
    84    44    41    1
    85    67    66    1
    86   110   109    1
    87    40    41    1
    88   109   108    1
    89   109   112    1
    90   114   112    1
    91    36    37    2
    92    86    84   ar
    93    86    85   ar
    94    41    42    1
    95    84    82   ar
    96    66    64   ar
    97    66    65   ar
    98   112   113    1
    99    85    83   ar
   100    64    62   ar
   101    42    43    2
   102    42    48   am
   103    65    63   ar
   104    75    73    1
   105    82    81   ar
   106   107   105    1
   107    83    81   ar
   108    48    49    1
   109    62    61   ar
   110    54    53    1
   111    81    80    1
   112    63    61   ar
   113   106   104    1
   114    73    72    1
   115    73    74    1
   116   105   104    1
   117    61    60    1
   118    49    52    1
   119    49    50    1
   120    99    98    1
   121    72    69    1
   122   104   101    1
   123    53    52    1
   124    53    55    1
   125    97    98   ar
   126    97    95   ar
   127    71    70    2
   128    80    77    1
   129    56    57    1
   130    50    51    2
   131    98    96   ar
   132    60    57    1
   133    95    93   ar
   134    70    69    1
   135   103   102    2
   136    57    58    1
   137    76    77    1
   138   102   101    1
   139    77    78    1
   140    69    68    1
   141   101   100    1
   142    96    94   ar
   143   100    90   am
   144    93    94   ar
   145    93    92    1
   146    58    59    2
   147    78    79    2
   148    90    91    2
   149    90    89    1
   150    92    89    1
   151    89    88    1
