@<TRIPOS>MOLECULE
tmp/4qrtA00.pdb
 179 170 0 0 0
SMALL
GASTEIGER

@<TRIPOS>ATOM
      1  N         -9.1140  -13.6280   28.5830 N.3     7  TYR7       -0.1241
      2  CA        -8.5760  -12.2850   28.7570 C.3     7  TYR7        0.1605
      3  C         -7.5800  -12.0200   27.6360 C.2     7  TYR7        0.2264
      4  O         -6.7700  -12.8870   27.2730 O.2     7  TYR7       -0.2867
      5  CB        -7.9120  -12.1350   30.1210 C.3     7  TYR7        0.0534
      6  CG        -8.8920  -11.9560   31.2570 C.ar    7  TYR7       -0.0201
      7  CD1       -9.4810  -13.0480   31.8640 C.ar    7  TYR7       -0.0009
      8  CD2       -9.2420  -10.6900   31.7110 C.ar    7  TYR7       -0.0009
      9  CE1      -10.3790  -12.8880   32.9030 C.ar    7  TYR7        0.0417
     10  CE2      -10.1500  -10.5160   32.7540 C.ar    7  TYR7        0.0417
     11  CZ       -10.7060  -11.6210   33.3450 C.ar    7  TYR7        0.1957
     12  OH       -11.6100  -11.4930   34.3870 O.3     7  TYR7       -0.2866
     13  N         -4.7130   -9.3270   26.8060 N.3     9  ASP9       -0.1239
     14  CA        -3.8450   -8.3390   27.4420 C.3     9  ASP9        0.1674
     15  C         -2.8680   -7.7430   26.4390 C.2     9  ASP9        0.2266
     16  O         -2.2600   -8.4670   25.6500 O.2     9  ASP9       -0.2867
     17  CB        -3.0350   -8.9650   28.5840 C.3     9  ASP9        0.1410
     18  CG        -3.8790   -9.3640   29.7790 C.2     9  ASP9        0.3668
     19  OD1       -5.1080   -9.2350   29.6930 O.co2   9  ASP9       -0.2456
     20  OD2       -3.2820   -9.7950   30.7920 O.co2   9  ASP9       -0.2456
     21  N         -0.8770   -0.5310   29.6710 N.3    22  PHE22      -0.1241
     22  CA        -1.3190   -1.9070   29.8380 C.3    22  PHE22       0.1605
     23  C         -2.8360   -1.9440   29.8910 C.2    22  PHE22       0.2264
     24  O         -3.4560   -1.2150   30.6770 O.2    22  PHE22      -0.2867
     25  CB        -0.7390   -2.5170   31.1040 C.3    22  PHE22       0.0534
     26  CG        -1.0360   -3.9900   31.2460 C.ar   22  PHE22      -0.0203
     27  CD1       -0.6240   -4.8810   30.2630 C.ar   22  PHE22      -0.0042
     28  CD2       -1.7320   -4.4830   32.3390 C.ar   22  PHE22      -0.0042
     29  CE1       -0.8890   -6.2460   30.3700 C.ar   22  PHE22      -0.0003
     30  CE2       -1.9990   -5.8580   32.4460 C.ar   22  PHE22      -0.0003
     31  CZ        -1.5720   -6.7270   31.4580 C.ar   22  PHE22      -0.0000
     32  N        -10.1360   -6.8640   44.6210 N.3    62  ARG62      -0.1231
     33  CA        -9.2040   -7.9570   44.3850 C.3    62  ARG62       0.1694
     34  C         -8.7040   -7.9160   42.9390 C.2    62  ARG62       0.2592
     35  O         -7.5040   -8.0160   42.6890 O.2    62  ARG62      -0.2718
     36  CB        -9.8580   -9.3080   44.6790 C.3    62  ARG62       0.0321
     37  CG        -8.9580  -10.5040   44.4370 C.3    62  ARG62       0.0489
     38  CD        -9.6610  -11.8240   44.7610 C.3    62  ARG62       0.2205
     39  NE       -10.7710  -12.0930   43.8490 N.pl3  62  ARG62      -0.0865
     40  CZ       -12.0580  -11.9460   44.1560 C.cat  62  ARG62       0.5346
     41  NH1      -12.4250  -11.5220   45.3610 N.pl3  62  ARG62       0.1354
     42  NH2      -12.9840  -12.2090   43.2450 N.pl3  62  ARG62       0.1354
     43  N         -9.6270   -7.7720   41.9930 N.am   63  ASN63      -0.1974
     44  CA        -9.2360   -7.7630   40.5860 C.3    63  ASN63       0.1688
     45  C         -8.4060   -6.5320   40.2170 C.2    63  ASN63       0.2292
     46  O         -7.4350   -6.6360   39.4610 O.2    63  ASN63      -0.2864
     47  CB       -10.4560   -7.9520   39.6850 C.3    63  ASN63       0.1181
     48  CG       -10.8200   -9.4140   39.5210 C.2    63  ASN63       0.2629
     49  OD1      -10.3510  -10.0720   38.5980 O.2    63  ASN63      -0.2716
     50  ND2      -11.6230   -9.9440   40.4340 N.am   63  ASN63      -0.0877
     51  N         -6.3330   -4.9970   42.1970 N.3    65  GLN65      -0.1231
     52  CA        -4.9880   -5.2510   42.6970 C.3    65  GLN65       0.1698
     53  C         -4.2260   -6.2430   41.8190 C.2    65  GLN65       0.2592
     54  O         -3.0290   -6.0680   41.5720 O.2    65  GLN65      -0.2718
     55  CB        -5.0100   -5.6890   44.1660 C.3    65  GLN65       0.0381
     56  CG        -5.3430   -4.5500   45.1190 C.3    65  GLN65       0.0905
     57  CD        -4.4540   -3.3320   44.8980 C.2    65  GLN65       0.2608
     58  OE1       -3.2340   -3.4000   45.0630 O.2    65  GLN65      -0.2717
     59  NE2       -5.0630   -2.2140   44.5090 N.am   65  GLN65      -0.0878
     60  N         -4.9080   -7.2740   41.3350 N.am   66  ILE66      -0.1980
     61  CA        -4.2470   -8.2150   40.4270 C.3    66  ILE66       0.1595
     62  C         -3.8210   -7.4780   39.1580 C.2    66  ILE66       0.2287
     63  O         -2.6850   -7.6400   38.6970 O.2    66  ILE66      -0.2864
     64  CB        -5.1350   -9.4230   40.0670 C.3    66  ILE66       0.0276
     65  CG1       -5.4670  -10.2280   41.3270 C.3    66  ILE66       0.0022
     66  CG2       -4.4540  -10.2880   39.0060 C.3    66  ILE66       0.0022
     67  CD1       -6.5740  -11.2610   41.1220 C.3    66  ILE66       0.0001
     68  N         -0.6650   -5.3950   39.7360 N.3    69  THR69      -0.1203
     69  CA         0.5160   -6.2460   39.7570 C.3    69  THR69       0.1994
     70  C          0.8550   -6.7380   38.3440 C.2    69  THR69       0.2617
     71  O          2.0240   -6.7320   37.9450 O.2    69  THR69      -0.2717
     72  CB         0.3490   -7.4460   40.7000 C.3    69  THR69       0.1784
     73  OG1        0.0570   -6.9690   42.0180 O.3    69  THR69      -0.2211
     74  CG2        1.6240   -8.2800   40.7420 C.3    69  THR69       0.0376
     75  N         -0.1610   -7.1460   37.5850 N.am   70  ASN70      -0.1974
     76  CA         0.0590   -7.5980   36.2110 C.3    70  ASN70       0.1688
     77  C          0.6920   -6.5050   35.3540 C.2    70  ASN70       0.2292
     78  O          1.5140   -6.7780   34.4800 O.2    70  ASN70      -0.2864
     79  CB        -1.2540   -8.0640   35.5680 C.3    70  ASN70       0.1181
     80  CG        -1.7430   -9.4010   36.1120 C.2    70  ASN70       0.2629
     81  OD1       -1.1590   -9.9630   37.0420 O.2    70  ASN70      -0.2716
     82  ND2       -2.8340   -9.9110   35.5310 N.am   70  ASN70      -0.0877
     83  N          4.3450   -6.4820   36.1780 N.3    73  THR73      -0.1203
     84  CA         5.0420   -7.6570   35.6840 C.3    73  THR73       0.1994
     85  C          5.2490   -7.5590   34.1870 C.2    73  THR73       0.2617
     86  O          6.3570   -7.7930   33.7070 O.2    73  THR73      -0.2717
     87  CB         4.2970   -8.9330   36.0520 C.3    73  THR73       0.1784
     88  OG1        4.1650   -8.9820   37.4750 O.3    73  THR73      -0.2211
     89  CG2        5.0840  -10.1480   35.5980 C.3    73  THR73       0.0376
     90  N          4.2090   -7.2070   33.4400 N.am   74  ASP74      -0.1973
     91  CA         4.3520   -7.0990   31.9900 C.3    74  ASP74       0.1709
     92  C          5.2840   -5.9600   31.5630 C.2    74  ASP74       0.2293
     93  O          5.9610   -6.0710   30.5440 O.2    74  ASP74      -0.2864
     94  CB         2.9860   -7.0280   31.2870 C.3    74  ASP74       0.1436
     95  CG         2.3900   -8.4180   31.0110 C.2    74  ASP74       0.3671
     96  OD1        2.9690   -9.4360   31.4480 O.co2  74  ASP74      -0.2456
     97  OD2        1.3220   -8.5020   30.3520 O.co2  74  ASP74      -0.2456
     98  N         -0.9240  -11.0860   25.4820 N.3    97  SER97      -0.1217
     99  CA        -1.2150  -12.4260   25.9390 C.3    97  SER97       0.1889
    100  C         -2.6960  -12.6990   25.9130 C.2    97  SER97       0.2288
    101  O         -3.5220  -11.7800   25.9460 O.2    97  SER97      -0.2866
    102  CB        -0.6210  -12.6950   27.3060 C.3    97  SER97       0.2089
    103  OG        -0.9810  -11.6840   28.2120 O.3    97  SER97      -0.2183
    104  N         -5.3570  -15.6510   27.6940 N.3    99  TYR99      -0.1241
    105  CA        -5.4680  -16.7870   28.5950 C.3    99  TYR99       0.1605
    106  C         -6.8990  -17.0210   29.0040 C.2    99  TYR99       0.2264
    107  O         -7.7310  -16.1100   28.9580 O.2    99  TYR99      -0.2867
    108  CB        -4.5830  -16.5750   29.8210 C.3    99  TYR99       0.0534
    109  CG        -4.9650  -15.4270   30.7360 C.ar   99  TYR99      -0.0201
    110  CD1       -5.9340  -15.5810   31.7230 C.ar   99  TYR99      -0.0009
    111  CD2       -4.3160  -14.2050   30.6470 C.ar   99  TYR99      -0.0009
    112  CE1       -6.2600  -14.5430   32.5840 C.ar   99  TYR99       0.0417
    113  CE2       -4.6450  -13.1410   31.5100 C.ar   99  TYR99       0.0417
    114  CZ        -5.6120  -13.3310   32.4750 C.ar   99  TYR99       0.1957
    115  OH        -5.9210  -12.2960   33.3470 O.3    99  TYR99      -0.2866
    116  N         -2.8490  -20.3260   27.7420 N.3   114  ASN114     -0.1240
    117  CA        -2.0590  -19.2220   28.2600 C.3   114  ASN114      0.1653
    118  C         -0.8900  -18.9660   27.3300 C.2   114  ASN114      0.2266
    119  O          0.1110  -19.6940   27.3900 O.2   114  ASN114     -0.2867
    120  CB        -1.5360  -19.5350   29.6630 C.3   114  ASN114      0.1155
    121  CG        -0.6290  -18.4430   30.1920 C.2   114  ASN114      0.2627
    122  OD1       -0.7090  -17.2940   29.7550 O.2   114  ASN114     -0.2716
    123  ND2        0.2520  -18.7980   31.1210 N.am  114  ASN114     -0.0877
    124  N          1.5290  -16.0630   24.6980 N.3   116  TYR116     -0.1241
    125  CA         2.0650  -14.7150   24.5150 C.3   116  TYR116      0.1605
    126  C          2.5540  -14.5010   23.0920 C.2   116  TYR116      0.2264
    127  O          2.9130  -15.4490   22.3820 O.2   116  TYR116     -0.2867
    128  CB         3.2590  -14.4690   25.4470 C.3   116  TYR116      0.0534
    129  CG         2.9320  -13.8970   26.8100 C.ar  116  TYR116     -0.0201
    130  CD1        2.9680  -12.5270   27.0420 C.ar  116  TYR116     -0.0009
    131  CD2        2.6130  -14.7320   27.8710 C.ar  116  TYR116     -0.0009
    132  CE1        2.6840  -12.0020   28.2940 C.ar  116  TYR116      0.0417
    133  CE2        2.3220  -14.2170   29.1230 C.ar  116  TYR116      0.0417
    134  CZ         2.3580  -12.8490   29.3290 C.ar  116  TYR116      0.1957
    135  OH         2.0740  -12.3340   30.5790 O.3   116  TYR116     -0.2866
    136  N          1.1550  -22.8960   38.6780 N.3   155  GLN155     -0.1231
    137  CA         0.2310  -21.8370   39.0900 C.3   155  GLN155      0.1698
    138  C         -0.8160  -21.5990   38.0050 C.2   155  GLN155      0.2592
    139  O         -2.0100  -21.5090   38.2890 O.2   155  GLN155     -0.2718
    140  CB         0.9770  -20.5340   39.4050 C.3   155  GLN155      0.0381
    141  CG         1.9540  -20.6310   40.5710 C.3   155  GLN155      0.0905
    142  CD         1.2810  -21.0850   41.8430 C.2   155  GLN155      0.2608
    143  OE1        0.4150  -20.3930   42.3840 O.2   155  GLN155     -0.2717
    144  NE2        1.6610  -22.2600   42.3240 N.am  155  GLN155     -0.0878
    145  N         -0.3720  -21.5420   36.7520 N.am  156  ASP156     -0.1974
    146  CA        -1.2990  -21.3450   35.6480 C.3   156  ASP156      0.1709
    147  C         -2.2650  -22.5140   35.5330 C.2   156  ASP156      0.2293
    148  O         -3.4460  -22.3090   35.2870 O.2   156  ASP156     -0.2864
    149  CB        -0.5610  -21.1420   34.3290 C.3   156  ASP156      0.1436
    150  CG         0.1430  -19.8000   34.2410 C.2   156  ASP156      0.3671
    151  OD1       -0.1540  -18.8760   35.0320 O.co2 156  ASP156     -0.2456
    152  OD2        0.9770  -19.6640   33.3230 O.co2 156  ASP156     -0.2456
    153  N         -4.9600  -22.0880   38.1040 N.3   159  TYR159     -0.1227
    154  CA        -5.9090  -21.0710   37.6510 C.3   159  TYR159      0.1736
    155  C         -6.8320  -21.6130   36.5650 C.2   159  TYR159      0.2595
    156  O         -8.0600  -21.4610   36.6330 O.2   159  TYR159     -0.2718
    157  CB        -5.1780  -19.8150   37.1510 C.3   159  TYR159      0.0548
    158  CG        -6.0980  -18.8520   36.4410 C.ar  159  TYR159     -0.0200
    159  CD1       -6.8320  -17.9040   37.1540 C.ar  159  TYR159     -0.0009
    160  CD2       -6.2600  -18.9030   35.0550 C.ar  159  TYR159     -0.0009
    161  CE1       -7.7070  -17.0190   36.5050 C.ar  159  TYR159      0.0417
    162  CE2       -7.1360  -18.0300   34.4030 C.ar  159  TYR159      0.0417
    163  CZ        -7.8440  -17.0880   35.1370 C.ar  159  TYR159      0.1957
    164  OH        -8.7000  -16.2370   34.4820 O.3   159  TYR159     -0.2866
    165  N         -6.2640  -22.2580   35.5580 N.am  160  LEU160     -0.1980
    166  CA        -7.0540  -22.6510   34.3960 C.3   160  LEU160      0.1596
    167  C         -8.0670  -23.7490   34.7300 C.2   160  LEU160      0.2287
    168  O         -9.1890  -23.7420   34.2130 O.2   160  LEU160     -0.2864
    169  CB        -6.1590  -23.0530   33.2240 C.3   160  LEU160      0.0297
    170  CG        -5.3100  -21.9040   32.6880 C.3   160  LEU160      0.0022
    171  CD1       -4.2070  -22.4030   31.7820 C.3   160  LEU160      0.0001
    172  CD2       -6.1900  -20.8860   31.9500 C.3   160  LEU160      0.0001
    173  N         -9.8760  -21.7860   39.2550 N.3   163  THR163     -0.1218
    174  CA       -10.3950  -20.4240   39.2260 C.3   163  THR163      0.1862
    175  C        -11.1740  -20.0870   37.9550 C.2   163  THR163      0.2287
    176  O        -12.3000  -19.5810   38.0180 O.2   163  THR163     -0.2866
    177  CB        -9.2300  -19.4260   39.3790 C.3   163  THR163      0.1770
    178  OG1       -8.4380  -19.8040   40.5170 O.3   163  THR163     -0.2211
    179  CG2       -9.7400  -17.9990   39.5380 C.3   163  THR163      0.0375
@<TRIPOS>BOND
     1   127   126    2
     2   126   125    1
     3   125   124    1
     4   125   128    1
     5   128   129    1
     6    98    99    1
     7    16    15    2
     8   100    99    1
     9   100   101    2
    10    99   102    1
    11    15    14    1
    12    13    14    1
    13   129   130   ar
    14   129   131   ar
    15   130   132   ar
    16     4     3    2
    17   102   103    1
    18   118   119    2
    19   118   117    1
    20    14    17    1
    21     3     2    1
    22   104   105    1
    23   116   117    1
    24   131   133   ar
    25   117   120    1
    26   132   134   ar
    27     1     2    1
    28    17    18    1
    29   105   106    1
    30   105   108    1
    31     2     5    1
    32   107   106    2
    33   133   134   ar
    34   134   135    1
    35   120   121    1
    36    21    22    1
    37    19    18   ar
    38   122   121    2
    39    18    20   ar
    40   108   109    1
    41    22    23    1
    42    22    25    1
    43    23    24    2
    44     5     6    1
    45   121   123   am
    46    27    29   ar
    47    27    26   ar
    48    97    95   ar
    49    29    31   ar
    50    93    92    2
    51   111   109   ar
    52   111   113   ar
    53   109   110   ar
    54    95    94    1
    55    95    96   ar
    56    25    26    1
    57    26    28   ar
    58     6     8   ar
    59     6     7   ar
    60    94    91    1
    61    31    30   ar
    62   113   114   ar
    63    92    91    1
    64     8    10   ar
    65   110   112   ar
    66   171   170    1
    67     7     9   ar
    68   172   170    1
    69    91    90    1
    70    28    30   ar
    71   114   112   ar
    72   114   115    1
    73   170   169    1
    74    10    11   ar
    75     9    11   ar
    76   169   166    1
    77   152   150   ar
    78    11    12    1
    79    90    85   am
    80    86    85    2
    81    85    84    1
    82   168   167    2
    83   150   149    1
    84   150   151   ar
    85   149   146    1
    86   166   167    1
    87   166   165    1
    88   162   160   ar
    89   162   163   ar
    90    78    77    2
    91   164   163    1
    92   160   158   ar
    93   163   161   ar
    94   148   147    2
    95    77    76    1
    96    82    80   am
    97   147   146    1
    98   165   155   am
    99    79    80    1
   100    79    76    1
   101    89    87    1
   102   146   145    1
   103    84    87    1
   104    84    83    1
   105    87    88    1
   106    80    81    2
   107    76    75    1
   108   158   157    1
   109   158   159   ar
   110   161   159   ar
   111   155   156    2
   112   155   154    1
   113   145   138   am
   114   157   154    1
   115    75    70   am
   116   154   153    1
   117    71    70    2
   118   175   176    2
   119   175   174    1
   120   138   139    2
   121   138   137    1
   122    70    69    1
   123    49    48    2
   124   136   137    1
   125    63    62    2
   126    66    64    1
   127   137   140    1
   128    62    61    1
   129   174   173    1
   130   174   177    1
   131   177   179    1
   132   177   178    1
   133   140   141    1
   134    46    45    2
   135    48    47    1
   136    48    50   am
   137    47    44    1
   138    68    69    1
   139    69    72    1
   140    64    61    1
   141    64    65    1
   142    45    44    1
   143    61    60    1
   144   141   142    1
   145    44    43    1
   146    72    74    1
   147    72    73    1
   148    67    65    1
   149    60    53   am
   150    54    53    2
   151    53    52    1
   152   142   144   am
   153   142   143    2
   154    43    34   am
   155    51    52    1
   156    35    34    2
   157    52    55    1
   158    34    33    1
   159    42    40    1
   160    39    40    2
   161    39    38    1
   162    40    41    1
   163    55    56    1
   164    33    32    1
   165    33    36    1
   166    37    36    1
   167    37    38    1
   168    59    57   am
   169    57    58    2
   170    57    56    1
