@<TRIPOS>MOLECULE
tmp/4qryA07.pdb
 120 109 0 0 0
SMALL
GASTEIGER

@<TRIPOS>ATOM
      1  N         26.5700   21.2350   33.4490 N.3    47  ARG47      -0.1245
      2  CA        27.7420   20.6780   32.7830 C.3    47  ARG47       0.1563
      3  C         28.5480   19.8530   33.7870 C.2    47  ARG47       0.2260
      4  O         29.2180   18.8870   33.4190 O.2    47  ARG47      -0.2867
      5  CB        28.6150   21.7820   32.1790 C.3    47  ARG47       0.0307
      6  CG        29.8090   21.2480   31.3820 C.3    47  ARG47       0.0489
      7  CD        30.5230   22.3570   30.6030 C.3    47  ARG47       0.2205
      8  NE        31.4810   21.8310   29.6340 N.pl3  47  ARG47      -0.0865
      9  CZ        32.7300   21.4740   29.9170 C.cat  47  ARG47       0.5346
     10  NH1       33.2040   21.5840   31.1550 N.pl3  47  ARG47       0.1354
     11  NH2       33.5070   20.9960   28.9540 N.pl3  47  ARG47       0.1354
     12  N         26.6160   16.5680   34.1120 N.3    50  LEU50      -0.1245
     13  CA        26.6680   15.7140   32.9290 C.3    50  LEU50       0.1561
     14  C         27.9240   14.8540   33.0660 C.2    50  LEU50       0.2260
     15  O         27.9390   13.6880   32.6810 O.2    50  LEU50      -0.2867
     16  CB        26.7580   16.5630   31.6560 C.3    50  LEU50       0.0270
     17  CG        26.2320   16.0000   30.3300 C.3    50  LEU50       0.0019
     18  CD1       27.0720   16.5640   29.1720 C.3    50  LEU50       0.0001
     19  CD2       26.2630   14.4840   30.3170 C.3    50  LEU50       0.0001
     20  N         27.5960    6.1150   35.1540 N.3    57  LEU57      -0.1245
     21  CA        27.1200    5.0770   34.2340 C.3    57  LEU57       0.1561
     22  C         28.1710    3.9720   34.0200 C.2    57  LEU57       0.2260
     23  O         27.8280    2.8360   33.7050 O.2    57  LEU57      -0.2867
     24  CB        26.7320    5.7040   32.8810 C.3    57  LEU57       0.0270
     25  CG        25.2900    6.2140   32.7480 C.3    57  LEU57       0.0019
     26  CD1       25.1550    7.1970   31.5840 C.3    57  LEU57       0.0001
     27  CD2       24.3560    5.0230   32.5540 C.3    57  LEU57       0.0001
     28  N         31.8440   -1.6520   24.8650 N.3   112  ALA112     -0.1231
     29  CA        31.3580   -0.7480   23.8280 C.3   112  ALA112      0.1694
     30  C         30.3190    0.2120   24.3960 C.2   112  ALA112      0.2591
     31  O         29.9910    1.2290   23.7800 O.2   112  ALA112     -0.2718
     32  CB        30.7500   -1.5590   22.6730 C.3   112  ALA112      0.0304
     33  N         29.8170   -0.1120   25.5830 N.am  113  LEU113     -0.1980
     34  CA        28.7840    0.6950   26.2220 C.3   113  LEU113      0.1596
     35  C         29.2650    1.5460   27.3870 C.2   113  LEU113      0.2287
     36  O         28.6580    2.5710   27.7020 O.2   113  LEU113     -0.2864
     37  CB        27.6550   -0.2150   26.7010 C.3   113  LEU113      0.0297
     38  CG        27.0380   -1.1550   25.6670 C.3   113  LEU113      0.0022
     39  CD1       26.1050   -2.1180   26.3780 C.3   113  LEU113      0.0001
     40  CD2       26.2790   -0.3560   24.6050 C.3   113  LEU113      0.0001
     41  N         32.6350    4.5280   26.1880 N.3   116  PRO116     -0.2102
     42  CA        32.3300    5.8200   25.5600 C.3   116  PRO116      0.1504
     43  C         32.0190    6.8440   26.6590 C.2   116  PRO116      0.2575
     44  O         32.3760    8.0180   26.5520 O.2   116  PRO116     -0.2718
     45  CB        31.0920    5.5170   24.7120 C.3   116  PRO116      0.0282
     46  CG        31.2600    4.0870   24.3640 C.3   116  PRO116      0.0208
     47  CD        31.7640    3.4660   25.6500 C.3   116  PRO116      0.0893
     48  N         31.3570    6.3760   27.7170 N.am  117  MET117     -0.1980
     49  CA        30.9760    7.2400   28.8280 C.3   117  MET117      0.1605
     50  C         32.2100    7.7970   29.5240 C.2   117  MET117      0.2287
     51  O         32.2430    8.9650   29.9260 O.2   117  MET117     -0.2864
     52  CB        30.1050    6.4680   29.8240 C.3   117  MET117      0.0413
     53  CG        28.8670    5.8180   29.1900 C.3   117  MET117      0.0598
     54  SD        27.5720    6.9750   28.6370 S.3   117  MET117     -0.1393
     55  CE        28.2480    7.5400   27.0860 C.3   117  MET117      0.0692
     56  N         33.4690   10.4070   27.2760 N.3   120  LEU120     -0.1245
     57  CA        32.6440   11.6140   27.2940 C.3   120  LEU120      0.1561
     58  C         32.9640   12.4900   28.5140 C.2   120  LEU120      0.2260
     59  O         32.9680   13.7250   28.4290 O.2   120  LEU120     -0.2867
     60  CB        31.1620   11.2280   27.3200 C.3   120  LEU120      0.0270
     61  CG        30.0650   12.2350   26.9280 C.3   120  LEU120      0.0019
     62  CD1       29.0810   12.3390   28.0610 C.3   120  LEU120      0.0001
     63  CD2       30.6460   13.6000   26.5510 C.3   120  LEU120      0.0001
     64  N         34.8460   16.1890   28.2220 N.3   124  LEU124     -0.1245
     65  CA        34.2050   17.3460   28.8300 C.3   124  LEU124      0.1561
     66  C         35.0990   17.9750   29.8920 C.2   124  LEU124      0.2260
     67  O         35.1520   19.1980   30.0020 O.2   124  LEU124     -0.2867
     68  CB        32.8640   16.9470   29.4440 C.3   124  LEU124      0.0270
     69  CG        31.7850   16.5510   28.4160 C.3   124  LEU124      0.0019
     70  CD1       30.5730   15.9400   29.1260 C.3   124  LEU124      0.0001
     71  CD2       31.3770   17.7810   27.6160 C.3   124  LEU124      0.0001
     72  N         36.6730   19.6920   25.5000 N.3   128  SER128     -0.1202
     73  CA        36.7510   19.3100   24.0920 C.3   128  SER128      0.2020
     74  C         35.5670   19.7710   23.2520 C.2   128  SER128      0.2619
     75  O         34.4460   19.8700   23.7550 O.2   128  SER128     -0.2717
     76  CB        36.8540   17.7870   23.9940 C.3   128  SER128      0.2103
     77  OG        36.5030   17.3210   22.7060 O.3   128  SER128     -0.2182
     78  N         35.8090   20.0600   21.9740 N.am  129  ASN129     -0.1960
     79  CA        34.7110   20.4570   21.0980 C.3   129  ASN129      0.1819
     80  C         34.0030   19.1840   20.6150 C.2   129  ASN129      0.2621
     81  O         34.5220   18.0780   20.7720 O.2   129  ASN129     -0.2715
     82  CB        35.2050   21.2970   19.9020 C.3   129  ASN129      0.1195
     83  CG        36.0930   20.5170   18.9470 C.2   129  ASN129      0.2630
     84  OD1       35.9840   19.2950   18.8330 O.2   129  ASN129     -0.2716
     85  ND2       36.9660   21.2300   18.2330 N.am  129  ASN129     -0.0877
     86  N         32.8190   19.3500   20.0370 N.am  130  ALA130     -0.1977
     87  CA        32.0070   18.2350   19.5500 C.3   130  ALA130      0.1597
     88  C         32.7070   17.2670   18.5910 C.2   130  ALA130      0.2287
     89  O         32.4890   16.0560   18.6560 O.2   130  ALA130     -0.2864
     90  CB        30.7500   18.7790   18.8910 C.3   130  ALA130      0.0319
     91  N         35.2290   14.8140   20.2750 N.3   133  LEU133     -0.1245
     92  CA        34.4270   13.9760   21.1620 C.3   133  LEU133      0.1561
     93  C         33.6870   12.9040   20.3370 C.2   133  LEU133      0.2260
     94  O         33.5020   11.7650   20.7790 O.2   133  LEU133     -0.2867
     95  CB        33.4320   14.8690   21.9130 C.3   133  LEU133      0.0270
     96  CG        33.0920   14.6960   23.4010 C.3   133  LEU133      0.0019
     97  CD1       34.2430   14.1140   24.1820 C.3   133  LEU133      0.0001
     98  CD2       32.6850   16.0650   23.9630 C.3   133  LEU133      0.0001
     99  N         34.7950    8.8870   20.5120 N.3   137  ILE137     -0.1245
    100  CA        33.7270    7.9400   20.7850 C.3   137  ILE137      0.1561
    101  C         33.4040    6.9560   19.6530 C.2   137  ILE137      0.2260
    102  O         33.3240    5.7490   19.8930 O.2   137  ILE137     -0.2867
    103  CB        32.4530    8.6940   21.1920 C.3   137  ILE137      0.0252
    104  CG1       32.6960    9.4200   22.5230 C.3   137  ILE137      0.0019
    105  CG2       31.2820    7.7300   21.3150 C.3   137  ILE137      0.0019
    106  CD1       31.5390   10.2940   22.9730 C.3   137  ILE137      0.0001
    107  N         33.9760    2.7660   20.0150 N.3   141  ILE141     -0.1245
    108  CA        32.9520    1.7480   19.8080 C.3   141  ILE141      0.1561
    109  C         33.4500    0.7390   18.7610 C.2   141  ILE141      0.2260
    110  O         33.4170   -0.4720   18.9940 O.2   141  ILE141     -0.2867
    111  CB        31.6220    2.4050   19.3720 C.3   141  ILE141      0.0252
    112  CG1       31.1240    3.3180   20.5080 C.3   141  ILE141      0.0019
    113  CG2       30.5630    1.3380   19.0710 C.3   141  ILE141      0.0019
    114  CD1       29.8720    4.1210   20.1620 C.3   141  ILE141      0.0001
    115  N         29.1270   25.8990   30.6460 N.3   261  SER261     -0.1217
    116  CA        27.7920   25.6750   30.1030 C.3   261  SER261      0.1889
    117  C         27.7190   24.3460   29.3460 C.2   261  SER261      0.2288
    118  O         28.0230   24.2790   28.1520 O.2   261  SER261     -0.2866
    119  CB        27.4170   26.8150   29.1530 C.3   261  SER261      0.2089
    120  OG        27.6250   28.0780   29.7640 O.3   261  SER261     -0.2183
@<TRIPOS>BOND
     1    85    83   am
     2    88    89    2
     3    88    87    1
     4   109   110    2
     5   109   108    1
     6    84    83    2
     7    90    87    1
     8    83    82    1
     9   113   111    1
    10   111   108    1
    11   111   112    1
    12    87    86    1
    13   101   102    2
    14   101   100    1
    15   108   107    1
    16    82    79    1
    17    86    80   am
    18   114   112    1
    19    91    92    1
    20    93    94    2
    21    93    92    1
    22    99   100    1
    23    80    81    2
    24    80    79    1
    25   100   103    1
    26    79    78    1
    27    92    95    1
    28   103   105    1
    29   103   104    1
    30    95    96    1
    31    78    74   am
    32   104   106    1
    33    32    29    1
    34    77    76    1
    35    74    75    2
    36    74    73    1
    37    96    98    1
    38    96    97    1
    39    31    30    2
    40    29    30    1
    41    29    28    1
    42    76    73    1
    43    73    72    1
    44    46    45    1
    45    46    47    1
    46    30    33   am
    47    40    38    1
    48    45    42    1
    49    42    41    1
    50    42    43    1
    51    33    34    1
    52    47    41    1
    53    38    39    1
    54    38    37    1
    55    34    37    1
    56    34    35    1
    57    63    61    1
    58    44    43    2
    59    43    48   am
    60    61    60    1
    61    61    62    1
    62    55    54    1
    63    56    57    1
    64    57    60    1
    65    57    58    1
    66    35    36    2
    67    71    69    1
    68    48    49    1
    69   118   117    2
    70    64    65    1
    71    69    70    1
    72    69    68    1
    73    59    58    2
    74    54    53    1
    75    49    50    1
    76    49    52    1
    77    65    68    1
    78    65    66    1
    79    11     9    1
    80   119   120    1
    81   119   116    1
    82    18    17    1
    83    53    52    1
    84   117   116    1
    85    50    51    2
    86     8     9    2
    87     8     7    1
    88    66    67    2
    89     9    10    1
    90   116   115    1
    91    19    17    1
    92    17    16    1
    93     7     6    1
    94     6     5    1
    95    26    25    1
    96    16    13    1
    97     5     2    1
    98    27    25    1
    99    15    14    2
   100    25    24    1
   101     2     1    1
   102     2     3    1
   103    24    21    1
   104    13    14    1
   105    13    12    1
   106     4     3    2
   107    23    22    2
   108    22    21    1
   109    21    20    1
