@<TRIPOS>MOLECULE
tmp/4qryA06.pdb
 97 90 0 0 0
SMALL
GASTEIGER

@<TRIPOS>ATOM
      1  N         27.5960    6.1150   35.1540 N.3    57  LEU57      -0.1245
      2  CA        27.1200    5.0770   34.2340 C.3    57  LEU57       0.1561
      3  C         28.1710    3.9720   34.0200 C.2    57  LEU57       0.2260
      4  O         27.8280    2.8360   33.7050 O.2    57  LEU57      -0.2867
      5  CB        26.7320    5.7040   32.8810 C.3    57  LEU57       0.0270
      6  CG        25.2900    6.2140   32.7480 C.3    57  LEU57       0.0019
      7  CD1       25.1550    7.1970   31.5840 C.3    57  LEU57       0.0001
      8  CD2       24.3560    5.0230   32.5540 C.3    57  LEU57       0.0001
      9  N         27.6980    1.3420   36.4550 N.3    60  VAL60      -0.1231
     10  CA        26.3280    0.8650   36.2760 C.3    60  VAL60       0.1692
     11  C         26.3200   -0.1590   35.1420 C.2    60  VAL60       0.2591
     12  O         25.6870   -1.2120   35.2420 O.2    60  VAL60      -0.2718
     13  CB        25.3590    1.9980   35.9180 C.3    60  VAL60       0.0266
     14  CG1       24.0690    1.4120   35.3530 C.3    60  VAL60       0.0020
     15  CG2       25.0690    2.8320   37.1530 C.3    60  VAL60       0.0020
     16  N         27.0140    0.1550   34.0540 N.am   61  VAL61      -0.1980
     17  CA        27.0850   -0.7750   32.9300 C.3    61  VAL61       0.1595
     18  C         27.9220   -1.9820   33.3690 C.2    61  VAL61       0.2287
     19  O         27.6600   -3.1150   32.9660 O.2    61  VAL61      -0.2864
     20  CB        27.7520   -0.1230   31.6820 C.3    61  VAL61       0.0276
     21  CG1       27.9520   -1.1700   30.5860 C.3    61  VAL61       0.0022
     22  CG2       26.8820    1.0120   31.1590 C.3    61  VAL61       0.0022
     23  N         26.0370   -4.5990   35.3480 N.3    64  ALA64      -0.1231
     24  CA        25.1510   -5.3280   34.4450 C.3    64  ALA64       0.1694
     25  C         25.9800   -6.2930   33.5930 C.2    64  ALA64       0.2592
     26  O         25.5990   -7.4490   33.4040 O.2    64  ALA64      -0.2718
     27  CB        24.3790   -4.3440   33.5430 C.3    64  ALA64       0.0304
     28  N         27.1200   -5.8160   33.0930 N.am   65  SER65      -0.1952
     29  CA        28.0090   -6.6340   32.2690 C.3    65  SER65       0.1924
     30  C         28.4620   -7.9000   32.9890 C.2    65  SER65       0.2314
     31  O         28.4070   -8.9980   32.4340 O.2    65  SER65      -0.2863
     32  CB        29.2480   -5.8270   31.8570 C.3    65  SER65       0.2116
     33  OG        30.2210   -6.6470   31.2070 O.3    65  SER65      -0.2180
     34  N         25.8460  -10.4010   33.5080 N.3    68  GLY68      -0.1225
     35  CA        25.5770  -11.1090   32.2690 C.3    68  GLY68       0.1811
     36  C         26.5370  -12.2730   32.1320 C.2    68  GLY68       0.2280
     37  O         26.1600  -13.3590   31.6900 O.2    68  GLY68      -0.2866
     38  N         24.6190  -15.8190   30.6180 N.3    73  LEU73      -0.1231
     39  CA        23.9110  -15.1950   29.4970 C.3    73  LEU73       0.1693
     40  C         24.8580  -14.7140   28.3950 C.2    73  LEU73       0.2592
     41  O         24.5690  -14.8870   27.2050 O.2    73  LEU73      -0.2718
     42  CB        23.0670  -14.0050   29.9840 C.3    73  LEU73       0.0284
     43  CG        22.3120  -13.1870   28.9220 C.3    73  LEU73       0.0019
     44  CD1       21.2120  -14.0350   28.2890 C.3    73  LEU73       0.0001
     45  CD2       21.6990  -11.9440   29.5580 C.3    73  LEU73       0.0001
     46  N         25.9870  -14.1220   28.7850 N.am   74  THR74      -0.1953
     47  CA        26.9410  -13.6050   27.8090 C.3    74  THR74       0.1897
     48  C         28.2250  -14.4170   27.6890 C.2    74  THR74       0.2313
     49  O         29.2990  -13.8670   27.4340 O.2    74  THR74      -0.2863
     50  CB        27.3200  -12.1360   28.1160 C.3    74  THR74       0.1794
     51  OG1       27.8600  -12.0380   29.4430 O.3    74  THR74      -0.2208
     52  CG2       26.0900  -11.2320   28.0050 C.3    74  THR74       0.0378
     53  N         32.5740  -13.3810   25.8560 N.3   105  TRP105     -0.1241
     54  CA        32.4050  -12.2940   24.9040 C.3   105  TRP105      0.1605
     55  C         31.6200  -11.1440   25.5100 C.2   105  TRP105      0.2264
     56  O         31.6890  -10.0180   25.0230 O.2   105  TRP105     -0.2867
     57  CB        31.7350  -12.8000   23.6120 C.3   105  TRP105      0.0550
     58  CG        30.4270  -13.5010   23.8160 C.ar  105  TRP105      0.0003
     59  CD1       30.2100  -14.8560   23.8610 C.ar  105  TRP105      0.0946
     60  CD2       29.1470  -12.8860   23.9890 C.ar  105  TRP105      0.0152
     61  NE1       28.8750  -15.1160   24.0480 N.ar  105  TRP105     -0.2442
     62  CE2       28.2000  -13.9280   24.1300 C.ar  105  TRP105      0.0810
     63  CE3       28.7090  -11.5570   24.0400 C.ar  105  TRP105      0.0012
     64  CZ2       26.8380  -13.6790   24.3110 C.ar  105  TRP105      0.0191
     65  CZ3       27.3590  -11.3080   24.2210 C.ar  105  TRP105      0.0001
     66  CH2       26.4360  -12.3680   24.3550 C.ar  105  TRP105      0.0015
     67  N         31.0320   -6.7950   24.5050 N.3   109  LEU109     -0.1231
     68  CA        29.7170   -6.2250   24.2720 C.3   109  LEU109      0.1693
     69  C         29.4620   -5.0110   25.1540 C.2   109  LEU109      0.2592
     70  O         28.9120   -4.0040   24.6970 O.2   109  LEU109     -0.2718
     71  CB        28.6360   -7.2760   24.5210 C.3   109  LEU109      0.0284
     72  CG        27.2040   -6.7940   24.3060 C.3   109  LEU109      0.0019
     73  CD1       26.9910   -6.4530   22.8360 C.3   109  LEU109      0.0001
     74  CD2       26.2380   -7.8690   24.7450 C.3   109  LEU109      0.0001
     75  N         29.8640   -5.0930   26.4170 N.am  110  THR110     -0.1953
     76  CA        29.6420   -3.9770   27.3220 C.3   110  THR110      0.1897
     77  C         30.7380   -2.9230   27.3260 C.2   110  THR110      0.2313
     78  O         30.4810   -1.7760   27.6980 O.2   110  THR110     -0.2863
     79  CB        29.4140   -4.4590   28.7660 C.3   110  THR110      0.1794
     80  OG1       30.5800   -5.1460   29.2400 O.3   110  THR110     -0.2208
     81  CG2       28.1970   -5.3770   28.8270 C.3   110  THR110      0.0378
     82  N         29.8170   -0.1120   25.5830 N.3   113  LEU113     -0.1245
     83  CA        28.7840    0.6950   26.2220 C.3   113  LEU113      0.1561
     84  C         29.2650    1.5460   27.3870 C.2   113  LEU113      0.2260
     85  O         28.6580    2.5710   27.7020 O.2   113  LEU113     -0.2867
     86  CB        27.6550   -0.2150   26.7010 C.3   113  LEU113      0.0270
     87  CG        27.0380   -1.1550   25.6670 C.3   113  LEU113      0.0019
     88  CD1       26.1050   -2.1180   26.3780 C.3   113  LEU113      0.0001
     89  CD2       26.2790   -0.3560   24.6050 C.3   113  LEU113      0.0001
     90  N         31.3570    6.3760   27.7170 N.3   117  MET117     -0.1245
     91  CA        30.9760    7.2400   28.8280 C.3   117  MET117      0.1570
     92  C         32.2100    7.7970   29.5240 C.2   117  MET117      0.2261
     93  O         32.2430    8.9650   29.9260 O.2   117  MET117     -0.2867
     94  CB        30.1050    6.4680   29.8240 C.3   117  MET117      0.0387
     95  CG        28.8670    5.8180   29.1900 C.3   117  MET117      0.0595
     96  SD        27.5720    6.9750   28.6370 S.3   117  MET117     -0.1393
     97  CE        28.2480    7.5400   27.0860 C.3   117  MET117      0.0692
@<TRIPOS>BOND
     1    73    72    1
     2    57    58    1
     3    57    54    1
     4    58    59   ar
     5    58    60   ar
     6    59    61   ar
     7    60    63   ar
     8    60    62   ar
     9    63    65   ar
    10    61    62   ar
    11    62    64   ar
    12    65    66   ar
    13    68    67    1
    14    68    71    1
    15    68    69    1
    16    72    71    1
    17    72    74    1
    18    64    66   ar
    19    89    87    1
    20    70    69    2
    21    54    55    1
    22    54    53    1
    23    56    55    2
    24    69    75   am
    25    82    83    1
    26    87    88    1
    27    87    86    1
    28    83    86    1
    29    83    84    1
    30    75    76    1
    31    97    96    1
    32    41    40    2
    33    76    77    1
    34    76    79    1
    35    77    78    2
    36    84    85    2
    37    49    48    2
    38    48    47    1
    39    90    91    1
    40    47    50    1
    41    47    46    1
    42    52    50    1
    43    50    51    1
    44    44    43    1
    45    40    46   am
    46    40    39    1
    47    96    95    1
    48    79    81    1
    49    79    80    1
    50    91    92    1
    51    91    94    1
    52    43    45    1
    53    43    42    1
    54    95    94    1
    55    39    42    1
    56    39    38    1
    57    92    93    2
    58    21    20    1
    59    22    20    1
    60    33    32    1
    61     7     6    1
    62    20    17    1
    63    37    36    2
    64    32    29    1
    65    36    35    1
    66    35    34    1
    67    29    30    1
    68    29    28    1
    69    31    30    2
    70     8     6    1
    71     6     5    1
    72     5     2    1
    73    17    18    1
    74    17    16    1
    75    19    18    2
    76    28    25   am
    77    26    25    2
    78    27    24    1
    79    25    24    1
    80     4     3    2
    81     3     2    1
    82    16    11   am
    83     2     1    1
    84    24    23    1
    85    11    12    2
    86    11    10    1
    87    14    13    1
    88    13    10    1
    89    13    15    1
    90    10     9    1
