@<TRIPOS>MOLECULE
tmp/4qryA00.pdb
 186 182 0 0 0
SMALL
GASTEIGER

@<TRIPOS>ATOM
      1  N         33.3030   -7.7000   25.8590 N.3   108  TYR108     -0.1241
      2  CA        33.4260   -6.8220   24.6970 C.3   108  TYR108      0.1605
      3  C         32.1370   -6.0660   24.4350 C.2   108  TYR108      0.2264
      4  O         32.1420   -4.8590   24.1700 O.2   108  TYR108     -0.2867
      5  CB        33.7770   -7.6450   23.4580 C.3   108  TYR108      0.0534
      6  CG        34.9850   -8.5270   23.6300 C.ar  108  TYR108     -0.0201
      7  CD1       36.2620   -8.0610   23.3380 C.ar  108  TYR108     -0.0009
      8  CD2       34.8500   -9.8320   24.0940 C.ar  108  TYR108     -0.0009
      9  CE1       37.3750   -8.8740   23.5040 C.ar  108  TYR108      0.0417
     10  CE2       35.9550  -10.6510   24.2630 C.ar  108  TYR108      0.0417
     11  CZ        37.2140  -10.1660   23.9670 C.ar  108  TYR108      0.1957
     12  OH        38.3200  -10.9630   24.1450 O.3   108  TYR108     -0.2866
     13  N         31.9580   -3.2830   26.9330 N.3   111  TRP111     -0.1241
     14  CA        33.0110   -2.2670   26.8890 C.3   111  TRP111      0.1605
     15  C         32.5590   -1.2090   25.8920 C.2   111  TRP111      0.2264
     16  O         32.8410   -0.0220   26.0490 O.2   111  TRP111     -0.2867
     17  CB        34.3530   -2.8450   26.4150 C.3   111  TRP111      0.0550
     18  CG        35.0490   -3.7270   27.4030 C.ar  111  TRP111      0.0003
     19  CD1       34.8080   -3.8150   28.7450 C.ar  111  TRP111      0.0946
     20  CD2       36.1160   -4.6430   27.1260 C.ar  111  TRP111      0.0152
     21  NE1       35.6600   -4.7320   29.3230 N.ar  111  TRP111     -0.2442
     22  CE2       36.4730   -5.2530   28.3530 C.ar  111  TRP111      0.0810
     23  CE3       36.8050   -5.0060   25.9630 C.ar  111  TRP111      0.0012
     24  CZ2       37.4890   -6.2090   28.4470 C.ar  111  TRP111      0.0191
     25  CZ3       37.8180   -5.9590   26.0570 C.ar  111  TRP111      0.0001
     26  CH2       38.1490   -6.5500   27.2950 C.ar  111  TRP111      0.0015
     27  N         30.3510    1.1320   28.0290 N.3   114  SER114     -0.1202
     28  CA        30.8510    1.8840   29.1700 C.3   114  SER114      0.2020
     29  C         32.0090    2.7990   28.8300 C.2   114  SER114      0.2619
     30  O         32.0810    3.9100   29.3430 O.2   114  SER114     -0.2717
     31  CB        31.2760    0.9280   30.2880 C.3   114  SER114      0.2103
     32  OG        32.5820    0.4340   30.0650 O.3   114  SER114     -0.2182
     33  N         32.9180    2.3290   27.9780 N.am  115  THR115     -0.1952
     34  CA        34.0860    3.1190   27.6020 C.3   115  THR115      0.1897
     35  C         33.7550    4.4540   26.9260 C.2   115  THR115      0.2313
     36  O         34.5040    5.4230   27.0590 O.2   115  THR115     -0.2863
     37  CB        35.0780    2.2920   26.7230 C.3   115  THR115      0.1794
     38  OG1       34.4260    1.7860   25.5490 O.3   115  THR115     -0.2208
     39  CG2       35.6290    1.1260   27.5300 C.3   115  THR115      0.0378
     40  N         33.2180    6.9480   29.6700 N.3   118  ILE118     -0.1245
     41  CA        34.4730    7.3300   30.2820 C.3   118  ILE118      0.1561
     42  C         35.0330    8.4370   29.3830 C.2   118  ILE118      0.2260
     43  O         35.4200    9.5110   29.8480 O.2   118  ILE118     -0.2867
     44  CB        35.4490    6.0920   30.3300 C.3   118  ILE118      0.0252
     45  CG1       34.8770    5.0150   31.2640 C.3   118  ILE118      0.0019
     46  CG2       36.8300    6.5270   30.7760 C.3   118  ILE118      0.0019
     47  CD1       35.3960    3.5490   31.0490 C.3   118  ILE118      0.0001
     48  N         36.4160    0.0000   17.9780 N.3   143  MET143     -0.1230
     49  CA        37.5010   -0.7650   18.5810 C.3   143  MET143      0.1702
     50  C         36.9130   -1.9190   19.3930 C.2   143  MET143      0.2592
     51  O         37.3980   -3.0500   19.3210 O.2   143  MET143     -0.2718
     52  CB        38.3360    0.1350   19.5020 C.3   143  MET143      0.0401
     53  CG        39.2790   -0.6250   20.4350 C.3   143  MET143      0.0596
     54  SD        40.0390    0.4740   21.6720 S.3   143  MET143     -0.1393
     55  CE        38.7790    0.4630   22.9060 C.3   143  MET143      0.0692
     56  N         35.8500   -1.6320   20.1450 N.am  144  CYS144     -0.1970
     57  CA        35.2110   -2.6410   20.9930 C.3   144  CYS144      0.1712
     58  C         34.3900   -3.6810   20.2320 C.2   144  CYS144      0.2296
     59  O         34.3170   -4.8390   20.6460 O.2   144  CYS144     -0.2864
     60  CB        34.3110   -1.9690   22.0490 C.3   144  CYS144      0.0983
     61  SG        35.1710   -0.8390   23.2320 S.3   144  CYS144     -0.0798
     62  N         36.6390   -6.0020   18.4120 N.3   147  GLY147     -0.1225
     63  CA        37.2430   -6.8460   19.4310 C.3   147  GLY147      0.1811
     64  C         36.2930   -8.0110   19.6830 C.2   147  GLY147      0.2280
     65  O         36.7020   -9.1730   19.7260 O.2   147  GLY147     -0.2866
     66  N         36.3410  -10.5270   16.7900 N.3   150  ALA150     -0.1245
     67  CA        37.5250  -11.3820   16.7710 C.3   150  ALA150      0.1562
     68  C         37.3330  -12.5620   17.7170 C.2   150  ALA150      0.2260
     69  O         37.6070  -13.7090   17.3620 O.2   150  ALA150     -0.2867
     70  CB        38.7500  -10.5870   17.1840 C.3   150  ALA150      0.0290
     71  N         41.6280   -8.1380   15.1180 N.3   164  TYR164     -0.1241
     72  CA        42.4490   -7.5870   16.1860 C.3   164  TYR164      0.1605
     73  C         43.2380   -6.3770   15.7000 C.2   164  TYR164      0.2264
     74  O         43.2720   -5.3430   16.3700 O.2   164  TYR164     -0.2867
     75  CB        43.3840   -8.6820   16.7200 C.3   164  TYR164      0.0534
     76  CG        44.3060   -8.2780   17.8500 C.ar  164  TYR164     -0.0201
     77  CD1       45.5620   -7.7310   17.5860 C.ar  164  TYR164     -0.0009
     78  CD2       43.9330   -8.4600   19.1820 C.ar  164  TYR164     -0.0009
     79  CE1       46.4300   -7.3770   18.6210 C.ar  164  TYR164      0.0417
     80  CE2       44.7910   -8.1050   20.2300 C.ar  164  TYR164      0.0417
     81  CZ        46.0380   -7.5650   19.9440 C.ar  164  TYR164      0.1957
     82  OH        46.9020   -7.2050   20.9700 O.3   164  TYR164     -0.2866
     83  N         41.1100   -3.4050   15.1900 N.3   167  SER167     -0.1202
     84  CA        40.8030   -2.8530   16.5040 C.3   167  SER167      0.2020
     85  C         41.9460   -1.9770   17.0460 C.2   167  SER167      0.2619
     86  O         41.7060   -0.9140   17.6170 O.2   167  SER167     -0.2717
     87  CB        40.4980   -3.9970   17.4800 C.3   167  SER167      0.2103
     88  OG        40.0610   -3.5110   18.7400 O.3   167  SER167     -0.2182
     89  N         43.1840   -2.4250   16.8730 N.am  168  CYS168     -0.1969
     90  CA        44.3250   -1.6530   17.3390 C.3   168  CYS168      0.1712
     91  C         44.3790   -0.3090   16.6270 C.2   168  CYS168      0.2296
     92  O         44.5890    0.7250   17.2570 O.2   168  CYS168     -0.2864
     93  CB        45.6320   -2.4240   17.1200 C.3   168  CYS168      0.0983
     94  SG        45.8120   -3.8430   18.2320 S.3   168  CYS168     -0.0798
     95  N         42.1160    1.9010   18.1300 N.3   171  PHE171     -0.1241
     96  CA        42.6100    2.2020   19.4670 C.3   171  PHE171      0.1605
     97  C         43.5470    3.4060   19.3740 C.2   171  PHE171      0.2264
     98  O         43.3860    4.3730   20.1250 O.2   171  PHE171     -0.2867
     99  CB        43.3350    0.9570   20.0370 C.3   171  PHE171      0.0534
    100  CG        43.8760    1.1180   21.4490 C.ar  171  PHE171     -0.0203
    101  CD1       43.2750    1.9720   22.3690 C.ar  171  PHE171     -0.0042
    102  CD2       44.9690    0.3580   21.8650 C.ar  171  PHE171     -0.0042
    103  CE1       43.7520    2.0630   23.6880 C.ar  171  PHE171     -0.0003
    104  CE2       45.4560    0.4380   23.1810 C.ar  171  PHE171     -0.0003
    105  CZ        44.8460    1.2950   24.0950 C.ar  171  PHE171     -0.0000
    106  N         44.3850    1.2460   29.7450 N.3   206  TRP206     -0.1241
    107  CA        43.7860    0.8030   28.4900 C.3   206  TRP206      0.1605
    108  C         44.7510   -0.0590   27.6700 C.2   206  TRP206      0.2264
    109  O         44.3250   -1.0080   27.0180 O.2   206  TRP206     -0.2867
    110  CB        43.3110    2.0120   27.6740 C.3   206  TRP206      0.0550
    111  CG        42.0730    2.6890   28.2450 C.ar  206  TRP206      0.0003
    112  CD1       41.8370    3.0100   29.5530 C.ar  206  TRP206      0.0946
    113  CD2       40.9290    3.1530   27.5070 C.ar  206  TRP206      0.0152
    114  NE1       40.6190    3.6460   29.6760 N.ar  206  TRP206     -0.2442
    115  CE2       40.0440    3.7460   28.4360 C.ar  206  TRP206      0.0810
    116  CE3       40.5700    3.1250   26.1510 C.ar  206  TRP206      0.0012
    117  CZ2       38.8180    4.3080   28.0510 C.ar  206  TRP206      0.0191
    118  CZ3       39.3500    3.6850   25.7670 C.ar  206  TRP206      0.0001
    119  CH2       38.4890    4.2690   26.7200 C.ar  206  TRP206      0.0015
    120  N         44.4910   -3.9950   28.1220 N.3   209  TYR209     -0.1228
    121  CA        43.5370   -4.9060   27.4900 C.3   209  TYR209      0.1721
    122  C         44.0450   -5.6590   26.2450 C.2   209  TYR209      0.2437
    123  O         43.9680   -6.8870   26.1990 O.2   209  TYR209     -0.2733
    124  CB        42.2240   -4.1680   27.2050 C.3   209  TYR209      0.0547
    125  CG        41.5120   -3.7120   28.4620 C.ar  209  TYR209     -0.0200
    126  CD1       41.9200   -2.5570   29.1440 C.ar  209  TYR209     -0.0009
    127  CD2       40.4690   -4.4690   29.0080 C.ar  209  TYR209     -0.0009
    128  CE1       41.3080   -2.1690   30.3420 C.ar  209  TYR209      0.0417
    129  CE2       39.8560   -4.0950   30.2050 C.ar  209  TYR209      0.0417
    130  CZ        40.2830   -2.9430   30.8680 C.ar  209  TYR209      0.1957
    131  OH        39.6960   -2.5750   32.0630 O.3   209  TYR209     -0.2866
    132  N         44.5590   -4.9470   25.2240 N.am  210  PRO210     -0.2729
    133  CA        45.0560   -5.6560   24.0350 C.3   210  PRO210      0.1401
    134  C         46.3030   -6.4870   24.3450 C.2   210  PRO210      0.2269
    135  O         46.7500   -7.2950   23.5270 O.2   210  PRO210     -0.2865
    136  CB        45.3310   -4.5290   23.0330 C.3   210  PRO210      0.0296
    137  CG        45.6310   -3.3300   23.9280 C.3   210  PRO210      0.0237
    138  CD        44.5690   -3.4890   25.0080 C.3   210  PRO210      0.0939
    139  N         44.5560   -9.5880   25.8740 N.3   213  TRP213     -0.1241
    140  CA        43.8860  -10.3260   24.8080 C.3   213  TRP213      0.1605
    141  C         44.9060  -11.2260   24.1070 C.2   213  TRP213      0.2264
    142  O         44.6970  -12.4220   23.9750 O.2   213  TRP213     -0.2867
    143  CB        43.2620   -9.3690   23.7900 C.3   213  TRP213      0.0550
    144  CG        42.1860  -10.0060   22.9460 C.ar  213  TRP213      0.0003
    145  CD1       40.8410   -9.9460   23.1540 C.ar  213  TRP213      0.0946
    146  CD2       42.3760  -10.7840   21.7540 C.ar  213  TRP213      0.0152
    147  NE1       40.1750  -10.6300   22.1590 N.ar  213  TRP213     -0.2442
    148  CE2       41.0940  -11.1460   21.2840 C.ar  213  TRP213      0.0810
    149  CE3       43.5060  -11.1960   21.0310 C.ar  213  TRP213      0.0012
    150  CZ2       40.9080  -11.9110   20.1290 C.ar  213  TRP213      0.0191
    151  CZ3       43.3210  -11.9570   19.8800 C.ar  213  TRP213      0.0001
    152  CH2       42.0270  -12.3000   19.4390 C.ar  213  TRP213      0.0015
    153  N         41.5830   -9.3810   33.2080 N.3   232  TYR232     -0.1241
    154  CA        40.6160   -8.3890   32.7450 C.3   232  TYR232      0.1605
    155  C         39.8530   -7.7260   33.9070 C.2   232  TYR232      0.2264
    156  O         39.5800   -6.5270   33.8620 O.2   232  TYR232     -0.2867
    157  CB        39.6070   -9.0170   31.7690 C.3   232  TYR232      0.0534
    158  CG        40.0990   -9.2090   30.3430 C.ar  232  TYR232     -0.0201
    159  CD1       40.7600   -8.1810   29.6660 C.ar  232  TYR232     -0.0009
    160  CD2       39.8430  -10.4000   29.6490 C.ar  232  TYR232     -0.0009
    161  CE1       41.1520   -8.3280   28.3340 C.ar  232  TYR232      0.0417
    162  CE2       40.2280  -10.5600   28.3110 C.ar  232  TYR232      0.0417
    163  CZ        40.8820   -9.5150   27.6600 C.ar  232  TYR232      0.1957
    164  OH        41.2540   -9.6400   26.3310 O.3   232  TYR232     -0.2866
    165  N         39.9110   -3.7840   35.1100 N.3   236  ASP236     -0.1239
    166  CA        38.6140   -3.1470   35.2930 C.3   236  ASP236      0.1674
    167  C         38.5110   -2.4410   36.6330 C.2   236  ASP236      0.2266
    168  O         37.9590   -1.3470   36.7130 O.2   236  ASP236     -0.2867
    169  CB        37.5000   -4.1890   35.1780 C.3   236  ASP236      0.1410
    170  CG        37.0500   -4.4230   33.7340 C.2   236  ASP236      0.3668
    171  OD1       37.7770   -4.0310   32.7910 O.co2 236  ASP236     -0.2456
    172  OD2       35.9630   -5.0110   33.5520 O.co2 236  ASP236     -0.2456
    173  N         40.8510    0.7520   35.9240 N.3   239  ALA239     -0.1231
    174  CA        40.3330    1.5030   34.7810 C.3   239  ALA239      0.1694
    175  C         38.9260    2.0540   34.9770 C.2   239  ALA239      0.2591
    176  O         38.6020    3.1200   34.4560 O.2   239  ALA239     -0.2718
    177  CB        40.3830    0.6310   33.5180 C.3   239  ALA239      0.0304
    178  N         38.0840    1.3340   35.7110 N.am  240  LYS240     -0.1980
    179  CA        36.7170    1.8020   35.9510 C.3   240  LYS240      0.1596
    180  C         36.4450    2.3820   37.3440 C.2   240  LYS240      0.2287
    181  O         36.1360    3.5680   37.4770 O.2   240  LYS240     -0.2864
    182  CB        35.7140    0.6740   35.7200 C.3   240  LYS240      0.0298
    183  CG        35.4910    0.3190   34.2750 C.3   240  LYS240      0.0038
    184  CD        34.4360   -0.7590   34.1580 C.3   240  LYS240      0.0206
    185  CE        33.9950   -0.9690   32.7160 C.3   240  LYS240      0.1093
    186  NZ        35.0110   -1.5790   31.8620 N.3   240  LYS240     -0.1314
@<TRIPOS>BOND
     1    71    72    1
     2    83    84    1
     3    73    72    1
     4    73    74    2
     5    72    75    1
     6    84    85    1
     7    84    87    1
     8    91    92    2
     9    91    90    1
    10    75    76    1
    11    67    66    1
    12    67    70    1
    13    67    68    1
    14    89    85   am
    15    89    90    1
    16    85    86    2
    17    93    90    1
    18    93    94    1
    19    69    68    2
    20    87    88    1
    21    77    76   ar
    22    77    79   ar
    23    76    78   ar
    24    48    49    1
    25    95    96    1
    26    62    63    1
    27    49    50    1
    28    49    52    1
    29    79    81   ar
    30    78    80   ar
    31    51    50    2
    32    97    96    1
    33    97    98    2
    34    50    56   am
    35    63    64    1
    36   152   151   ar
    37   152   150   ar
    38    96    99    1
    39    52    53    1
    40    64    65    2
    41   151   149   ar
    42    81    80   ar
    43    81    82    1
    44    99   100    1
    45   150   148   ar
    46    56    57    1
    47    58    59    2
    48    58    57    1
    49    53    54    1
    50    57    60    1
    51   149   146   ar
    52   148   146   ar
    53   148   147   ar
    54   100   102   ar
    55   100   101   ar
    56    54    55    1
    57   146   144   ar
    58   102   104   ar
    59    60    61    1
    60   147   145   ar
    61   101   103   ar
    62   144   145   ar
    63   144   143    1
    64   136   137    1
    65   136   133    1
    66   104   105   ar
    67     7     9   ar
    68     7     6   ar
    69     5     6    1
    70     5     2    1
    71     9    11   ar
    72   135   134    2
    73     6     8   ar
    74   103   105   ar
    75   143   140    1
    76   137   138    1
    77    11    12    1
    78    11    10   ar
    79   142   141    2
    80   133   134    1
    81   133   132    1
    82     8    10   ar
    83   141   140    1
    84     4     3    2
    85     3     2    1
    86     2     1    1
    87   140   139    1
    88   138   132    1
    89   132   122   am
    90    38    37    1
    91   118   116   ar
    92   118   119   ar
    93    15    16    2
    94    15    14    1
    95    23    25   ar
    96    23    20   ar
    97    25    26   ar
    98   116   113   ar
    99   123   122    2
   100   122   121    1
   101   164   163    1
   102    17    14    1
   103    17    18    1
   104   119   117   ar
   105    37    39    1
   106    37    34    1
   107    14    13    1
   108    35    36    2
   109    35    34    1
   110   109   108    2
   111    20    18   ar
   112    20    22   ar
   113   124   121    1
   114   124   125    1
   115    26    24   ar
   116    18    19   ar
   117   121   120    1
   118   113   111   ar
   119   113   115   ar
   120    34    33    1
   121   163   162   ar
   122   163   161   ar
   123   108   107    1
   124   110   111    1
   125   110   107    1
   126    33    29   am
   127    27    28    1
   128   117   115   ar
   129   111   112   ar
   130   162   160   ar
   131   161   159   ar
   132    22    24   ar
   133    22    21   ar
   134   115   114   ar
   135   125   127   ar
   136   125   126   ar
   137   107   106    1
   138    19    21   ar
   139    29    28    1
   140    29    30    2
   141   127   129   ar
   142   126   128   ar
   143    28    31    1
   144    42    43    2
   145    42    41    1
   146   112   114   ar
   147   160   158   ar
   148   159   158   ar
   149    40    41    1
   150    32    31    1
   151   129   130   ar
   152    41    44    1
   153    44    46    1
   154    44    45    1
   155   128   130   ar
   156   158   157    1
   157   130   131    1
   158    47    45    1
   159   157   154    1
   160   186   185    1
   161   185   184    1
   162   154   153    1
   163   154   155    1
   164   171   170   ar
   165   177   174    1
   166   172   170   ar
   167   170   169    1
   168   156   155    2
   169   184   183    1
   170   183   182    1
   171   176   175    2
   172   174   175    1
   173   174   173    1
   174   175   178   am
   175   165   166    1
   176   169   166    1
   177   166   167    1
   178   178   179    1
   179   182   179    1
   180   179   180    1
   181   167   168    2
   182   180   181    2
