@<TRIPOS>MOLECULE
tmp/4qrzA00.pdb
 205 200 0 0 0
SMALL
GASTEIGER

@<TRIPOS>ATOM
      1  N         15.6430  -53.9340   21.5650 N.3     9  LEU9       -0.1231
      2  CA        16.7990  -54.4550   20.8230 C.3     9  LEU9        0.1693
      3  C         16.9970  -53.7720   19.4760 C.2     9  LEU9        0.2592
      4  O         17.9400  -54.0640   18.7600 O.2     9  LEU9       -0.2718
      5  CB        16.7410  -56.0000   20.6310 C.3     9  LEU9        0.0284
      6  CG        15.5050  -56.6700   20.0520 C.3     9  LEU9        0.0019
      7  CD1       15.1050  -56.0830   18.7210 C.3     9  LEU9        0.0001
      8  CD2       15.7910  -58.1530   19.9800 C.3     9  LEU9        0.0001
      9  N         16.1640  -52.7990   19.1190 N.am   10  ASP10      -0.1960
     10  CA        16.3230  -52.1750   17.8270 C.3    10  ASP10       0.1840
     11  C         17.6530  -51.4470   17.7180 C.2    10  ASP10       0.2621
     12  O         18.0310  -50.6610   18.5860 O.2    10  ASP10      -0.2715
     13  CB        15.1920  -51.1510   17.5690 C.3    10  ASP10       0.1450
     14  CG        13.8470  -51.7640   17.2090 C.2    10  ASP10       0.3671
     15  OD1       13.7160  -53.0290   17.2700 O.co2  10  ASP10      -0.2456
     16  OD2       12.9070  -50.9940   16.8900 O.co2  10  ASP10      -0.2456
     17  N         18.3830  -51.7190   16.6390 N.am   11  ARG11      -0.1977
     18  CA        19.6670  -51.0910   16.3660 C.3    11  ARG11       0.1597
     19  C         19.4610  -49.8370   15.4950 C.2    11  ARG11       0.2287
     20  O         18.3240  -49.4340   15.1760 O.2    11  ARG11      -0.2864
     21  CB        20.6420  -52.0720   15.6720 C.3    11  ARG11       0.0334
     22  CG        20.1800  -52.5370   14.3120 C.3    11  ARG11       0.0492
     23  CD        21.3010  -53.2850   13.5560 C.3    11  ARG11       0.2205
     24  NE        22.0000  -54.3020   14.3280 N.pl3  11  ARG11      -0.0865
     25  CZ        23.2030  -54.7900   14.1140 C.cat  11  ARG11       0.5346
     26  NH1       23.9940  -54.3580   13.1530 N.pl3  11  ARG11       0.1354
     27  NH2       23.6260  -55.7150   14.9300 N.pl3  11  ARG11       0.1354
     28  N         16.9790  -49.6940   12.5630 N.3    14  GLN14      -0.1245
     29  CA        15.7140  -50.2230   12.9980 C.3    14  GLN14       0.1566
     30  C         14.8640  -49.1430   13.6830 C.2    14  GLN14       0.2260
     31  O         15.3660  -48.0550   14.0000 O.2    14  GLN14      -0.2867
     32  CB        15.9180  -51.4660   13.8700 C.3    14  GLN14       0.0367
     33  CG        16.4650  -52.6060   13.0020 C.3    14  GLN14       0.0905
     34  CD        16.8290  -53.8580   13.7890 C.2    14  GLN14       0.2608
     35  OE1       17.2890  -53.8130   14.9450 O.2    14  GLN14      -0.2717
     36  NE2       16.7910  -54.9750   13.0750 N.am   14  GLN14      -0.0878
     37  N         19.6640  -49.6240   24.1500 N.3    36  GLN36      -0.1231
     38  CA        19.6710  -50.7120   23.1620 C.3    36  GLN36       0.1698
     39  C         20.1090  -51.9850   23.8730 C.2    36  GLN36       0.2592
     40  O         21.2660  -52.0420   24.3440 O.2    36  GLN36      -0.2718
     41  CB        20.5940  -50.3840   21.9930 C.3    36  GLN36       0.0381
     42  CG        20.5740  -51.4530   20.9300 C.3    36  GLN36       0.0905
     43  CD        21.5570  -51.2070   19.8440 C.2    36  GLN36       0.2608
     44  OE1       22.0520  -50.0850   19.6870 O.2    36  GLN36      -0.2717
     45  NE2       21.8190  -52.2440   19.0740 N.am   36  GLN36      -0.0878
     46  N         19.2740  -53.0140   23.8760 N.am   37  LEU37      -0.1966
     47  CA        19.6050  -54.3450   24.4510 C.3    37  LEU37       0.1728
     48  C         19.9410  -55.4130   23.3670 C.2    37  LEU37       0.2616
     49  O         19.6390  -55.2360   22.2460 O.2    37  LEU37      -0.2715
     50  CB        18.3240  -54.8530   25.0870 C.3    37  LEU37       0.0311
     51  CG        17.6310  -53.9730   26.1200 C.3    37  LEU37       0.0022
     52  CD1       16.2660  -54.5730   26.4610 C.3    37  LEU37       0.0001
     53  CD2       18.5220  -53.8970   27.3160 C.3    37  LEU37       0.0001
     54  N         20.4690  -56.5640   23.7520 N.am   38  GLN38      -0.1963
     55  CA        20.5410  -57.8070   22.9060 C.3    38  GLN38       0.1733
     56  C         19.3260  -58.6710   23.0060 C.2    38  GLN38       0.2613
     57  O         18.6840  -58.7370   24.0640 O.2    38  GLN38      -0.2715
     58  CB        21.5860  -58.7440   23.4430 C.3    38  GLN38       0.0408
     59  CG        22.6330  -58.0440   24.1980 C.3    38  GLN38       0.0908
     60  CD        23.3260  -57.1660   23.2710 C.2    38  GLN38       0.2608
     61  OE1       23.1180  -55.9290   23.2360 O.2    38  GLN38      -0.2717
     62  NE2       24.1320  -57.7590   22.4750 N.am   38  GLN38      -0.0878
     63  N         19.0590  -59.4580   21.9690 N.am   39  PHE39      -0.2027
     64  CA        17.8530  -60.3210   21.9410 C.3    39  PHE39       0.1325
     65  C         17.6380  -61.1060   23.2080 C.3    39  PHE39       0.2039
     66  O         16.4700  -61.1390   23.7650 O.3    39  PHE39      -0.2185
     67  CB        17.9020  -61.2660   20.7910 C.3    39  PHE39       0.0507
     68  CG        16.7280  -62.1660   20.6320 C.ar   39  PHE39      -0.0204
     69  CD1       15.4950  -61.7030   20.1000 C.ar   39  PHE39      -0.0042
     70  CD2       16.8170  -63.5210   21.1020 C.ar   39  PHE39      -0.0042
     71  CE1       14.4420  -62.6050   20.0320 C.ar   39  PHE39      -0.0003
     72  CE2       15.7190  -64.3430   21.0430 C.ar   39  PHE39      -0.0003
     73  CZ        14.6310  -63.9420   20.3870 C.ar   39  PHE39      -0.0000
     74  N          9.1450  -59.0790   23.0240 N.3    62  ASP62      -0.1239
     75  CA         8.7920  -60.0370   21.9640 C.3    62  ASP62       0.1674
     76  C          7.3700  -60.5830   22.2680 C.2    62  ASP62       0.2266
     77  O          7.0250  -60.8500   23.4290 O.2    62  ASP62      -0.2867
     78  CB         9.7970  -61.1610   21.9210 C.3    62  ASP62       0.1410
     79  CG         9.8050  -61.9350   20.6350 C.2    62  ASP62       0.3668
     80  OD1        9.0480  -61.6240   19.7090 O.co2  62  ASP62      -0.2456
     81  OD2       10.6250  -62.8680   20.5710 O.co2  62  ASP62      -0.2456
     82  N          5.6100  -60.1130   11.9500 N.3   115  ASN115     -0.1240
     83  CA         6.4040  -60.7240   10.8980 C.3   115  ASN115      0.1653
     84  C          6.1910  -62.2130   10.8600 C.2   115  ASN115      0.2266
     85  O          5.5100  -62.7890   11.7160 O.2   115  ASN115     -0.2867
     86  CB         7.8840  -60.3480   11.0360 C.3   115  ASN115      0.1155
     87  CG         8.6020  -61.0080   12.1870 C.2   115  ASN115      0.2627
     88  OD1        8.5360  -62.2360   12.3300 O.2   115  ASN115     -0.2716
     89  ND2        9.3550  -60.2280   12.9550 N.am  115  ASN115     -0.0877
     90  N         15.0120  -68.8160   21.8410 N.3   168  GLU168     -0.1231
     91  CA        13.8130  -68.6380   21.0190 C.3   168  GLU168      0.1699
     92  C         14.0280  -68.7170   19.5230 C.2   168  GLU168      0.2592
     93  O         13.0830  -69.0080   18.7760 O.2   168  GLU168     -0.2718
     94  CB        13.0990  -67.3250   21.3990 C.3   168  GLU168      0.0402
     95  CG        11.6940  -67.2390   20.9270 C.3   168  GLU168      0.1161
     96  CD        10.7820  -68.3500   21.4290 C.2   168  GLU168      0.3649
     97  OE1       11.0140  -68.8950   22.5230 O.co2 168  GLU168     -0.2457
     98  OE2        9.7610  -68.6090   20.7240 O.co2 168  GLU168     -0.2457
     99  N         15.2650  -68.4520   19.0980 N.am  169  GLU169     -0.1979
    100  CA        15.6020  -68.4850   17.6470 C.3   169  GLU169      0.1602
    101  C         15.2510  -69.8610   17.0770 C.2   169  GLU169      0.2287
    102  O         14.5300  -69.9350   16.0540 O.2   169  GLU169     -0.2864
    103  CB        17.0960  -68.2160   17.4300 C.3   169  GLU169      0.0415
    104  CG        17.5730  -66.8740   17.9460 C.3   169  GLU169      0.1163
    105  CD        17.5800  -65.7390   16.9410 C.2   169  GLU169      0.3649
    106  OE1       17.7830  -64.5820   17.4170 O.co2 169  GLU169     -0.2457
    107  OE2       17.4020  -65.9660   15.7230 O.co2 169  GLU169     -0.2457
    108  N         11.4010  -70.6300   17.0850 N.3   172  PHE172     -0.1241
    109  CA        10.6920  -69.8350   16.0970 C.3   172  PHE172      0.1605
    110  C         10.9550  -70.3680   14.7040 C.2   172  PHE172      0.2264
    111  O         10.0480  -70.3410   13.8250 O.2   172  PHE172     -0.2867
    112  CB        11.1550  -68.3930   16.2120 C.3   172  PHE172      0.0534
    113  CG        10.5170  -67.4020   15.2660 C.ar  172  PHE172     -0.0203
    114  CD1        9.1770  -67.0710   15.4270 C.ar  172  PHE172     -0.0042
    115  CD2       11.2420  -66.7290   14.3110 C.ar  172  PHE172     -0.0042
    116  CE1        8.5670  -66.1200   14.6130 C.ar  172  PHE172     -0.0003
    117  CE2       10.6260  -65.8220   13.4960 C.ar  172  PHE172     -0.0003
    118  CZ         9.3020  -65.4820   13.6910 C.ar  172  PHE172     -0.0000
    119  N         22.2860  -66.8370   15.6970 N.3   217  SER217     -0.1202
    120  CA        20.9920  -66.2300   15.4750 C.3   217  SER217      0.2020
    121  C         20.6260  -66.2070   14.0030 C.2   217  SER217      0.2619
    122  O         21.4690  -66.3010   13.1200 O.2   217  SER217     -0.2717
    123  CB        20.9760  -64.8300   16.0160 C.3   217  SER217      0.2103
    124  OG        21.8980  -64.0330   15.2610 O.3   217  SER217     -0.2182
    125  N         19.3510  -66.0280   13.7150 N.am  218  GLN218     -0.1965
    126  CA        18.8460  -65.8040   12.3580 C.3   218  GLN218      0.1733
    127  C         19.5750  -64.6120   11.7120 C.2   218  GLN218      0.2616
    128  O         20.0030  -64.6940   10.5590 O.2   218  GLN218     -0.2715
    129  CB        17.3450  -65.5360   12.3740 C.3   218  GLN218      0.0408
    130  CG        16.5220  -66.7480   12.8570 C.3   218  GLN218      0.0908
    131  CD        15.0920  -66.3340   13.1080 C.2   218  GLN218      0.2608
    132  OE1       14.2180  -66.4460   12.2350 O.2   218  GLN218     -0.2717
    133  NE2       14.8490  -65.8080   14.2780 N.am  218  GLN218     -0.0878
    134  N         19.7240  -63.5390   12.4640 N.am  219  TRP219     -0.1974
    135  CA        20.4090  -62.3250   12.0060 C.3   219  TRP219      0.1640
    136  C         21.8570  -62.6700   11.5830 C.2   219  TRP219      0.2290
    137  O         22.2970  -62.2880   10.5160 O.2   219  TRP219     -0.2864
    138  CB        20.3600  -61.3310   13.1440 C.3   219  TRP219      0.0576
    139  CG        20.9950  -59.9980   12.8770 C.ar  219  TRP219      0.0006
    140  CD1       22.2470  -59.5970   13.2740 C.ar  219  TRP219      0.0946
    141  CD2       20.4420  -58.8920   12.1720 C.ar  219  TRP219      0.0152
    142  NE1       22.4680  -58.3070   12.8660 N.ar  219  TRP219     -0.2442
    143  CE2       21.3830  -57.8370   12.2030 C.ar  219  TRP219      0.0810
    144  CE3       19.2280  -58.6630   11.5540 C.ar  219  TRP219      0.0012
    145  CZ2       21.1620  -56.5890   11.5710 C.ar  219  TRP219      0.0191
    146  CZ3       19.0170  -57.4500   10.9160 C.ar  219  TRP219      0.0001
    147  CH2       19.9750  -56.4330   10.9270 C.ar  219  TRP219      0.0015
    148  N         12.9320  -58.3300    8.6270 N.3   238  TRP238     -0.1241
    149  CA        13.9360  -57.5060    9.3100 C.3   238  TRP238      0.1605
    150  C         15.2960  -57.5850    8.6020 C.2   238  TRP238      0.2264
    151  O         16.1540  -56.7790    8.8920 O.2   238  TRP238     -0.2867
    152  CB        14.1040  -57.9420   10.7810 C.3   238  TRP238      0.0550
    153  CG        14.5930  -59.3530   10.9230 C.ar  238  TRP238      0.0003
    154  CD1       15.8380  -59.7880   10.7110 C.ar  238  TRP238      0.0946
    155  CD2       13.8080  -60.5520   11.2410 C.ar  238  TRP238      0.0152
    156  NE1       15.9260  -61.1540   10.8640 N.ar  238  TRP238     -0.2442
    157  CE2       14.6790  -61.6460   11.1800 C.ar  238  TRP238      0.0810
    158  CE3       12.4450  -60.7930   11.5760 C.ar  238  TRP238      0.0012
    159  CZ2       14.2760  -62.9490   11.4210 C.ar  238  TRP238      0.0191
    160  CZ3       12.0420  -62.0970   11.7900 C.ar  238  TRP238      0.0001
    161  CH2       12.9610  -63.1480   11.7380 C.ar  238  TRP238      0.0015
    162  N          5.7170  -63.5580   14.3750 N.3   270  GLY270     -0.1210
    163  CA         6.8580  -62.8880   14.9260 C.3   270  GLY270      0.1956
    164  C          6.6040  -61.4140   15.2730 C.2   270  GLY270      0.2612
    165  O          5.5450  -60.8670   14.9740 O.2   270  GLY270     -0.2717
    166  N          7.5970  -60.8670   15.9430 N.am  271  ASP271     -0.1959
    167  CA         7.7770  -59.4570   16.2070 C.3   271  ASP271      0.1840
    168  C          7.1980  -59.0150   17.5750 C.2   271  ASP271      0.2622
    169  O          6.6900  -59.8210   18.3680 O.2   271  ASP271     -0.2715
    170  CB         7.3700  -58.5420   15.0320 C.3   271  ASP271      0.1450
    171  CG         8.4090  -57.4790   14.7510 C.2   271  ASP271      0.3671
    172  OD1        8.8090  -56.7580   15.6830 O.co2 271  ASP271     -0.2456
    173  OD2        8.8290  -57.3630   13.5470 O.co2 271  ASP271     -0.2456
    174  N          7.4150  -57.7360   17.8300 N.am  272  TYR272     -0.1974
    175  CA         7.3650  -57.1370   19.1710 C.3   272  TYR272      0.1639
    176  C          6.1270  -56.3000   19.4250 C.2   272  TYR272      0.2290
    177  O          5.4090  -55.8890   18.4720 O.2   272  TYR272     -0.2864
    178  CB         8.6660  -56.2940   19.3600 C.3   272  TYR272      0.0560
    179  CG         9.9290  -57.1780   19.5500 C.ar  272  TYR272     -0.0198
    180  CD1       10.4430  -57.9780   18.5350 C.ar  272  TYR272     -0.0009
    181  CD2       10.5210  -57.2250   20.7630 C.ar  272  TYR272     -0.0009
    182  CE1       11.5080  -58.8340   18.7670 C.ar  272  TYR272      0.0417
    183  CE2       11.5950  -58.0580   21.0150 C.ar  272  TYR272      0.0417
    184  CZ        12.0490  -58.8870   20.0270 C.ar  272  TYR272      0.1957
    185  OH        13.0730  -59.7980   20.3030 O.3   272  TYR272     -0.2866
    186  N         10.3280  -53.2040    7.8650 N.3   306  GLN306     -0.1245
    187  CA         9.5070  -53.9610    8.7960 C.3   306  GLN306      0.1566
    188  C          8.0160  -53.7070    8.5140 C.2   306  GLN306      0.2260
    189  O          7.6650  -52.7480    7.8340 O.2   306  GLN306     -0.2867
    190  CB         9.9340  -53.7120   10.2420 C.3   306  GLN306      0.0367
    191  CG        11.3530  -54.1490   10.5780 C.3   306  GLN306      0.0905
    192  CD        11.7200  -53.9590   12.0170 C.2   306  GLN306      0.2608
    193  OE1       10.8490  -53.6390   12.8620 O.2   306  GLN306     -0.2717
    194  NE2       13.0160  -54.1530   12.3520 N.am  306  GLN306     -0.0878
    195  N          2.5090  -68.0570   19.1740 N.3   340  ARG340     -0.1245
    196  CA         3.1360  -68.8500   20.2060 C.3   340  ARG340      0.1563
    197  C          2.4800  -68.4660   21.5100 C.2   340  ARG340      0.2260
    198  O          2.8000  -67.4280   22.0930 O.2   340  ARG340     -0.2867
    199  CB         4.6120  -68.5770   20.2540 C.3   340  ARG340      0.0307
    200  CG         5.3950  -69.0830   19.0510 C.3   340  ARG340      0.0489
    201  CD         6.7930  -68.4900   19.0100 C.3   340  ARG340      0.2205
    202  NE         6.7360  -67.1220   18.5530 N.pl3 340  ARG340     -0.0865
    203  CZ         7.7770  -66.2890   18.4740 C.cat 340  ARG340      0.5346
    204  NH1        8.9870  -66.6720   18.8650 N.pl3 340  ARG340      0.1354
    205  NH2        7.6290  -65.0730   18.0000 N.pl3 340  ARG340      0.1354
@<TRIPOS>BOND
     1   189   188    2
     2   186   187    1
     3   188   187    1
     4   150   151    2
     5   150   149    1
     6   148   149    1
     7   187   190    1
     8   149   152    1
     9   190   191    1
    10   137   136    2
    11   128   127    2
    12   191   192    1
    13   154   156   ar
    14   154   153   ar
    15   152   153    1
    16    84    83    1
    17    84    85    2
    18   156   157   ar
    19    83    86    1
    20    83    82    1
    21   146   147   ar
    22   146   144   ar
    23   153   155   ar
    24   147   145   ar
    25    86    87    1
    26   157   155   ar
    27   157   159   ar
    28   155   158   ar
    29   159   161   ar
    30   144   141   ar
    31   145   143   ar
    32   158   160   ar
    33   136   135    1
    34   127   126    1
    35   127   134   am
    36   161   160   ar
    37   135   134    1
    38   135   138    1
    39   192   194   am
    40   192   193    2
    41   141   143   ar
    42   141   139   ar
    43    87    88    2
    44    87    89   am
    45   143   142   ar
    46   132   131    2
    47   126   129    1
    48   126   125    1
    49   129   130    1
    50    28    29    1
    51   130   131    1
    52   142   140   ar
    53   139   138    1
    54   139   140   ar
    55    29    30    1
    56    29    32    1
    57    33    34    1
    58    33    32    1
    59    36    34   am
    60   131   133   am
    61   122   121    2
    62    26    25    1
    63   117   118   ar
    64   117   115   ar
    65   173   171   ar
    66    23    22    1
    67    23    24    1
    68    30    31    2
    69   118   116   ar
    70   125   121   am
    71    34    35    2
    72   111   110    2
    73   121   120    1
    74    25    24    2
    75    25    27    1
    76   115   113   ar
    77    22    21    1
    78   162   163    1
    79   116   114   ar
    80   110   109    1
    81   171   170    1
    82   171   172   ar
    83   163   164    1
    84   165   164    2
    85   170   167    1
    86    20    19    2
    87   124   123    1
    88   113   114   ar
    89   113   112    1
    90   164   166   am
    91   120   119    1
    92   120   123    1
    93    19    18    1
    94    21    18    1
    95   107   105   ar
    96   166   167    1
    97   102   101    2
    98   109   112    1
    99   109   108    1
   100   167   168    1
   101    18    17    1
   102    17    11   am
   103    16    14   ar
   104   105   106   ar
   105   105   104    1
   106   101   100    1
   107    14    15   ar
   108    14    13    1
   109   103   100    1
   110   103   104    1
   111    13    10    1
   112   168   174   am
   113   168   169    2
   114   100    99    1
   115    11    10    1
   116    11    12    2
   117    10     9    1
   118   174   175    1
   119   205   203    1
   120   177   176    2
   121   203   202    2
   122   203   204    1
   123   180   182   ar
   124   180   179   ar
   125   202   201    1
   126     7     6    1
   127     4     3    2
   128   182   184   ar
   129    93    92    2
   130   201   200    1
   131   200   199    1
   132    45    43   am
   133    99    92   am
   134     9     3   am
   135   175   178    1
   136   175   176    1
   137   195   196    1
   138   178   179    1
   139     3     2    1
   140    92    91    1
   141   179   181   ar
   142    44    43    2
   143    80    79   ar
   144    43    42    1
   145     8     6    1
   146   184   185    1
   147   184   183   ar
   148    71    69   ar
   149    71    73   ar
   150     6     5    1
   151    69    68   ar
   152   196   199    1
   153   196   197    1
   154    73    72   ar
   155    81    79   ar
   156     5     2    1
   157    68    67    1
   158    68    70   ar
   159    79    78    1
   160    98    96   ar
   161   181   183   ar
   162    67    64    1
   163     2     1    1
   164    95    94    1
   165    95    96    1
   166    42    41    1
   167    91    94    1
   168    91    90    1
   169    72    70   ar
   170    96    97   ar
   171   197   198    2
   172    78    75    1
   173    64    63    1
   174    64    65    1
   175    75    76    1
   176    75    74    1
   177    63    56   am
   178    41    38    1
   179    49    48    2
   180    76    77    2
   181    62    60   am
   182    55    56    1
   183    55    58    1
   184    55    54    1
   185    56    57    2
   186    38    39    1
   187    38    37    1
   188    65    66    1
   189    61    60    2
   190    60    59    1
   191    48    54   am
   192    48    47    1
   193    58    59    1
   194    39    46   am
   195    39    40    2
   196    46    47    1
   197    47    50    1
   198    50    51    1
   199    51    52    1
   200    51    53    1
