@<TRIPOS>MOLECULE
tmp/4qs7A00.pdb
 117 111 0 0 0
SMALL
GASTEIGER

@<TRIPOS>ATOM
      1  N         12.4660    6.2320    0.0180 N.3   144  SER144     -0.1202
      2  CA        11.8470    6.8300    1.2060 C.3   144  SER144      0.2020
      3  C         11.3810    8.2660    1.0170 C.2   144  SER144      0.2619
      4  O         11.6780    9.1410    1.8380 O.2   144  SER144     -0.2717
      5  CB        12.8150    6.7630    2.3930 C.3   144  SER144      0.2103
      6  OG        13.1340    5.4180    2.7070 O.3   144  SER144     -0.2182
      7  N         10.6420    8.4980   -0.0600 N.am  145  PHE145     -0.1962
      8  CA        10.1520    9.8230   -0.4000 C.3   145  PHE145      0.1756
      9  C          8.7900    9.6770   -1.0860 C.2   145  PHE145      0.2461
     10  O          8.4720    8.6030   -1.6030 O.2   145  PHE145     -0.2730
     11  CB        11.1650   10.5360   -1.3080 C.3   145  PHE145      0.0574
     12  CG        12.5370   10.6600   -0.7010 C.ar  145  PHE145     -0.0200
     13  CD1       12.8280   11.6860    0.1810 C.ar  145  PHE145     -0.0042
     14  CD2       13.5290    9.7360   -0.9970 C.ar  145  PHE145     -0.0042
     15  CE1       14.0910   11.8010    0.7510 C.ar  145  PHE145     -0.0003
     16  CE2       14.7920    9.8460   -0.4310 C.ar  145  PHE145     -0.0003
     17  CZ        15.0690   10.8800    0.4440 C.ar  145  PHE145     -0.0000
     18  N          7.9740   10.7460   -1.0720 N.am  146  PRO146     -0.2727
     19  CA         6.6180   10.7030   -1.6340 C.3   146  PRO146      0.1402
     20  C          6.6090   10.4380   -3.1400 C.2   146  PRO146      0.2269
     21  O          7.2020   11.2010   -3.9020 O.2   146  PRO146     -0.2865
     22  CB         6.0790   12.1150   -1.3640 C.3   146  PRO146      0.0296
     23  CG         6.9090   12.6510   -0.2680 C.3   146  PRO146      0.0237
     24  CD         8.2610   12.0400   -0.4260 C.3   146  PRO146      0.0939
     25  N         11.7490   15.5170    0.7480 N.3   161  THR161     -0.1203
     26  CA        11.5730   15.8250    2.1540 C.3   161  THR161      0.1994
     27  C         12.9130   15.5890    2.8220 C.2   161  THR161      0.2617
     28  O         13.8800   15.1940    2.1650 O.2   161  THR161     -0.2717
     29  CB        10.5220   14.9150    2.8220 C.3   161  THR161      0.1784
     30  OG1       10.9440   13.5550    2.7220 O.3   161  THR161     -0.2211
     31  CG2        9.1660   15.0590    2.1530 C.3   161  THR161      0.0376
     32  N         12.9640   15.8250    4.1250 N.am  162  LYS162     -0.1979
     33  CA        14.1900   15.6460    4.8830 C.3   162  LYS162      0.1596
     34  C         15.2920   16.5500    4.3200 C.2   162  LYS162      0.2287
     35  O         15.0340   17.7180    4.0210 O.2   162  LYS162     -0.2864
     36  CB        14.5700   14.1570    4.9510 C.3   162  LYS162      0.0298
     37  CG        13.5420   13.3410    5.7550 C.3   162  LYS162      0.0038
     38  CD        13.7280   11.8280    5.6620 C.3   162  LYS162      0.0206
     39  CE        13.4670   11.3210    4.2520 C.3   162  LYS162      0.1093
     40  NZ        13.0460    9.8930    4.2510 N.3   162  LYS162     -0.1314
     41  N          7.5260    2.6760   -0.8870 N.3   196  ASN196     -0.1225
     42  CA         7.9670    3.5680    0.1700 C.3   196  ASN196      0.1785
     43  C          8.5000    2.6920    1.2950 C.2   196  ASN196      0.2597
     44  O          8.1320    1.5230    1.3900 O.2   196  ASN196     -0.2718
     45  CB         6.7910    4.4150    0.6560 C.3   196  ASN196      0.1169
     46  CG         7.2140    5.5140    1.6050 C.2   196  ASN196      0.2627
     47  OD1        6.9220    5.4580    2.7980 O.2   196  ASN196     -0.2716
     48  ND2        7.9010    6.5280    1.0770 N.am  196  ASN196     -0.0877
     49  N          9.3670    3.2350    2.1440 N.am  197  ASP197     -0.1960
     50  CA         9.8910    2.4470    3.2610 C.3   197  ASP197      0.1840
     51  C          8.8170    1.9890    4.2560 C.2   197  ASP197      0.2622
     52  O          8.9590    0.9340    4.8710 O.2   197  ASP197     -0.2715
     53  CB        11.0400    3.1730    3.9760 C.3   197  ASP197      0.1450
     54  CG        10.6840    4.5920    4.3830 C.2   197  ASP197      0.3671
     55  OD1        9.8120    5.2100    3.7360 O.co2 197  ASP197     -0.2456
     56  OD2       11.2990    5.0990    5.3450 O.co2 197  ASP197     -0.2456
     57  N          7.7420    2.7630    4.4020 N.am  198  THR198     -0.1951
     58  CA         6.6350    2.3450    5.2650 C.3   198  THR198      0.1897
     59  C          5.9930    1.0820    4.7110 C.2   198  THR198      0.2313
     60  O          5.6830    0.1520    5.4550 O.2   198  THR198     -0.2863
     61  CB         5.5380    3.4120    5.3890 C.3   198  THR198      0.1794
     62  OG1        5.0510    3.7610    4.0870 O.3   198  THR198     -0.2208
     63  CG2        6.0610    4.6510    6.0850 C.3   198  THR198      0.0378
     64  N          7.1890    4.3380   10.5320 N.3   217  ILE217     -0.1245
     65  CA         8.6090    4.6700   10.5460 C.3   217  ILE217      0.1561
     66  C          8.8760    5.8370   11.4830 C.2   217  ILE217      0.2260
     67  O          8.2980    6.9150   11.3430 O.2   217  ILE217     -0.2867
     68  CB         9.1360    5.0500    9.1510 C.3   217  ILE217      0.0252
     69  CG1        8.8950    3.9180    8.1440 C.3   217  ILE217      0.0019
     70  CG2       10.6130    5.3810    9.2270 C.3   217  ILE217      0.0019
     71  CD1        9.7650    2.7130    8.3550 C.3   217  ILE217      0.0001
     72  N         13.0800   10.5440    9.1810 N.3   221  GLY221     -0.1210
     73  CA        11.7710   11.1330    8.9690 C.3   221  GLY221      0.1956
     74  C         10.7320   10.2770    9.6690 C.2   221  GLY221      0.2613
     75  O         11.0820    9.3350   10.3820 O.2   221  GLY221     -0.2717
     76  N          9.4570   10.6020    9.4800 N.am  222  THR222     -0.1938
     77  CA         8.3800    9.7810   10.0200 C.3   222  THR222      0.2028
     78  C          7.2360    9.6430    9.0200 C.2   222  THR222      0.2642
     79  O          6.9490   10.5590    8.2550 O.2   222  THR222     -0.2714
     80  CB         7.8370   10.3140   11.3710 C.3   222  THR222      0.1808
     81  OG1        6.8510    9.4060   11.8810 O.3   222  THR222     -0.2208
     82  CG2        7.2090   11.6850   11.2020 C.3   222  THR222      0.0379
     83  N          6.5860    8.4870    9.0450 N.am  223  ASN223     -0.1971
     84  CA         5.5130    8.1810    8.1160 C.3   223  ASN223      0.1688
     85  C          4.8350    6.8910    8.5520 C.2   223  ASN223      0.2292
     86  O          5.3470    6.1700    9.4050 O.2   223  ASN223     -0.2864
     87  CB         6.0750    8.0480    6.6930 C.3   223  ASN223      0.1181
     88  CG         4.9930    8.0250    5.6210 C.2   223  ASN223      0.2629
     89  OD1        3.8160    8.2710    5.8910 O.2   223  ASN223     -0.2716
     90  ND2        5.3950    7.7300    4.3930 N.am  223  ASN223     -0.0877
     91  N          1.9300    9.3690    4.1230 N.3   251  GLU251     -0.1245
     92  CA         2.7620   10.5750    4.1550 C.3   251  GLU251      0.1567
     93  C          2.3000   11.4940    5.2880 C.2   251  GLU251      0.2260
     94  O          2.0490   12.6840    5.0900 O.2   251  GLU251     -0.2867
     95  CB         2.7950   11.2900    2.8000 C.3   251  GLU251      0.0388
     96  CG         3.5750   10.5410    1.7160 C.3   251  GLU251      0.1160
     97  CD         5.0690   10.4410    2.0220 C.2   251  GLU251      0.3649
     98  OE1        5.5920   11.2890    2.7860 O.co2 251  GLU251     -0.2457
     99  OE2        5.7200    9.5110    1.4990 O.co2 251  GLU251     -0.2457
    100  N          5.7870   19.1650    5.9170 N.3   279  GLN279     -0.1245
    101  CA         6.2860   18.1790    6.8700 C.3   279  GLN279      0.1566
    102  C          6.2230   18.6780    8.3190 C.2   279  GLN279      0.2260
    103  O          7.1100   18.3960    9.1220 O.2   279  GLN279     -0.2867
    104  CB         7.7140   17.7420    6.5040 C.3   279  GLN279      0.0367
    105  CG         7.8350   17.1230    5.1150 C.3   279  GLN279      0.0905
    106  CD         6.9650   15.8830    4.9540 C.2   279  GLN279      0.2608
    107  OE1        5.9340   15.9180    4.2840 O.2   279  GLN279     -0.2717
    108  NE2        7.3830   14.7810    5.5640 N.am  279  GLN279     -0.0878
    109  N          6.2040   15.9420   11.0250 N.3   282  GLU282     -0.1245
    110  CA         7.5140   15.3040   11.0160 C.3   282  GLU282      0.1567
    111  C          8.5620   16.1640   11.7150 C.2   282  GLU282      0.2260
    112  O          9.4400   15.6460   12.4110 O.2   282  GLU282     -0.2867
    113  CB         7.9300   15.0020    9.5740 C.3   282  GLU282      0.0388
    114  CG         9.3850   14.6360    9.3680 C.3   282  GLU282      0.1160
    115  CD         9.6280   14.1250    7.9610 C.2   282  GLU282      0.3649
    116  OE1        9.9860   14.9340    7.0790 O.co2 282  GLU282     -0.2457
    117  OE2        9.4300   12.9150    7.7340 O.co2 282  GLU282     -0.2457
@<TRIPOS>BOND
     1    21    20    2
     2    20    19    1
     3    19    22    1
     4    19    18    1
     5    10     9    2
     6    22    23    1
     7    11    12    1
     8    11     8    1
     9     9    18   am
    10     9     8    1
    11    18    24    1
    12    14    12   ar
    13    14    16   ar
    14    41    42    1
    15    12    13   ar
    16    16    17   ar
    17    24    23    1
    18     8     7    1
    19     7     3   am
    20     1     2    1
    21    42    45    1
    22    42    43    1
    23    13    15   ar
    24    17    15   ar
    25    45    46    1
    26    25    26    1
    27     3     2    1
    28     3     4    2
    29    48    46   am
    30     2     5    1
    31    43    44    2
    32    43    49   am
    33    99    97   ar
    34    46    47    2
    35    96    97    1
    36    96    95    1
    37    97    98   ar
    38    49    50    1
    39    31    29    1
    40    26    29    1
    41    26    27    1
    42    28    27    2
    43     5     6    1
    44    30    29    1
    45    95    92    1
    46    27    32   am
    47    50    53    1
    48    50    51    1
    49    55    54   ar
    50    53    54    1
    51    35    34    2
    52    62    61    1
    53    91    92    1
    54    32    33    1
    55    92    93    1
    56    40    39    1
    57    39    38    1
    58    51    57   am
    59    51    52    2
    60   107   106    2
    61    34    33    1
    62    54    56   ar
    63    90    88   am
    64    57    58    1
    65    59    58    1
    66    59    60    2
    67    33    36    1
    68    36    37    1
    69   106   105    1
    70   106   108   am
    71    94    93    2
    72   105   104    1
    73    58    61    1
    74    61    63    1
    75    88    89    2
    76    88    87    1
    77    38    37    1
    78   100   101    1
    79   104   101    1
    80    87    84    1
    81   101   102    1
    82   116   115   ar
    83   117   115   ar
    84   115   114    1
    85    84    85    1
    86    84    83    1
    87    69    71    1
    88    69    68    1
    89    79    78    2
    90   102   103    2
    91    85    86    2
    92    73    72    1
    93    73    74    1
    94    78    83   am
    95    78    77    1
    96    68    70    1
    97    68    65    1
    98   114   113    1
    99    76    74   am
   100    76    77    1
   101   113   110    1
   102    74    75    2
   103    77    80    1
   104    64    65    1
   105    65    66    1
   106   110   109    1
   107   110   111    1
   108    82    80    1
   109    67    66    2
   110    80    81    1
   111   111   112    2
