@<TRIPOS>MOLECULE
tmp/4qsbA00.pdb
 130 128 0 0 0
SMALL
GASTEIGER

@<TRIPOS>ATOM
      1  N         -8.2930    0.3700    5.8330 N.3    64  ASN64      -0.1240
      2  CA        -9.1590    1.3150    6.5960 C.3    64  ASN64       0.1653
      3  C        -10.3550    1.6370    5.7410 C.2    64  ASN64       0.2266
      4  O        -10.1520    1.8340    4.5170 O.2    64  ASN64      -0.2867
      5  CB        -8.4270    2.6360    6.9120 C.3    64  ASN64       0.1155
      6  CG        -7.1820    2.4240    7.7960 C.2    64  ASN64       0.2627
      7  OD1       -6.9230    1.2850    8.3120 O.2    64  ASN64      -0.2716
      8  ND2       -6.3590    3.4570    7.9290 N.am   64  ASN64      -0.0877
      9  N        -13.8550    8.2140   12.7070 N.3    88  ILE88      -0.1231
     10  CA       -12.9910    8.5730   11.6000 C.3    88  ILE88       0.1692
     11  C        -12.7130    7.3970   10.7100 C.2    88  ILE88       0.2591
     12  O        -12.6880    7.6110    9.4680 O.2    88  ILE88      -0.2718
     13  CB       -11.6150    9.1630   12.0630 C.3    88  ILE88       0.0266
     14  CG1      -10.7240    9.5770   10.8560 C.3    88  ILE88       0.0019
     15  CG2      -10.9390    8.3230   13.1010 C.3    88  ILE88       0.0020
     16  CD1       -9.5380   10.4030   11.2860 C.3    88  ILE88       0.0001
     17  N        -12.5690    6.1550   11.1760 N.am   89  GLN89      -0.1979
     18  CA       -12.3140    5.0070   10.3050 C.3    89  GLN89       0.1601
     19  C        -12.5340    3.7320   11.0060 C.2    89  GLN89       0.2287
     20  O        -12.5920    3.7880   12.2670 O.2    89  GLN89      -0.2864
     21  CB       -10.8980    5.0250    9.7880 C.3    89  GLN89       0.0394
     22  CG        -9.7650    4.9820   10.8620 C.3    89  GLN89       0.0908
     23  CD        -9.0450    3.6460   10.8990 C.2    89  GLN89       0.2608
     24  OE1       -9.6260    2.6790   11.1870 O.2    89  GLN89      -0.2717
     25  NE2       -7.9140    3.5610   10.2380 N.am   89  GLN89      -0.0878
     26  N        -11.0110   -0.5090   10.8080 N.3    91  HIS91      -0.1241
     27  CA       -10.1780   -1.4970   10.2320 C.3    91  HIS91       0.1621
     28  C        -10.1710   -2.7650   10.9650 C.2    91  HIS91       0.2264
     29  O        -10.8780   -2.7950   12.0260 O.2    91  HIS91      -0.2867
     30  CB        -8.7040   -1.0020   10.1430 C.3    91  HIS91       0.0745
     31  CG        -8.1610   -0.7110   11.5300 C.ar   91  HIS91       0.0817
     32  ND1       -8.3450    0.4710   12.1360 N.ar   91  HIS91      -0.2268
     33  CD2       -7.5510   -1.5510   12.3510 C.ar   91  HIS91       0.1154
     34  CE1       -7.8020    0.3330   13.4120 C.ar   91  HIS91       0.1986
     35  NE2       -7.3350   -0.8980   13.5580 N.ar   91  HIS91      -0.2212
     36  N         -7.8940   -6.4870   12.3320 N.3    93  HIS93      -0.1241
     37  CA        -6.6780   -7.2840   12.4640 C.3    93  HIS93       0.1621
     38  C         -7.0930   -8.7030   12.3090 C.2    93  HIS93       0.2264
     39  O         -8.1610   -9.0980   12.8390 O.2    93  HIS93      -0.2867
     40  CB        -6.0030   -7.0580   13.8560 C.3    93  HIS93       0.0745
     41  CG        -5.7240   -5.5980   14.1060 C.ar   93  HIS93       0.0817
     42  ND1       -4.4760   -5.0510   13.9430 N.ar   93  HIS93      -0.2268
     43  CD2       -6.5500   -4.5470   14.4950 C.ar   93  HIS93       0.1154
     44  CE1       -4.5130   -3.7480   14.2470 C.ar   93  HIS93       0.1986
     45  NE2       -5.8390   -3.4300   14.5530 N.ar   93  HIS93      -0.2212
     46  N        -11.8600   -2.7010   14.7380 N.3   116  HIS116     -0.1297
     47  CA       -11.6460   -1.4920   15.5190 C.3   116  HIS116      0.1306
     48  C        -12.3490   -0.3360   14.8580 C.3   116  HIS116      0.2013
     49  O        -11.9460    0.0250   13.6840 O.3   116  HIS116     -0.2188
     50  CB       -10.1240   -1.2240   15.5780 C.3   116  HIS116      0.0691
     51  CG        -9.4560   -2.1840   16.4670 C.ar  116  HIS116      0.0814
     52  ND1       -8.0370   -2.3930   16.4310 N.ar  116  HIS116     -0.2268
     53  CD2       -9.9660   -2.9960   17.4460 C.ar  116  HIS116      0.1154
     54  CE1       -7.7260   -3.2850   17.3470 C.ar  116  HIS116      0.1986
     55  NE2       -8.9010   -3.6970   17.9950 N.ar  116  HIS116     -0.2212
     56  N        -12.6580    3.4570   15.1370 N.3   118  VAL118     -0.1245
     57  CA       -11.8030    4.4610   15.7850 C.3   118  VAL118      0.1561
     58  C        -12.5110    5.7810   15.8290 C.2   118  VAL118      0.2260
     59  O        -12.9290    6.2840   14.7500 O.2   118  VAL118     -0.2867
     60  CB       -10.4450    4.5560   14.9950 C.3   118  VAL118      0.0252
     61  CG1       -9.5900    5.6680   15.6010 C.3   118  VAL118      0.0019
     62  CG2       -9.6690    3.2110   14.8230 C.3   118  VAL118      0.0019
     63  N         -8.1630   14.5260   14.5880 N.3   127  PHE127     -0.1241
     64  CA        -7.5970   13.2650   15.0290 C.3   127  PHE127      0.1605
     65  C         -6.1190   13.5210   15.4090 C.2   127  PHE127      0.2264
     66  O         -5.6190   12.9670   16.3740 O.2   127  PHE127     -0.2867
     67  CB        -7.6590   12.2420   13.8560 C.3   127  PHE127      0.0534
     68  CG        -7.0180   10.9360   14.1420 C.ar  127  PHE127     -0.0203
     69  CD1       -7.7370    9.9000   14.8390 C.ar  127  PHE127     -0.0042
     70  CD2       -5.6550   10.7260   13.8050 C.ar  127  PHE127     -0.0042
     71  CE1       -7.1000    8.7260   15.0820 C.ar  127  PHE127     -0.0003
     72  CE2       -5.0310    9.5350   14.0680 C.ar  127  PHE127     -0.0003
     73  CZ        -5.7460    8.5330   14.7170 C.ar  127  PHE127     -0.0000
     74  N        -11.7720    3.7090   21.0030 N.3   139  VAL139     -0.1245
     75  CA       -11.7770    2.6600   19.9760 C.3   139  VAL139      0.1561
     76  C        -12.7940    1.5700   20.4590 C.2   139  VAL139      0.2260
     77  O        -12.6230    1.0510   21.5460 O.2   139  VAL139     -0.2867
     78  CB       -10.3470    2.0940   19.5930 C.3   139  VAL139      0.0252
     79  CG1      -10.5280    1.0820   18.4670 C.3   139  VAL139      0.0019
     80  CG2       -9.3860    3.2100   19.1890 C.3   139  VAL139      0.0019
     81  N         -2.8110    3.0780   21.1320 N.3   194  LEU194     -0.1231
     82  CA        -2.8630    2.5330   19.7730 C.3   194  LEU194      0.1693
     83  C         -2.1600    1.1900   19.8160 C.2   194  LEU194      0.2593
     84  O         -1.0940    1.0350   20.5240 O.2   194  LEU194     -0.2718
     85  CB        -2.1580    3.4010   18.8050 C.3   194  LEU194      0.0284
     86  CG        -2.6410    4.8370   18.7320 C.3   194  LEU194      0.0019
     87  CD1       -1.7430    5.6810   17.7570 C.3   194  LEU194      0.0001
     88  CD2       -4.1090    5.0310   18.4080 C.3   194  LEU194      0.0001
     89  N         -2.5940    0.1960   19.0140 N.am  195  THR195     -0.1939
     90  CA        -1.9280   -1.1130   18.9770 C.3   195  THR195      0.2028
     91  C         -0.8630   -1.1550   17.8270 C.2   195  THR195      0.2643
     92  O         -0.3090   -2.2170   17.7100 O.2   195  THR195     -0.2714
     93  CB        -2.9460   -2.2330   18.8530 C.3   195  THR195      0.1808
     94  OG1       -3.4970   -2.1670   17.5120 O.3   195  THR195     -0.2208
     95  CG2       -4.0130   -2.2210   19.9530 C.3   195  THR195      0.0379
     96  N         -0.7580   -0.0600   17.0740 N.am  196  THR196     -0.1937
     97  CA         0.3960   -0.0530   16.0910 C.3   196  THR196      0.2013
     98  C          1.1910    1.2110   16.4110 C.2   196  THR196      0.2484
     99  O          0.7460    2.1580   16.9840 O.2   196  THR196     -0.2729
    100  CB        -0.0180    0.0210   14.6150 C.3   196  THR196      0.1807
    101  OG1       -0.5020    1.2820   14.3390 O.3   196  THR196     -0.2208
    102  CG2       -1.1390   -0.9440   14.2990 C.3   196  THR196      0.0379
    103  N          2.4520    1.2170   15.9750 N.am  197  PRO197     -0.2715
    104  CA         3.1510    2.4530   16.0340 C.3   197  PRO197      0.1521
    105  C          2.3250    3.6160   15.4900 C.2   197  PRO197      0.2440
    106  O          1.6410    3.4880   14.4260 O.2   197  PRO197     -0.2731
    107  CB         4.3890    2.1280   15.1060 C.3   197  PRO197      0.0310
    108  CG         4.6170    0.6920   15.3710 C.3   197  PRO197      0.0237
    109  CD         3.2080    0.1070   15.3580 C.3   197  PRO197      0.0939
    110  N          2.3610    4.8090   16.1080 N.am  198  PRO198     -0.2727
    111  CA         3.2520    5.1940   17.2160 C.3   198  PRO198      0.1402
    112  C          2.9560    4.7830   18.6490 C.2   198  PRO198      0.2269
    113  O          3.6380    5.2270   19.5750 O.2   198  PRO198     -0.2865
    114  CB         3.2480    6.7280   17.0510 C.3   198  PRO198      0.0296
    115  CG         1.8590    7.0840   16.5600 C.3   198  PRO198      0.0237
    116  CD         1.5760    5.9650   15.5780 C.3   198  PRO198      0.0939
    117  N        -10.2710    2.1800   25.5100 N.3   205  TRP205     -0.1241
    118  CA       -10.7880    0.9490   24.8620 C.3   205  TRP205      0.1605
    119  C        -12.1670    0.5530   25.3090 C.2   205  TRP205      0.2264
    120  O        -12.3370    0.4690   26.5280 O.2   205  TRP205     -0.2867
    121  CB        -9.7250   -0.2310   25.0160 C.3   205  TRP205      0.0550
    122  CG        -8.6100   -0.1070   24.0410 C.ar  205  TRP205      0.0003
    123  CD1       -7.3510    0.5040   24.2330 C.ar  205  TRP205      0.0946
    124  CD2       -8.7230   -0.4680   22.6820 C.ar  205  TRP205      0.0152
    125  NE1       -6.6800    0.4990   23.0190 N.ar  205  TRP205     -0.2442
    126  CE2       -7.4290   -0.1130   22.0840 C.ar  205  TRP205      0.0810
    127  CE3       -9.7200   -1.1150   21.9100 C.ar  205  TRP205      0.0012
    128  CZ2       -7.1740   -0.2680   20.7300 C.ar  205  TRP205      0.0191
    129  CZ3       -9.4390   -1.3560   20.5530 C.ar  205  TRP205      0.0001
    130  CH2       -8.1620   -0.9140   19.9670 C.ar  205  TRP205      0.0015
@<TRIPOS>BOND
     1     4     3    2
     2     3     2    1
     3     1     2    1
     4     2     5    1
     5     5     6    1
     6     6     8   am
     7     6     7    2
     8    12    11    2
     9    21    18    1
    10    21    22    1
    11    30    27    1
    12    30    31    1
    13    27    26    1
    14    27    28    1
    15    25    23   am
    16    18    19    1
    17    18    17    1
    18    11    17   am
    19    11    10    1
    20    14    16    1
    21    14    13    1
    22    22    23    1
    23    23    24    2
    24    28    29    2
    25    19    20    2
    26    31    32   ar
    27    31    33   ar
    28    10    13    1
    29    10     9    1
    30    13    15    1
    31    32    34   ar
    32    38    37    1
    33    38    39    2
    34    36    37    1
    35    33    35   ar
    36    37    40    1
    37    34    35   ar
    38    49    48    1
    39    70    72   ar
    40    70    68   ar
    41    40    41    1
    42    67    68    1
    43    67    64    1
    44    42    41   ar
    45    42    44   ar
    46    72    73   ar
    47    41    43   ar
    48    68    69   ar
    49    44    45   ar
    50   102   100    1
    51   101   100    1
    52   106   105    2
    53    43    45   ar
    54    63    64    1
    55   100    97    1
    56    73    71   ar
    57    46    47    1
    58    59    58    2
    59    62    60    1
    60    69    71   ar
    61    48    47    1
    62    60    61    1
    63    60    57    1
    64    64    65    1
    65   107   108    1
    66   107   104    1
    67    56    57    1
    68   109   108    1
    69   109   103    1
    70    65    66    2
    71   105   104    1
    72   105   110   am
    73    47    50    1
    74   116   110    1
    75   116   115    1
    76    50    51    1
    77    57    58    1
    78   103   104    1
    79   103    98   am
    80    97    98    1
    81    97    96    1
    82   110   111    1
    83    98    99    2
    84    52    51   ar
    85    52    54   ar
    86    51    53   ar
    87   115   114    1
    88   114   111    1
    89    96    91   am
    90   111   112    1
    91    54    55   ar
    92    53    55   ar
    93    94    93    1
    94    92    91    2
    95    87    86    1
    96    91    90    1
    97    88    86    1
    98    79    78    1
    99   112   113    2
   100    86    85    1
   101    85    82    1
   102    93    90    1
   103    93    95    1
   104    90    89    1
   105    89    83   am
   106    80    78    1
   107    78    75    1
   108    82    83    1
   109    82    81    1
   110    83    84    2
   111   130   129   ar
   112   130   128   ar
   113    75    76    1
   114    75    74    1
   115    76    77    2
   116   129   127   ar
   117   128   126   ar
   118   127   124   ar
   119   126   124   ar
   120   126   125   ar
   121   124   122   ar
   122   125   123   ar
   123   122   123   ar
   124   122   121    1
   125   118   121    1
   126   118   119    1
   127   118   117    1
   128   119   120    2
