@<TRIPOS>MOLECULE
tmp/4qscA00.pdb
 179 174 0 0 0
SMALL
GASTEIGER

@<TRIPOS>ATOM
      1  N         16.0850  -53.1130   21.8140 N.3     9  LEU9       -0.1231
      2  CA        17.2040  -53.6720   21.0550 C.3     9  LEU9        0.1693
      3  C         17.4320  -53.0040   19.7010 C.2     9  LEU9        0.2592
      4  O         18.4060  -53.2990   19.0470 O.2     9  LEU9       -0.2718
      5  CB        17.0880  -55.1820   20.8770 C.3     9  LEU9        0.0284
      6  CG        15.8650  -55.7250   20.1420 C.3     9  LEU9        0.0019
      7  CD1       16.0130  -55.6530   18.6310 C.3     9  LEU9        0.0001
      8  CD2       15.5820  -57.1610   20.5650 C.3     9  LEU9        0.0001
      9  N         16.5430  -52.1170   19.2800 N.am   10  ASP10      -0.1960
     10  CA        16.6440  -51.5200   17.9410 C.3    10  ASP10       0.1840
     11  C         18.0090  -50.8500   17.7560 C.2    10  ASP10       0.2621
     12  O         18.4820  -50.0740   18.6210 O.2    10  ASP10      -0.2715
     13  CB        15.5240  -50.5070   17.6980 C.3    10  ASP10       0.1450
     14  CG        14.1970  -51.1630   17.3650 C.2    10  ASP10       0.3671
     15  OD1       14.0720  -52.4170   17.4930 O.co2  10  ASP10      -0.2456
     16  OD2       13.2730  -50.3960   16.9570 O.co2  10  ASP10      -0.2456
     17  N         18.6830  -51.2670   16.7020 N.am   11  ARG11      -0.1977
     18  CA        19.9100  -50.5920   16.2320 C.3    11  ARG11       0.1597
     19  C         19.6920  -49.1110   15.8410 C.2    11  ARG11       0.2287
     20  O         18.5560  -48.6320   15.6760 O.2    11  ARG11      -0.2864
     21  CB        20.5350  -51.3960   15.0710 C.3    11  ARG11       0.0334
     22  CG        21.0070  -52.8090   15.4490 C.3    11  ARG11       0.0492
     23  CD        21.1520  -53.7620   14.2590 C.3    11  ARG11       0.2205
     24  NE        22.2910  -53.3830   13.4140 N.pl3  11  ARG11      -0.0865
     25  CZ        23.5430  -53.8150   13.5560 C.cat  11  ARG11       0.5346
     26  NH1       24.4810  -53.3950   12.7190 N.pl3  11  ARG11       0.1354
     27  NH2       23.8560  -54.6460   14.5300 N.pl3  11  ARG11       0.1354
     28  N         17.3470  -48.5720   13.0880 N.3    14  GLN14      -0.1245
     29  CA        16.0330  -49.2400   13.1810 C.3    14  GLN14       0.1566
     30  C         15.0290  -48.2610   13.8170 C.2    14  GLN14       0.2260
     31  O         15.4020  -47.1570   14.2320 O.2    14  GLN14      -0.2867
     32  CB        16.1770  -50.5630   13.9590 C.3    14  GLN14       0.0367
     33  CG        16.7680  -51.6670   13.0780 C.3    14  GLN14       0.0905
     34  CD        16.9460  -52.9840   13.7880 C.2    14  GLN14       0.2608
     35  OE1       17.4640  -53.0360   14.8990 O.2    14  GLN14      -0.2717
     36  NE2       16.5680  -54.0550   13.1220 N.am   14  GLN14      -0.0878
     37  N         19.8800  -58.2080   22.3270 N.3    39  PHE39      -0.1241
     38  CA        18.7320  -59.1230   22.1920 C.3    39  PHE39       0.1605
     39  C         18.5630  -60.0560   23.3810 C.2    39  PHE39       0.2264
     40  O         17.4580  -60.2110   23.9080 O.2    39  PHE39      -0.2867
     41  CB        18.8660  -59.9740   20.9420 C.3    39  PHE39       0.0534
     42  CG        17.8010  -61.0410   20.8290 C.ar   39  PHE39      -0.0203
     43  CD1       16.5460  -60.7200   20.3600 C.ar   39  PHE39      -0.0042
     44  CD2       18.0610  -62.3710   21.1650 C.ar   39  PHE39      -0.0042
     45  CE1       15.5670  -61.6830   20.2340 C.ar   39  PHE39      -0.0003
     46  CE2       17.0710  -63.3340   21.0450 C.ar   39  PHE39      -0.0003
     47  CZ        15.8320  -62.9870   20.5660 C.ar   39  PHE39      -0.0000
     48  N          9.9140  -58.4010   23.3830 N.3    62  ASP62      -0.1239
     49  CA         9.5520  -59.3800   22.3510 C.3    62  ASP62       0.1674
     50  C          8.1740  -59.9330   22.7210 C.2    62  ASP62       0.2266
     51  O          7.9160  -60.2400   23.8900 O.2    62  ASP62      -0.2867
     52  CB        10.6130  -60.4450   22.2550 C.3    62  ASP62       0.1410
     53  CG        10.5660  -61.2440   20.9570 C.2    62  ASP62       0.3668
     54  OD1        9.7050  -60.9660   20.0890 O.co2  62  ASP62      -0.2456
     55  OD2       11.4210  -62.1430   20.8300 O.co2  62  ASP62      -0.2456
     56  N          5.8820  -59.6870   12.4710 N.3   115  ASN115     -0.1240
     57  CA         6.6360  -60.2900   11.3750 C.3   115  ASN115      0.1653
     58  C          6.5170  -61.8000   11.4030 C.2   115  ASN115      0.2266
     59  O          5.8950  -62.3830   12.2940 O.2   115  ASN115     -0.2867
     60  CB         8.1000  -59.8210   11.3520 C.3   115  ASN115      0.1155
     61  CG         8.9400  -60.4410   12.4510 C.2   115  ASN115      0.2627
     62  OD1        8.9380  -61.6440   12.6530 O.2   115  ASN115     -0.2716
     63  ND2        9.6440  -59.5940   13.1940 N.am  115  ASN115     -0.0877
     64  N         16.3350  -67.5000   21.9140 N.3   168  GLU168     -0.1231
     65  CA        15.0430  -67.4180   21.1840 C.3   168  GLU168      0.1699
     66  C         15.1870  -67.5060   19.6450 C.2   168  GLU168      0.2592
     67  O         14.2420  -67.8950   18.9380 O.2   168  GLU168     -0.2718
     68  CB        14.2440  -66.1900   21.5740 C.3   168  GLU168      0.0402
     69  CG        12.7740  -66.1740   21.1710 C.3   168  GLU168      0.1161
     70  CD        11.9570  -67.2820   21.7840 C.2   168  GLU168      0.3649
     71  OE1       12.3220  -67.7780   22.8860 O.co2 168  GLU168     -0.2457
     72  OE2       10.9680  -67.7470   21.1660 O.co2 168  GLU168     -0.2457
     73  N         16.3570  -67.1470   19.1110 N.am  169  GLU169     -0.1979
     74  CA        16.6140  -67.2630   17.6700 C.3   169  GLU169      0.1602
     75  C         16.3380  -68.6760   17.1780 C.2   169  GLU169      0.2287
     76  O         15.6550  -68.8550   16.1640 O.2   169  GLU169     -0.2864
     77  CB        18.0490  -66.8340   17.3000 C.3   169  GLU169      0.0415
     78  CG        18.5840  -65.5020   17.8760 C.3   169  GLU169      0.1163
     79  CD        18.5880  -64.2990   16.9360 C.2   169  GLU169      0.3649
     80  OE1       18.7950  -63.1680   17.4360 O.co2 169  GLU169     -0.2457
     81  OE2       18.3470  -64.4560   15.7500 O.co2 169  GLU169     -0.2457
     82  N         12.5760  -69.6910   17.4280 N.3   172  PHE172     -0.1241
     83  CA        11.7640  -68.9650   16.4340 C.3   172  PHE172      0.1605
     84  C         11.9760  -69.5300   15.0470 C.2   172  PHE172      0.2264
     85  O         11.0370  -69.5860   14.2410 O.2   172  PHE172     -0.2867
     86  CB        12.1400  -67.4910   16.5070 C.3   172  PHE172      0.0534
     87  CG        11.3120  -66.5680   15.6460 C.ar  172  PHE172     -0.0203
     88  CD1        9.9670  -66.4180   15.8750 C.ar  172  PHE172     -0.0042
     89  CD2       11.8960  -65.8460   14.6220 C.ar  172  PHE172     -0.0042
     90  CE1        9.2070  -65.5280   15.1320 C.ar  172  PHE172     -0.0003
     91  CE2       11.1580  -64.9310   13.8720 C.ar  172  PHE172     -0.0003
     92  CZ         9.7990  -64.7850   14.1180 C.ar  172  PHE172     -0.0000
     93  N         23.3820  -65.5940   15.2120 N.3   217  SER217     -0.1202
     94  CA        22.0170  -65.0510   15.1430 C.3   217  SER217      0.2020
     95  C         21.5150  -64.9920   13.7080 C.2   217  SER217      0.2619
     96  O         22.2680  -65.0970   12.7550 O.2   217  SER217     -0.2717
     97  CB        21.9870  -63.6300   15.7000 C.3   217  SER217      0.2103
     98  OG        22.7300  -62.7530   14.8630 O.3   217  SER217     -0.2182
     99  N         20.2140  -64.7930   13.5830 N.am  218  GLN218     -0.1965
    100  CA        19.5780  -64.6490   12.2750 C.3   218  GLN218      0.1733
    101  C         20.2280  -63.4800   11.5180 C.2   218  GLN218      0.2616
    102  O         20.5340  -63.5770   10.3150 O.2   218  GLN218     -0.2715
    103  CB        18.0750  -64.3900   12.4160 C.3   218  GLN218      0.0408
    104  CG        17.3230  -65.5660   12.9900 C.3   218  GLN218      0.0908
    105  CD        15.8790  -65.2170   13.3170 C.2   218  GLN218      0.2608
    106  OE1       14.9500  -65.5230   12.5660 O.2   218  GLN218     -0.2717
    107  NE2       15.6920  -64.5430   14.4250 N.am  218  GLN218     -0.0878
    108  N         20.4150  -62.3550   12.1990 N.am  219  TRP219     -0.1974
    109  CA        21.0300  -61.1800   11.5790 C.3   219  TRP219      0.1640
    110  C         22.4320  -61.4910   11.0570 C.2   219  TRP219      0.2290
    111  O         22.7840  -61.1140    9.9510 O.2   219  TRP219     -0.2864
    112  CB        21.0650  -60.0380   12.6200 C.3   219  TRP219      0.0576
    113  CG        21.5990  -58.7400   12.2320 C.ar  219  TRP219      0.0006
    114  CD1       22.8230  -58.2400   12.5500 C.ar  219  TRP219      0.0946
    115  CD2       20.9320  -57.7080   11.4850 C.ar  219  TRP219      0.0152
    116  NE1       22.9660  -56.9810   12.0450 N.ar  219  TRP219     -0.2442
    117  CE2       21.8210  -56.6190   11.3960 C.ar  219  TRP219      0.0810
    118  CE3       19.6660  -57.5980   10.8780 C.ar  219  TRP219      0.0012
    119  CZ2       21.4800  -55.4330   10.7540 C.ar  219  TRP219      0.0191
    120  CZ3       19.3460  -56.4520   10.2110 C.ar  219  TRP219      0.0001
    121  CH2       20.2500  -55.3840   10.1490 C.ar  219  TRP219      0.0015
    122  N         12.9830  -57.6150    8.7720 N.3   238  TRP238     -0.1241
    123  CA        13.9830  -56.7250    9.3750 C.3   238  TRP238      0.1605
    124  C         15.3090  -56.7430    8.5920 C.2   238  TRP238      0.2264
    125  O         16.1650  -55.8900    8.8120 O.2   238  TRP238     -0.2867
    126  CB        14.2070  -57.1240   10.8520 C.3   238  TRP238      0.0550
    127  CG        14.8200  -58.4930   10.9950 C.ar  238  TRP238      0.0003
    128  CD1       16.1210  -58.8400   10.7430 C.ar  238  TRP238      0.0946
    129  CD2       14.1530  -59.7280   11.3570 C.ar  238  TRP238      0.0152
    130  NE1       16.3070  -60.1860   10.9570 N.ar  238  TRP238     -0.2442
    131  CE2       15.1170  -60.7610   11.2880 C.ar  238  TRP238      0.0810
    132  CE3       12.8460  -60.0550   11.7310 C.ar  238  TRP238      0.0012
    133  CZ2       14.8300  -62.0680   11.6230 C.ar  238  TRP238      0.0191
    134  CZ3       12.5440  -61.3760   12.0290 C.ar  238  TRP238      0.0001
    135  CH2       13.5300  -62.3570   11.9530 C.ar  238  TRP238      0.0015
    136  N          6.3080  -63.0970   14.9050 N.3   270  GLY270     -0.1210
    137  CA         7.4060  -62.3170   15.4090 C.3   270  GLY270      0.1956
    138  C          7.0640  -60.9090   15.7980 C.2   270  GLY270      0.2612
    139  O          5.9930  -60.3890   15.4630 O.2   270  GLY270     -0.2717
    140  N          8.0710  -60.2920   16.3950 N.am  271  ASP271     -0.1959
    141  CA         8.2090  -58.8540   16.6490 C.3   271  ASP271      0.1840
    142  C          7.6840  -58.4110   18.0200 C.2   271  ASP271      0.2622
    143  O          7.2600  -59.2400   18.8240 O.2   271  ASP271     -0.2715
    144  CB         7.6970  -57.9660   15.5000 C.3   271  ASP271      0.1450
    145  CG         8.6880  -56.9000   15.1170 C.2   271  ASP271      0.3671
    146  OD1        9.0820  -56.0970   16.0180 O.co2 271  ASP271     -0.2456
    147  OD2        9.0770  -56.7980   13.9270 O.co2 271  ASP271     -0.2456
    148  N          7.8490  -57.1360   18.2970 N.am  272  TYR272     -0.1974
    149  CA         7.8990  -56.5530   19.6180 C.3   272  TYR272      0.1639
    150  C          6.6330  -55.7670   19.9130 C.2   272  TYR272      0.2290
    151  O          5.8800  -55.3490   18.9960 O.2   272  TYR272     -0.2864
    152  CB         9.1770  -55.6700   19.6810 C.3   272  TYR272      0.0560
    153  CG        10.4320  -56.5080   19.7700 C.ar  272  TYR272     -0.0198
    154  CD1       10.9160  -57.2430   18.7030 C.ar  272  TYR272     -0.0009
    155  CD2       11.1190  -56.6090   21.0000 C.ar  272  TYR272     -0.0009
    156  CE1       12.0040  -58.0810   18.8810 C.ar  272  TYR272      0.0417
    157  CE2       12.2310  -57.4180   21.1510 C.ar  272  TYR272      0.0417
    158  CZ        12.6270  -58.1820   20.1030 C.ar  272  TYR272      0.1957
    159  OH        13.7050  -59.0090   20.2470 O.3   272  TYR272     -0.2866
    160  N         10.1460  -52.5840    8.0600 N.3   306  GLN306     -0.1245
    161  CA         9.4060  -53.4030    9.0210 C.3   306  GLN306      0.1566
    162  C          7.8920  -53.2090    8.8620 C.2   306  GLN306      0.2260
    163  O          7.4400  -52.3310    8.1280 O.2   306  GLN306     -0.2867
    164  CB         9.8410  -53.0910   10.4430 C.3   306  GLN306      0.0367
    165  CG        11.2980  -53.4970   10.7330 C.3   306  GLN306      0.0905
    166  CD        11.6960  -53.2890   12.1750 C.2   306  GLN306      0.2608
    167  OE1       10.8600  -52.9650   13.0190 O.2   306  GLN306     -0.2717
    168  NE2       12.9710  -53.4640   12.4600 N.am  306  GLN306     -0.0878
    169  N          3.6080  -67.7210   19.8570 N.3   340  ARG340     -0.1245
    170  CA         4.3030  -68.4340   20.9010 C.3   340  ARG340      0.1563
    171  C          3.6540  -68.0400   22.2230 C.2   340  ARG340      0.2260
    172  O          3.9770  -66.9880   22.8030 O.2   340  ARG340     -0.2867
    173  CB         5.7800  -67.9990   20.8990 C.3   340  ARG340      0.0307
    174  CG         6.5640  -68.5730   19.7240 C.3   340  ARG340      0.0489
    175  CD         7.9090  -67.8700   19.6030 C.3   340  ARG340      0.2205
    176  NE         7.7410  -66.5440   19.0840 N.pl3 340  ARG340     -0.0865
    177  CZ         8.7210  -65.6580   18.9540 C.cat 340  ARG340      0.5346
    178  NH1        9.9680  -65.9500   19.2720 N.pl3 340  ARG340      0.1354
    179  NH2        8.4510  -64.4790   18.3960 N.pl3 340  ARG340      0.1354
@<TRIPOS>BOND
     1   160   161    1
     2   163   162    2
     3   124   125    2
     4   124   123    1
     5   122   123    1
     6   162   161    1
     7   161   164    1
     8   123   126    1
     9   111   110    2
    10   121   120   ar
    11   121   119   ar
    12   120   118   ar
    13   102   101    2
    14   164   165    1
    15   165   166    1
    16   128   130   ar
    17   128   127   ar
    18   119   117   ar
    19   126   127    1
    20   118   115   ar
    21   130   131   ar
    22   127   129   ar
    23   110   109    1
    24   131   129   ar
    25   131   133   ar
    26    60    57    1
    27    60    61    1
    28   129   132   ar
    29    57    58    1
    30    57    56    1
    31   117   115   ar
    32   117   116   ar
    33    58    59    2
    34   115   113   ar
    35   101   108   am
    36   101   100    1
    37   109   108    1
    38   109   112    1
    39   133   135   ar
    40   132   134   ar
    41   135   134   ar
    42   116   114   ar
    43   166   168   am
    44   166   167    2
    45   113   114   ar
    46   113   112    1
    47   100   103    1
    48   100    99    1
    49   103   104    1
    50    61    62    2
    51    61    63   am
    52   106   105    2
    53    26    25    1
    54    96    95    2
    55   104   105    1
    56    33    34    1
    57    33    32    1
    58    28    29    1
    59    36    34   am
    60    29    30    1
    61    29    32    1
    62   105   107   am
    63    24    25    2
    64    24    23    1
    65    25    27    1
    66    99    95   am
    67    95    94    1
    68    34    35    2
    69    30    31    2
    70    91    92   ar
    71    91    89   ar
    72   147   145   ar
    73    92    90   ar
    74    85    84    2
    75    23    22    1
    76    89    87   ar
    77    98    97    1
    78   136   137    1
    79    84    83    1
    80    21    22    1
    81    21    18    1
    82   145   144    1
    83   145   146   ar
    84    90    88   ar
    85    94    93    1
    86    94    97    1
    87   137   138    1
    88   139   138    2
    89   144   141    1
    90    87    88   ar
    91    87    86    1
    92    20    19    2
    93    81    79   ar
    94   138   140   am
    95    19    18    1
    96    76    75    2
    97    18    17    1
    98   140   141    1
    99    83    86    1
   100    83    82    1
   101   141   142    1
   102    17    11   am
   103    79    80   ar
   104    79    78    1
   105    16    14   ar
   106    75    74    1
   107    77    74    1
   108    77    78    1
   109    14    15   ar
   110    14    13    1
   111    74    73    1
   112    13    10    1
   113    11    10    1
   114    11    12    2
   115    10     9    1
   116   142   148   am
   117   142   143    2
   118   148   149    1
   119   179   177    1
   120     7     6    1
   121   154   156   ar
   122   154   153   ar
   123   156   158   ar
   124    67    66    2
   125   177   176    2
   126   177   178    1
   127   151   150    2
   128     4     3    2
   129   176   175    1
   130    73    66   am
   131     9     3   am
   132   175   174    1
   133   149   152    1
   134   149   150    1
   135    66    65    1
   136   152   153    1
   137     3     2    1
   138   174   173    1
   139   153   155   ar
   140   169   170    1
   141    54    53   ar
   142   158   159    1
   143   158   157   ar
   144     6     8    1
   145     6     5    1
   146    45    43   ar
   147    45    47   ar
   148    43    42   ar
   149    47    46   ar
   150    42    41    1
   151    42    44   ar
   152    55    53   ar
   153     5     2    1
   154   173   170    1
   155   170   171    1
   156    41    38    1
   157    53    52    1
   158   155   157   ar
   159    46    44   ar
   160     2     1    1
   161    72    70   ar
   162    69    68    1
   163    69    70    1
   164    65    68    1
   165    65    64    1
   166    70    71   ar
   167    38    37    1
   168    38    39    1
   169   171   172    2
   170    52    49    1
   171    49    50    1
   172    49    48    1
   173    50    51    2
   174    39    40    2
