@<TRIPOS>MOLECULE
tmp/4qsdA00.pdb
 162 157 0 0 0
SMALL
GASTEIGER

@<TRIPOS>ATOM
      1  N         16.1430  -53.6530   21.7030 N.3     9  LEU9       -0.1231
      2  CA        17.2500  -54.2620   20.9390 C.3     9  LEU9        0.1693
      3  C         17.5140  -53.5460   19.6190 C.2     9  LEU9        0.2592
      4  O         18.5190  -53.7870   18.9660 O.2     9  LEU9       -0.2718
      5  CB        16.9470  -55.7430   20.6550 C.3     9  LEU9        0.0284
      6  CG        17.0240  -56.6630   21.8700 C.3     9  LEU9        0.0019
      7  CD1       16.2930  -57.9670   21.6240 C.3     9  LEU9        0.0001
      8  CD2       18.4090  -56.9630   22.3020 C.3     9  LEU9        0.0001
      9  N         16.6370  -52.6310   19.2000 N.am   10  ASP10      -0.1960
     10  CA        16.7470  -52.0580   17.8810 C.3    10  ASP10       0.1840
     11  C         18.0910  -51.3620   17.6620 C.2    10  ASP10       0.2621
     12  O         18.5770  -50.5630   18.4790 O.2    10  ASP10      -0.2715
     13  CB        15.6000  -51.0140   17.6510 C.3    10  ASP10       0.1450
     14  CG        14.2590  -51.6370   17.3080 C.2    10  ASP10       0.3671
     15  OD1       14.1170  -52.8650   17.3980 O.co2  10  ASP10      -0.2456
     16  OD2       13.3260  -50.8530   16.9710 O.co2  10  ASP10      -0.2456
     17  N         18.6630  -51.6780   16.5050 N.am   11  ARG11      -0.1977
     18  CA        19.8730  -51.0640   16.0060 C.3    11  ARG11       0.1597
     19  C         19.6090  -49.6630   15.5010 C.2    11  ARG11       0.2287
     20  O         18.4460  -49.2210   15.3410 O.2    11  ARG11      -0.2864
     21  CB        20.4220  -51.9200   14.8480 C.3    11  ARG11       0.0334
     22  CG        20.8040  -53.3370   15.2660 C.3    11  ARG11       0.0492
     23  CD        21.0920  -54.2880   14.0850 C.3    11  ARG11       0.2205
     24  NE        21.3730  -55.6500   14.5570 N.pl3  11  ARG11      -0.0865
     25  CZ        22.5850  -56.1090   14.8580 C.cat  11  ARG11       0.5346
     26  NH1       22.7610  -57.3420   15.3230 N.pl3  11  ARG11       0.1354
     27  NH2       23.6280  -55.3250   14.7600 N.pl3  11  ARG11       0.1354
     28  N         17.1760  -49.3610   12.7520 N.3    14  GLN14      -0.1245
     29  CA        15.8550  -49.9430   13.0110 C.3    14  GLN14       0.1566
     30  C         14.9930  -48.8810   13.7440 C.2    14  GLN14       0.2260
     31  O         15.4350  -47.8060   14.0580 O.2    14  GLN14      -0.2867
     32  CB        16.0390  -51.2250   13.8750 C.3    14  GLN14       0.0367
     33  CG        16.6350  -52.3140   13.0270 C.3    14  GLN14       0.0905
     34  CD        16.9420  -53.5900   13.7200 C.2    14  GLN14       0.2608
     35  OE1       17.4260  -53.5970   14.8490 O.2    14  GLN14      -0.2717
     36  NE2       16.6680  -54.6960   13.0320 N.am   14  GLN14      -0.0878
     37  N         10.0010  -58.8000   23.4130 N.3    62  ASP62      -0.1239
     38  CA         9.6550  -59.7790   22.4220 C.3    62  ASP62       0.1674
     39  C          8.2720  -60.3300   22.8020 C.2    62  ASP62       0.2266
     40  O          8.0130  -60.6310   23.9760 O.2    62  ASP62      -0.2867
     41  CB        10.6920  -60.8820   22.3400 C.3    62  ASP62       0.1410
     42  CG        10.6770  -61.6320   21.0450 C.2    62  ASP62       0.3668
     43  OD1        9.8280  -61.3750   20.1550 O.co2  62  ASP62      -0.2456
     44  OD2       11.5460  -62.5460   20.8780 O.co2  62  ASP62      -0.2456
     45  N          5.9640  -60.0350   12.4910 N.3   115  ASN115     -0.1240
     46  CA         6.7260  -60.6120   11.4000 C.3   115  ASN115      0.1653
     47  C          6.5780  -62.1100   11.4080 C.2   115  ASN115      0.2266
     48  O          5.9950  -62.6890   12.3390 O.2   115  ASN115     -0.2867
     49  CB         8.1830  -60.1460   11.4380 C.3   115  ASN115      0.1155
     50  CG         9.0080  -60.7610   12.5540 C.2   115  ASN115      0.2627
     51  OD1        9.0000  -61.9790   12.7270 O.2   115  ASN115     -0.2716
     52  ND2        9.6930  -59.9290   13.3080 N.am  115  ASN115     -0.0877
     53  N         16.3910  -67.8550   21.7560 N.3   168  GLU168     -0.1231
     54  CA        15.1330  -67.7450   21.0550 C.3   168  GLU168      0.1699
     55  C         15.2750  -67.8530   19.5470 C.2   168  GLU168      0.2592
     56  O         14.3290  -68.1730   18.8420 O.2   168  GLU168     -0.2718
     57  CB        14.3340  -66.5190   21.4460 C.3   168  GLU168      0.0402
     58  CG        12.8470  -66.5420   21.0960 C.3   168  GLU168      0.1161
     59  CD        12.0610  -67.6540   21.7690 C.2   168  GLU168      0.3649
     60  OE1       12.4870  -68.1580   22.8220 O.co2 168  GLU168     -0.2457
     61  OE2       11.0300  -68.0730   21.2080 O.co2 168  GLU168     -0.2457
     62  N         16.4340  -67.4820   19.0200 N.am  169  GLU169     -0.1979
     63  CA        16.7040  -67.5710   17.5790 C.3   169  GLU169      0.1602
     64  C         16.3930  -68.9970   17.0610 C.2   169  GLU169      0.2287
     65  O         15.6800  -69.1790   16.0860 O.2   169  GLU169     -0.2864
     66  CB        18.1490  -67.1900   17.2200 C.3   169  GLU169      0.0415
     67  CG        18.6460  -65.8160   17.7860 C.3   169  GLU169      0.1163
     68  CD        18.6690  -64.6220   16.8520 C.2   169  GLU169      0.3649
     69  OE1       18.9840  -63.5120   17.4080 O.co2 169  GLU169     -0.2457
     70  OE2       18.3920  -64.7190   15.6720 O.co2 169  GLU169     -0.2457
     71  N         12.6270  -69.9880   17.3740 N.3   172  PHE172     -0.1241
     72  CA        11.8090  -69.2590   16.4070 C.3   172  PHE172      0.1605
     73  C         11.9970  -69.8470   15.0260 C.2   172  PHE172      0.2264
     74  O         11.0790  -69.9380   14.2030 O.2   172  PHE172     -0.2867
     75  CB        12.2100  -67.7940   16.4340 C.3   172  PHE172      0.0534
     76  CG        11.3750  -66.8800   15.5910 C.ar  172  PHE172     -0.0203
     77  CD1       10.0420  -66.7090   15.8790 C.ar  172  PHE172     -0.0042
     78  CD2       11.9420  -66.1510   14.5500 C.ar  172  PHE172     -0.0042
     79  CE1        9.2640  -65.8460   15.1540 C.ar  172  PHE172     -0.0003
     80  CE2       11.1450  -65.2760   13.8550 C.ar  172  PHE172     -0.0003
     81  CZ         9.8210  -65.1230   14.1250 C.ar  172  PHE172     -0.0000
     82  N         20.2050  -65.1920   13.5060 N.3   218  GLN218     -0.1231
     83  CA        19.5840  -65.0300   12.1830 C.3   218  GLN218      0.1698
     84  C         20.2250  -63.8730   11.4120 C.2   218  GLN218      0.2592
     85  O         20.5150  -63.9870   10.2170 O.2   218  GLN218     -0.2718
     86  CB        18.0690  -64.7610   12.3230 C.3   218  GLN218      0.0381
     87  CG        17.3240  -65.9470   12.9730 C.3   218  GLN218      0.0905
     88  CD        15.8910  -65.5340   13.2810 C.2   218  GLN218      0.2608
     89  OE1       14.9710  -65.8600   12.5230 O.2   218  GLN218     -0.2717
     90  NE2       15.7100  -64.8630   14.3870 N.am  218  GLN218     -0.0878
     91  N         20.4480  -62.7380   12.1000 N.am  219  TRP219     -0.1976
     92  CA        21.0280  -61.5280   11.4690 C.3   219  TRP219      0.1640
     93  C         22.4400  -61.8670   10.9330 C.2   219  TRP219      0.2290
     94  O         22.7920  -61.5310    9.8100 O.2   219  TRP219     -0.2864
     95  CB        21.0800  -60.4240   12.5210 C.3   219  TRP219      0.0576
     96  CG        21.6320  -59.1210   12.0970 C.ar  219  TRP219      0.0006
     97  CD1       22.8590  -58.6190   12.4090 C.ar  219  TRP219      0.0946
     98  CD2       20.9330  -58.0760   11.4100 C.ar  219  TRP219      0.0152
     99  NE1       22.9710  -57.3500   11.9000 N.ar  219  TRP219     -0.2442
    100  CE2       21.8060  -56.9730   11.3120 C.ar  219  TRP219      0.0810
    101  CE3       19.6940  -57.9900   10.8010 C.ar  219  TRP219      0.0012
    102  CZ2       21.4490  -55.8050   10.6300 C.ar  219  TRP219      0.0191
    103  CZ3       19.3350  -56.8470   10.1580 C.ar  219  TRP219      0.0001
    104  CH2       20.1790  -55.7510   10.1010 C.ar  219  TRP219      0.0015
    105  N         13.0030  -57.9830    8.6800 N.3   238  TRP238     -0.1241
    106  CA        14.0120  -57.1090    9.2440 C.3   238  TRP238      0.1605
    107  C         15.3260  -57.1110    8.4740 C.2   238  TRP238      0.2264
    108  O         16.1700  -56.2720    8.7230 O.2   238  TRP238     -0.2867
    109  CB        14.2700  -57.5020   10.7230 C.3   238  TRP238      0.0550
    110  CG        14.8590  -58.8790   10.8620 C.ar  238  TRP238      0.0003
    111  CD1       16.1640  -59.2840   10.6210 C.ar  238  TRP238      0.0946
    112  CD2       14.1800  -60.0930   11.2720 C.ar  238  TRP238      0.0152
    113  NE1       16.3240  -60.5790   10.8600 N.ar  238  TRP238     -0.2442
    114  CE2       15.1220  -61.1290   11.2350 C.ar  238  TRP238      0.0810
    115  CE3       12.8530  -60.3970   11.6810 C.ar  238  TRP238      0.0012
    116  CZ2       14.7930  -62.4470   11.5760 C.ar  238  TRP238      0.0191
    117  CZ3       12.5320  -61.7000   11.9970 C.ar  238  TRP238      0.0001
    118  CH2       13.4930  -62.6990   11.9690 C.ar  238  TRP238      0.0015
    119  N          6.3470  -63.4430   14.9430 N.3   270  GLY270     -0.1210
    120  CA         7.4900  -62.6770   15.4190 C.3   270  GLY270      0.1956
    121  C          7.1450  -61.2750   15.8390 C.2   270  GLY270      0.2612
    122  O          6.0580  -60.7380   15.5090 O.2   270  GLY270     -0.2717
    123  N          8.1410  -60.6300   16.4420 N.am  271  ASP271     -0.1959
    124  CA         8.2680  -59.2120   16.6820 C.3   271  ASP271      0.1840
    125  C          7.7840  -58.7820   18.0650 C.2   271  ASP271      0.2622
    126  O          7.3660  -59.6230   18.8880 O.2   271  ASP271     -0.2715
    127  CB         7.7750  -58.3130   15.5020 C.3   271  ASP271      0.1450
    128  CG         8.7660  -57.2200   15.1460 C.2   271  ASP271      0.3671
    129  OD1        9.0900  -56.4270   16.0670 O.co2 271  ASP271     -0.2456
    130  OD2        9.1970  -57.1550   13.9840 O.co2 271  ASP271     -0.2456
    131  N          7.9070  -57.4850   18.3310 N.am  272  TYR272     -0.1974
    132  CA         7.9560  -56.9660   19.6920 C.3   272  TYR272      0.1639
    133  C          6.6960  -56.1610   19.9940 C.2   272  TYR272      0.2290
    134  O          5.9330  -55.7560   19.1060 O.2   272  TYR272     -0.2864
    135  CB         9.2290  -56.0830   19.8530 C.3   272  TYR272      0.0560
    136  CG        10.5200  -56.8720   19.7720 C.ar  272  TYR272     -0.0198
    137  CD1       10.9670  -57.4680   18.5780 C.ar  272  TYR272     -0.0009
    138  CD2       11.2210  -57.1470   20.9020 C.ar  272  TYR272     -0.0009
    139  CE1       12.0590  -58.2900   18.5730 C.ar  272  TYR272      0.0417
    140  CE2       12.3650  -57.9930   20.8930 C.ar  272  TYR272      0.0417
    141  CZ        12.7170  -58.5840   19.7130 C.ar  272  TYR272      0.1957
    142  OH        13.8580  -59.3730   19.6680 O.3   272  TYR272     -0.2866
    143  N         10.1550  -52.9580    8.0980 N.3   306  GLN306     -0.1245
    144  CA         9.4340  -53.7700    9.0830 C.3   306  GLN306      0.1566
    145  C          7.9440  -53.5750    8.9120 C.2   306  GLN306      0.2260
    146  O          7.4620  -52.6490    8.2350 O.2   306  GLN306     -0.2867
    147  CB         9.9100  -53.4590   10.4750 C.3   306  GLN306      0.0367
    148  CG        11.3700  -53.8230   10.6710 C.3   306  GLN306      0.0905
    149  CD        11.8380  -53.6500   12.1100 C.2   306  GLN306      0.2608
    150  OE1       11.0290  -53.3650   13.0470 O.2   306  GLN306     -0.2717
    151  NE2       13.1190  -53.8940   12.3520 N.am  306  GLN306     -0.0878
    152  N          3.6150  -68.0260   19.9460 N.3   340  ARG340     -0.1245
    153  CA         4.3300  -68.7730   20.9600 C.3   340  ARG340      0.1563
    154  C          3.6370  -68.4370   22.2580 C.2   340  ARG340      0.2260
    155  O          3.8450  -67.4110   22.8220 O.2   340  ARG340     -0.2867
    156  CB         5.7980  -68.3490   20.9840 C.3   340  ARG340      0.0307
    157  CG         6.5620  -68.8810   19.7740 C.3   340  ARG340      0.0489
    158  CD         7.9290  -68.2480   19.6440 C.3   340  ARG340      0.2205
    159  NE         7.7790  -66.8810   19.1750 N.pl3 340  ARG340     -0.0865
    160  CZ         8.7460  -65.9880   18.9890 C.cat 340  ARG340      0.5346
    161  NH1        9.9900  -66.3070   19.3090 N.pl3 340  ARG340      0.1354
    162  NH2        8.4630  -64.8180   18.4510 N.pl3 340  ARG340      0.1354
@<TRIPOS>BOND
     1   143   144    1
     2   146   145    2
     3   107   108    2
     4   107   106    1
     5   105   106    1
     6   145   144    1
     7   144   147    1
     8   106   109    1
     9    94    93    2
    10   104   103   ar
    11   104   102   ar
    12   103   101   ar
    13    85    84    2
    14   147   148    1
    15   111   113   ar
    16   111   110   ar
    17   102   100   ar
    18   148   149    1
    19   109   110    1
    20   101    98   ar
    21   113   114   ar
    22   110   112   ar
    23    93    92    1
    24   114   112   ar
    25   114   116   ar
    26   112   115   ar
    27   100    98   ar
    28   100    99   ar
    29    46    47    1
    30    46    49    1
    31    46    45    1
    32    47    48    2
    33    98    96   ar
    34    84    91   am
    35    84    83    1
    36    49    50    1
    37    92    91    1
    38    92    95    1
    39   116   118   ar
    40   115   117   ar
    41    99    97   ar
    42   118   117   ar
    43    96    97   ar
    44    96    95    1
    45   149   151   am
    46   149   150    2
    47    83    86    1
    48    83    82    1
    49    86    87    1
    50    89    88    2
    51    50    51    2
    52    50    52   am
    53    28    29    1
    54    87    88    1
    55    29    30    1
    56    29    32    1
    57    33    34    1
    58    33    32    1
    59    36    34   am
    60    88    90   am
    61    34    35    2
    62    30    31    2
    63    80    81   ar
    64    80    78   ar
    65   130   128   ar
    66    23    24    1
    67    23    22    1
    68    81    79   ar
    69    74    73    2
    70    78    76   ar
    71    24    25    2
    72    27    25    1
    73    21    22    1
    74    21    18    1
    75    25    26    1
    76   119   120    1
    77    73    72    1
    78   128   127    1
    79   128   129   ar
    80    79    77   ar
    81    20    19    2
    82   120   121    1
    83    19    18    1
    84   127   124    1
    85   122   121    2
    86    76    77   ar
    87    76    75    1
    88    70    68   ar
    89   121   123   am
    90    18    17    1
    91    65    64    2
    92    72    75    1
    93    72    71    1
    94   123   124    1
    95    17    11   am
    96   124   125    1
    97    68    69   ar
    98    68    67    1
    99    16    14   ar
   100    64    63    1
   101    66    63    1
   102    66    67    1
   103    14    15   ar
   104    14    13    1
   105    63    62    1
   106    13    10    1
   107    11    10    1
   108    11    12    2
   109    10     9    1
   110   125   131   am
   111   125   126    2
   112   131   132    1
   113   162   160    1
   114   139   137   ar
   115   139   141   ar
   116   137   136   ar
   117    56    55    2
   118     4     3    2
   119   160   159    2
   120   160   161    1
   121    62    55   am
   122   134   133    2
   123   159   158    1
   124     9     3   am
   125    55    54    1
   126     3     2    1
   127   158   157    1
   128   142   141    1
   129   132   135    1
   130   132   133    1
   131   141   140   ar
   132   136   135    1
   133   136   138   ar
   134   157   156    1
   135   152   153    1
   136    43    42   ar
   137     5     2    1
   138     5     6    1
   139    44    42   ar
   140   140   138   ar
   141     2     1    1
   142   153   156    1
   143   153   154    1
   144    42    41    1
   145    54    57    1
   146    54    53    1
   147    58    57    1
   148    58    59    1
   149    61    59   ar
   150     7     6    1
   151    59    60   ar
   152     6     8    1
   153   154   155    2
   154    41    38    1
   155    38    39    1
   156    38    37    1
   157    39    40    2
