@<TRIPOS>MOLECULE
tmp/4qsiA01.pdb
 181 176 0 0 0
SMALL
GASTEIGER

@<TRIPOS>ATOM
      1  N          8.5560   -0.4950   10.4900 N.3     2  TRP2       -0.1241
      2  CA         7.8750   -1.4610   11.3830 C.3     2  TRP2        0.1605
      3  C          6.9230   -2.2720   10.5990 C.2     2  TRP2        0.2264
      4  O          6.4210   -1.8220    9.5740 O.2     2  TRP2       -0.2867
      5  CB         7.1640   -0.7510   12.5500 C.3     2  TRP2        0.0550
      6  CG         5.9410    0.0780   12.1510 C.ar    2  TRP2        0.0003
      7  CD1        5.8850    1.4420   11.8310 C.ar    2  TRP2        0.0946
      8  CD2        4.5510   -0.4010   12.0280 C.ar    2  TRP2        0.0152
      9  NE1        4.5740    1.8190   11.5800 N.ar    2  TRP2       -0.2442
     10  CE2        3.7390    0.7610   11.6550 C.ar    2  TRP2        0.0810
     11  CE3        3.9210   -1.6290   12.2250 C.ar    2  TRP2        0.0012
     12  CZ2        2.3600    0.6720   11.4650 C.ar    2  TRP2        0.0191
     13  CZ3        2.5220   -1.6970   12.0480 C.ar    2  TRP2        0.0001
     14  CH2        1.7710   -0.5750   11.6770 C.ar    2  TRP2        0.0015
     15  N         -3.1790    0.3570    3.5580 N.3    59  ASN59      -0.1240
     16  CA        -2.1120    1.2690    3.9630 C.3    59  ASN59       0.1653
     17  C         -0.8660    0.4560    4.2250 C.2    59  ASN59       0.2266
     18  O          0.0550    0.9340    4.9080 O.2    59  ASN59      -0.2867
     19  CB        -2.4930    2.0460    5.2380 C.3    59  ASN59       0.1155
     20  CG        -2.7200    1.1250    6.4570 C.2    59  ASN59       0.2627
     21  OD1       -2.2970   -0.0320    6.4860 O.2    59  ASN59      -0.2716
     22  ND2       -3.4140    1.6470    7.4620 N.am   59  ASN59      -0.0877
     23  N         -0.5890   -2.0580    6.2620 N.3    61  HIS61      -0.1226
     24  CA        -0.6580   -2.7080    7.6030 C.3    61  HIS61       0.1752
     25  C         -2.0110   -3.3870    7.7780 C.2    61  HIS61       0.2595
     26  O         -2.0990   -4.4240    8.4200 O.2    61  HIS61      -0.2718
     27  CB        -0.4030   -1.6960    8.7480 C.3    61  HIS61       0.0759
     28  CG         0.9220   -0.9490    8.6110 C.ar   61  HIS61       0.0818
     29  ND1        2.1490   -1.5590    8.8230 N.ar   61  HIS61      -0.2268
     30  CD2        1.2020    0.3430    8.1690 C.ar   61  HIS61       0.1154
     31  CE1        3.1450   -0.6790    8.5630 C.ar   61  HIS61       0.1986
     32  NE2        2.5740    0.4840    8.1520 N.ar   61  HIS61      -0.2212
     33  N         -3.0570   -2.7830    7.2290 N.am   62  ALA62      -0.1980
     34  CA        -4.4000   -3.3000    7.2750 C.3    62  ALA62       0.1597
     35  C         -5.1880   -2.6080    6.1630 C.2    62  ALA62       0.2287
     36  O         -4.6030   -1.8640    5.3620 O.2    62  ALA62      -0.2864
     37  CB        -5.0390   -3.0350    8.6740 C.3    62  ALA62       0.0319
     38  N         -8.2080    0.3350    5.7740 N.3    64  ASN64      -0.1240
     39  CA        -9.0620    1.2600    6.5100 C.3    64  ASN64       0.1653
     40  C        -10.2610    1.6870    5.7000 C.2    64  ASN64       0.2266
     41  O        -10.1360    2.1590    4.5570 O.2    64  ASN64      -0.2867
     42  CB        -8.3300    2.5610    6.9520 C.3    64  ASN64       0.1155
     43  CG        -7.2020    2.3030    7.9410 C.2    64  ASN64       0.2627
     44  OD1       -7.1350    1.2370    8.5360 O.2    64  ASN64      -0.2716
     45  ND2       -6.2790    3.2930    8.1030 N.am   64  ASN64      -0.0877
     46  N        -12.5890    6.1510   11.2250 N.3    89  GLN89      -0.1245
     47  CA       -12.2720    4.9950   10.3480 C.3    89  GLN89       0.1566
     48  C        -12.5110    3.7130   11.1260 C.2    89  GLN89       0.2260
     49  O        -12.5980    3.7930   12.3330 O.2    89  GLN89      -0.2867
     50  CB       -10.8220    5.0490    9.7930 C.3    89  GLN89       0.0367
     51  CG        -9.6380    5.0810   10.7740 C.3    89  GLN89       0.0905
     52  CD        -8.9740    3.7310   11.0130 C.2    89  GLN89       0.2608
     53  OE1       -9.6260    2.6930   11.1330 O.2    89  GLN89      -0.2717
     54  NE2       -7.6700    3.7560   11.1890 N.am   89  GLN89      -0.0878
     55  N        -10.9650   -0.6500   10.8470 N.3    91  HIS91      -0.1241
     56  CA       -10.0090   -1.5150   10.2010 C.3    91  HIS91       0.1621
     57  C        -10.1190   -2.7620   11.0280 C.2    91  HIS91       0.2264
     58  O        -10.8550   -2.7780   12.0580 O.2    91  HIS91      -0.2867
     59  CB        -8.5440   -0.9350   10.2160 C.3    91  HIS91       0.0745
     60  CG        -8.0540   -0.6480   11.6340 C.ar   91  HIS91       0.0817
     61  ND1       -8.3540    0.4880   12.2910 N.ar   91  HIS91      -0.2268
     62  CD2       -7.3290   -1.4400   12.5350 C.ar   91  HIS91       0.1154
     63  CE1       -7.8120    0.4480   13.5300 C.ar   91  HIS91       0.1986
     64  NE2       -7.1850   -0.7270   13.6750 N.ar   91  HIS91      -0.2212
     65  N         -7.8270   -6.5310   12.3490 N.3    93  HIS93      -0.1241
     66  CA        -6.5990   -7.3240   12.4310 C.3    93  HIS93       0.1621
     67  C         -7.0240   -8.7530   12.3180 C.2    93  HIS93       0.2264
     68  O         -8.0790   -9.0860   12.8610 O.2    93  HIS93      -0.2867
     69  CB        -5.9500   -7.0990   13.7790 C.3    93  HIS93       0.0745
     70  CG        -5.6740   -5.6200   14.0680 C.ar   93  HIS93       0.0817
     71  ND1       -4.4720   -5.0680   13.8330 N.ar   93  HIS93      -0.2268
     72  CD2       -6.5000   -4.5820   14.5360 C.ar   93  HIS93       0.1154
     73  CE1       -4.4770   -3.7730   14.2420 C.ar   93  HIS93       0.1986
     74  NE2       -5.7160   -3.4530   14.6020 N.ar   93  HIS93      -0.2212
     75  N        -11.8380   -2.6560   14.7730 N.3   116  HIS116     -0.1241
     76  CA       -11.5980   -1.4740   15.5740 C.3   116  HIS116      0.1621
     77  C        -12.2720   -0.3010   14.9140 C.2   116  HIS116      0.2264
     78  O        -11.9530   -0.0100   13.7500 O.2   116  HIS116     -0.2867
     79  CB       -10.0960   -1.2340   15.6390 C.3   116  HIS116      0.0745
     80  CG        -9.3740   -2.2440   16.5460 C.ar  116  HIS116      0.0817
     81  ND1       -8.0120   -2.4160   16.5730 N.ar  116  HIS116     -0.2268
     82  CD2       -9.8840   -3.0980   17.5180 C.ar  116  HIS116      0.1154
     83  CE1       -7.6910   -3.3530   17.5020 C.ar  116  HIS116      0.1986
     84  NE2       -8.8160   -3.7940   18.0530 N.ar  116  HIS116     -0.2212
     85  N        -12.6210    3.4470   15.1600 N.3   118  VAL118     -0.1245
     86  CA       -11.7380    4.4380   15.8320 C.3   118  VAL118      0.1561
     87  C        -12.4780    5.7630   15.8640 C.2   118  VAL118      0.2260
     88  O        -12.9290    6.2230   14.7980 O.2   118  VAL118     -0.2867
     89  CB       -10.4090    4.6260   15.0410 C.3   118  VAL118      0.0252
     90  CG1       -9.4370    5.6230   15.7140 C.3   118  VAL118      0.0019
     91  CG2       -9.7180    3.2900   14.7840 C.3   118  VAL118      0.0019
     92  N         -8.1910   14.5020   14.5540 N.3   127  PHE127     -0.1241
     93  CA        -7.5870   13.2480   14.9310 C.3   127  PHE127      0.1605
     94  C         -6.1190   13.4380   15.3640 C.2   127  PHE127      0.2264
     95  O         -5.6930   12.8490   16.3510 O.2   127  PHE127     -0.2867
     96  CB        -7.7210   12.2310   13.7800 C.3   127  PHE127      0.0534
     97  CG        -7.0370   10.9460   14.0560 C.ar  127  PHE127     -0.0203
     98  CD1       -7.6870    9.9120   14.7880 C.ar  127  PHE127     -0.0042
     99  CD2       -5.7260   10.7430   13.6620 C.ar  127  PHE127     -0.0042
    100  CE1       -7.0360    8.7160   15.0730 C.ar  127  PHE127     -0.0003
    101  CE2       -5.0820    9.5510   13.9580 C.ar  127  PHE127     -0.0003
    102  CZ        -5.7380    8.5390   14.6720 C.ar  127  PHE127     -0.0000
    103  N         -4.7050   12.3940   19.2980 N.3   131  VAL131     -0.1245
    104  CA        -3.7840   11.2790   19.6350 C.3   131  VAL131      0.1561
    105  C         -2.6750   11.7250   20.5520 C.2   131  VAL131      0.2260
    106  O         -1.9610   10.8810   21.1370 O.2   131  VAL131     -0.2867
    107  CB        -3.1810   10.4890   18.4160 C.3   131  VAL131      0.0252
    108  CG1       -4.3070    9.8890   17.5980 C.3   131  VAL131      0.0019
    109  CG2       -2.3680   11.4070   17.5240 C.3   131  VAL131      0.0019
    110  N         -8.8480    9.4290   22.1340 N.3   137  LEU137     -0.1245
    111  CA        -9.5150    8.4480   21.2760 C.3   137  LEU137      0.1561
    112  C        -10.4250    7.5110   22.0840 C.2   137  LEU137      0.2260
    113  O        -10.1740    7.2470   23.2860 O.2   137  LEU137     -0.2867
    114  CB        -8.4490    7.5810   20.5670 C.3   137  LEU137      0.0270
    115  CG        -7.5230    8.2220   19.4840 C.3   137  LEU137      0.0019
    116  CD1       -6.8240    7.1930   18.5800 C.3   137  LEU137      0.0001
    117  CD2       -8.2430    9.3270   18.6270 C.3   137  LEU137      0.0001
    118  N        -11.8640    3.6480   21.1980 N.3   139  VAL139     -0.1245
    119  CA       -11.8970    2.6740   20.1140 C.3   139  VAL139      0.1561
    120  C        -12.8660    1.5610   20.5400 C.2   139  VAL139      0.2260
    121  O        -12.7780    1.0430   21.6740 O.2   139  VAL139     -0.2867
    122  CB       -10.5200    2.0850   19.7250 C.3   139  VAL139      0.0252
    123  CG1      -10.6370    1.0630   18.5780 C.3   139  VAL139      0.0019
    124  CG2       -9.5280    3.1590   19.3370 C.3   139  VAL139      0.0019
    125  N         -2.8380    3.0750   21.0880 N.3   194  LEU194     -0.1231
    126  CA        -2.8520    2.4760   19.7370 C.3   194  LEU194      0.1693
    127  C         -2.1170    1.1550   19.8060 C.2   194  LEU194      0.2593
    128  O         -1.1140    1.0120   20.5590 O.2   194  LEU194     -0.2718
    129  CB        -2.1370    3.3190   18.6750 C.3   194  LEU194      0.0284
    130  CG        -2.3200    4.8490   18.7620 C.3   194  LEU194      0.0019
    131  CD1       -1.3670    5.5640   17.8340 C.3   194  LEU194      0.0001
    132  CD2       -3.7510    5.2690   18.5410 C.3   194  LEU194      0.0001
    133  N         -2.5670    0.1860   19.0080 N.am  195  THR195     -0.1939
    134  CA        -1.9150   -1.0820   18.9660 C.3   195  THR195      0.2028
    135  C         -0.9060   -1.2010   17.8250 C.2   195  THR195      0.2643
    136  O         -0.3070   -2.2980   17.6540 O.2   195  THR195     -0.2714
    137  CB        -2.9090   -2.2510   18.8560 C.3   195  THR195      0.1808
    138  OG1       -3.5900   -2.2010   17.5850 O.3   195  THR195     -0.2208
    139  CG2       -3.8710   -2.3060   20.0580 C.3   195  THR195      0.0379
    140  N         -0.7590   -0.1190   17.0390 N.am  196  THR196     -0.1937
    141  CA         0.2780   -0.0020   16.0780 C.3   196  THR196      0.2013
    142  C          1.1340    1.2410   16.3910 C.2   196  THR196      0.2484
    143  O          0.6390    2.1920   16.9940 O.2   196  THR196     -0.2729
    144  CB        -0.2560    0.2660   14.6740 C.3   196  THR196      0.1807
    145  OG1       -1.1070    1.4350   14.7170 O.3   196  THR196     -0.2208
    146  CG2       -0.9710   -0.9520   14.1680 C.3   196  THR196      0.0379
    147  N          2.4020    1.2140   15.9540 N.am  197  PRO197     -0.2715
    148  CA         3.1660    2.4460   16.1160 C.3   197  PRO197      0.1521
    149  C          2.3410    3.6140   15.5500 C.2   197  PRO197      0.2440
    150  O          1.6620    3.4540   14.5060 O.2   197  PRO197     -0.2731
    151  CB         4.4500    2.1780   15.3110 C.3   197  PRO197      0.0310
    152  CG         4.6060    0.6920   15.3540 C.3   197  PRO197      0.0237
    153  CD         3.2090    0.1210   15.3680 C.3   197  PRO197      0.0939
    154  N          2.4020    4.7900   16.1970 N.am  198  PRO198     -0.2727
    155  CA         3.3410    5.1600   17.2970 C.3   198  PRO198      0.1402
    156  C          2.9440    4.7420   18.7320 C.2   198  PRO198      0.2269
    157  O          3.6320    5.1520   19.6950 O.2   198  PRO198     -0.2865
    158  CB         3.4250    6.7010   17.1770 C.3   198  PRO198      0.0296
    159  CG         2.0960    7.0970   16.6610 C.3   198  PRO198      0.0237
    160  CD         1.6640    5.9770   15.6780 C.3   198  PRO198      0.0939
    161  N         -5.9090    6.1400   24.1830 N.3   203  VAL203     -0.1245
    162  CA        -7.1510    5.3780   23.8520 C.3   203  VAL203      0.1561
    163  C         -7.9370    4.9340   25.0850 C.2   203  VAL203      0.2260
    164  O         -7.3980    4.2810   25.9750 O.2   203  VAL203     -0.2867
    165  CB        -6.8740    4.0970   23.0000 C.3   203  VAL203      0.0252
    166  CG1       -8.2440    3.4590   22.5970 C.3   203  VAL203      0.0019
    167  CG2       -6.0460    4.4320   21.6990 C.3   203  VAL203      0.0019
    168  N        -10.3520    2.0940   25.6160 N.3   205  TRP205     -0.1241
    169  CA       -10.7490    0.9020   24.8900 C.3   205  TRP205      0.1605
    170  C        -12.0780    0.4600   25.4030 C.2   205  TRP205      0.2264
    171  O        -12.3030    0.4250   26.6490 O.2   205  TRP205     -0.2867
    172  CB        -9.7180   -0.2630   25.1050 C.3   205  TRP205      0.0550
    173  CG        -8.6260   -0.1460   24.0960 C.ar  205  TRP205      0.0003
    174  CD1       -7.3760    0.4510   24.2410 C.ar  205  TRP205      0.0946
    175  CD2       -8.7220   -0.5070   22.6810 C.ar  205  TRP205      0.0152
    176  NE1       -6.7080    0.4530   23.0410 N.ar  205  TRP205     -0.2442
    177  CE2       -7.4250   -0.1640   22.0870 C.ar  205  TRP205      0.0810
    178  CE3       -9.7120   -1.1600   21.8810 C.ar  205  TRP205      0.0012
    179  CZ2       -7.1680   -0.3600   20.7430 C.ar  205  TRP205      0.0191
    180  CZ3       -9.4160   -1.3760   20.5250 C.ar  205  TRP205      0.0001
    181  CH2       -8.1710   -1.0300   19.9960 C.ar  205  TRP205      0.0015
@<TRIPOS>BOND
     1    15    16    1
     2    16    17    1
     3    16    19    1
     4    17    18    2
     5    41    40    2
     6    19    20    1
     7    36    35    2
     8    40    39    1
     9    38    39    1
    10    35    34    1
    11    23    24    1
    12    20    21    2
    13    20    22   am
    14    39    42    1
    15    42    43    1
    16    33    34    1
    17    33    25   am
    18    34    37    1
    19    24    25    1
    20    24    27    1
    21    25    26    2
    22    43    45   am
    23    43    44    2
    24    32    30   ar
    25    32    31   ar
    26    30    28   ar
    27    31    29   ar
    28    28    27    1
    29    28    29   ar
    30     4     3    2
    31    50    47    1
    32    50    51    1
    33    56    59    1
    34    56    55    1
    35    56    57    1
    36    59    60    1
    37    47    48    1
    38    47    46    1
    39     1     2    1
    40     3     2    1
    41    51    52    1
    42    52    53    2
    43    52    54   am
    44    57    58    2
    45    48    49    2
    46     2     5    1
    47    12    10   ar
    48    12    14   ar
    49     9    10   ar
    50     9     7   ar
    51    60    61   ar
    52    60    62   ar
    53    10     8   ar
    54    14    13   ar
    55     7     6   ar
    56     8     6   ar
    57     8    11   ar
    58    13    11   ar
    59     6     5    1
    60    61    63   ar
    61    67    66    1
    62    67    68    2
    63    65    66    1
    64    66    69    1
    65    62    64   ar
    66    63    64   ar
    67    99   101   ar
    68    99    97   ar
    69    78    77    2
    70    69    70    1
    71    96    97    1
    72    96    93    1
    73    71    70   ar
    74    71    73   ar
    75   101   102   ar
    76    97    98   ar
    77    70    72   ar
    78   146   144    1
    79    73    74   ar
    80   150   149    2
    81    72    74   ar
    82    92    93    1
    83   102   100   ar
    84   144   145    1
    85   144   141    1
    86    75    76    1
    87    91    89    1
    88    98   100   ar
    89    88    87    2
    90    77    76    1
    91    93    94    1
    92    89    90    1
    93    89    86    1
    94    85    86    1
    95   151   152    1
    96   151   148    1
    97   152   153    1
    98    94    95    2
    99   153   147    1
   100   149   148    1
   101   149   154   am
   102    76    79    1
   103    79    80    1
   104   160   154    1
   105   160   159    1
   106    86    87    1
   107   147   148    1
   108   147   142   am
   109   141   142    1
   110   141   140    1
   111   154   155    1
   112   142   143    2
   113    80    81   ar
   114    80    82   ar
   115    81    83   ar
   116   159   158    1
   117   140   135   am
   118   158   155    1
   119   155   156    1
   120    83    84   ar
   121    82    84   ar
   122   109   107    1
   123   138   137    1
   124   108   107    1
   125   136   135    2
   126   135   134    1
   127   131   130    1
   128   107   104    1
   129   132   130    1
   130   123   122    1
   131   116   115    1
   132   117   115    1
   133   129   130    1
   134   129   126    1
   135   156   157    2
   136   137   134    1
   137   137   139    1
   138   134   133    1
   139   133   127   am
   140   103   104    1
   141   124   122    1
   142   115   114    1
   143   104   105    1
   144   122   119    1
   145   126   127    1
   146   126   125    1
   147   127   128    2
   148   181   180   ar
   149   181   179   ar
   150   119   120    1
   151   119   118    1
   152   180   178   ar
   153   120   121    2
   154   105   106    2
   155   114   111    1
   156   179   177   ar
   157   111   112    1
   158   111   110    1
   159   167   165    1
   160   178   175   ar
   161   112   113    2
   162   177   175   ar
   163   177   176   ar
   164   166   165    1
   165   175   173   ar
   166   165   162    1
   167   176   174   ar
   168   162   161    1
   169   162   163    1
   170   173   174   ar
   171   173   172    1
   172   169   172    1
   173   169   170    1
   174   169   168    1
   175   163   164    2
   176   170   171    2
