@<TRIPOS>MOLECULE
tmp/4qsmG00.pdb
 109 105 0 0 0
SMALL
GASTEIGER

@<TRIPOS>ATOM
      1  N         41.7340  -47.2020  -49.3860 N.3    25  VAL25      -0.1231
      2  CA        42.7360  -46.5010  -48.6120 C.3    25  VAL25       0.1692
      3  C         42.7500  -45.0400  -49.0540 C.2    25  VAL25       0.2592
      4  O         42.9170  -44.7330  -50.2290 O.2    25  VAL25      -0.2718
      5  CB        44.1410  -47.1100  -48.7970 C.3    25  VAL25       0.0266
      6  CG1       45.1180  -46.5450  -47.7800 C.3    25  VAL25       0.0020
      7  CG2       44.1040  -48.6220  -48.6580 C.3    25  VAL25       0.0020
      8  N         42.5620  -44.1400  -48.0970 N.am   26  GLY26      -0.1957
      9  CA        42.5740  -42.6970  -48.3350 C.3    26  GLY26       0.1869
     10  C         41.1700  -42.1470  -48.4270 C.2    26  GLY26       0.2309
     11  O         40.4490  -42.4600  -49.3730 O.2    26  GLY26      -0.2863
     12  N         40.4700  -46.8850  -44.8090 N.3    50  VAL50      -0.1231
     13  CA        41.7030  -46.6710  -44.0720 C.3    50  VAL50       0.1692
     14  C         42.4370  -45.3810  -44.4140 C.2    50  VAL50       0.2592
     15  O         42.6680  -45.0720  -45.5480 O.2    50  VAL50      -0.2718
     16  CB        42.6480  -47.8550  -44.2470 C.3    50  VAL50       0.0266
     17  CG1       43.9630  -47.5820  -43.5240 C.3    50  VAL50       0.0020
     18  CG2       41.9830  -49.1000  -43.6910 C.3    50  VAL50       0.0020
     19  N         42.8200  -44.6380  -43.3940 N.am   51  ASP51      -0.1960
     20  CA        43.6130  -43.4240  -43.5820 C.3    51  ASP51       0.1840
     21  C         44.4990  -43.1900  -42.3330 C.2    51  ASP51       0.2622
     22  O         44.7230  -44.1040  -41.5400 O.2    51  ASP51      -0.2715
     23  CB        42.6990  -42.2250  -43.9110 C.3    51  ASP51       0.1450
     24  CG        43.3860  -41.1740  -44.7960 C.2    51  ASP51       0.3671
     25  OD1       44.5970  -40.9070  -44.5780 O.co2  51  ASP51      -0.2456
     26  OD2       42.7110  -40.6110  -45.6970 O.co2  51  ASP51      -0.2456
     27  N         45.0470  -42.0010  -42.1830 N.am   52  VAL52      -0.1963
     28  CA        45.9030  -41.7660  -41.0450 C.3    52  VAL52       0.1727
     29  C         45.3690  -40.7280  -40.0860 C.2    52  VAL52       0.2616
     30  O         45.9870  -40.4870  -39.0850 O.2    52  VAL52      -0.2715
     31  CB        47.3200  -41.3570  -41.4580 C.3    52  VAL52       0.0290
     32  CG1       48.0510  -42.5400  -42.0770 C.3    52  VAL52       0.0023
     33  CG2       47.2800  -40.1250  -42.3610 C.3    52  VAL52       0.0023
     34  N         44.2230  -40.1310  -40.3660 N.am   53  ILE53      -0.1977
     35  CA        43.7080  -39.1070  -39.4770 C.3    53  ILE53       0.1596
     36  C         42.4480  -39.6950  -38.8660 C.2    53  ILE53       0.2287
     37  O         41.3820  -39.6680  -39.4730 O.2    53  ILE53      -0.2864
     38  CB        43.4460  -37.7350  -40.1730 C.3    53  ILE53       0.0276
     39  CG1       43.9970  -37.6790  -41.6230 C.3    53  ILE53       0.0022
     40  CG2       44.0270  -36.6140  -39.3300 C.3    53  ILE53       0.0022
     41  CD1       43.0870  -38.3070  -42.6830 C.3    53  ILE53       0.0001
     42  N         45.4740  -51.7110  -40.5010 N.3    82  TYR82      -0.1241
     43  CA        45.0470  -52.4790  -41.6710 C.3    82  TYR82       0.1605
     44  C         44.3010  -53.7730  -41.3600 C.2    82  TYR82       0.2264
     45  O         43.8930  -54.4650  -42.2720 O.2    82  TYR82      -0.2867
     46  CB        46.2350  -52.6960  -42.6390 C.3    82  TYR82       0.0534
     47  CG        46.4890  -51.4330  -43.4550 C.ar   82  TYR82      -0.0201
     48  CD1       47.1550  -50.3480  -42.9010 C.ar   82  TYR82      -0.0009
     49  CD2       45.9980  -51.3040  -44.7550 C.ar   82  TYR82      -0.0009
     50  CE1       47.3520  -49.1850  -43.6160 C.ar   82  TYR82       0.0417
     51  CE2       46.1980  -50.1390  -45.4780 C.ar   82  TYR82       0.0417
     52  CZ        46.8730  -49.0830  -44.8970 C.ar   82  TYR82       0.1957
     53  OH        47.0740  -47.9220  -45.6040 O.3    82  TYR82      -0.2866
     54  N         44.1670  -44.8650  -53.0380 N.3    94  THR94      -0.1203
     55  CA        44.1800  -43.4590  -53.4360 C.3    94  THR94       0.1994
     56  C         45.2170  -42.6220  -52.7100 C.2    94  THR94       0.2618
     57  O         45.3790  -41.4630  -53.0370 O.2    94  THR94      -0.2717
     58  CB        42.8290  -42.7910  -53.1670 C.3    94  THR94       0.1784
     59  OG1       42.6720  -42.5760  -51.7650 O.3    94  THR94      -0.2211
     60  CG2       41.6960  -43.6730  -53.6740 C.3    94  THR94       0.0376
     61  N         45.9020  -43.2030  -51.7250 N.am   95  ALA95      -0.1965
     62  CA        46.8860  -42.5020  -50.8950 C.3    95  ALA95       0.1728
     63  C         48.1330  -42.0810  -51.6660 C.2    95  ALA95       0.2617
     64  O         48.5200  -42.7240  -52.6060 O.2    95  ALA95      -0.2715
     65  CB        47.2930  -43.3960  -49.7230 C.3    95  ALA95       0.0334
     66  N         48.7680  -41.0010  -51.2450 N.am   96  GLY96      -0.1940
     67  CA        50.0700  -40.5850  -51.7680 C.3    96  GLY96       0.2014
     68  C         50.4900  -39.2550  -51.1670 C.2    96  GLY96       0.2638
     69  O         49.9670  -38.8590  -50.1330 O.2    96  GLY96      -0.2714
     70  N         51.3940  -38.5480  -51.8240 N.am   97  ALA97      -0.1977
     71  CA        51.7980  -37.2240  -51.3880 C.3    97  ALA97       0.1597
     72  C         51.7370  -36.2460  -52.5580 C.2    97  ALA97       0.2287
     73  O         52.0720  -36.6240  -53.6650 O.2    97  ALA97      -0.2864
     74  CB        53.2050  -37.2740  -50.8230 C.3    97  ALA97       0.0319
     75  N         58.0530  -44.7860  -50.6340 N.3   114  ASN114     -0.1225
     76  CA        58.1840  -44.9720  -49.1780 C.3   114  ASN114      0.1785
     77  C         56.8750  -45.1120  -48.4220 C.2   114  ASN114      0.2597
     78  O         56.8110  -45.8630  -47.4440 O.2   114  ASN114     -0.2718
     79  CB        58.9920  -43.8280  -48.5670 C.3   114  ASN114      0.1169
     80  CG        60.4350  -43.9090  -48.9470 C.2   114  ASN114      0.2627
     81  OD1       60.9860  -45.0120  -49.0940 O.2   114  ASN114     -0.2716
     82  ND2       61.0580  -42.7710  -49.1370 N.am  114  ASN114     -0.0877
     83  N         55.8580  -44.3730  -48.8560 N.am  115  ILE115     -0.1980
     84  CA        54.5370  -44.4980  -48.2950 C.3   115  ILE115      0.1595
     85  C         53.9810  -45.8790  -48.6280 C.2   115  ILE115      0.2287
     86  O         53.4310  -46.5530  -47.7550 O.2   115  ILE115     -0.2864
     87  CB        53.5770  -43.4180  -48.8450 C.3   115  ILE115      0.0276
     88  CG1       53.9720  -42.0400  -48.3370 C.3   115  ILE115      0.0022
     89  CG2       52.1230  -43.7120  -48.4530 C.3   115  ILE115      0.0022
     90  CD1       53.1490  -40.9510  -48.9600 C.3   115  ILE115      0.0001
     91  N         54.8680  -48.9420  -46.6720 N.3   118  PHE118     -0.1227
     92  CA        54.0620  -49.1580  -45.4930 C.3   118  PHE118      0.1736
     93  C         52.7030  -49.6880  -45.8750 C.2   118  PHE118      0.2595
     94  O         52.2630  -50.6770  -45.3350 O.2   118  PHE118     -0.2718
     95  CB        53.8710  -47.8600  -44.7250 C.3   118  PHE118      0.0547
     96  CG        52.9720  -48.0000  -43.5400 C.ar  118  PHE118     -0.0202
     97  CD1       53.4410  -48.5720  -42.3600 C.ar  118  PHE118     -0.0042
     98  CD2       51.6440  -47.5740  -43.6000 C.ar  118  PHE118     -0.0042
     99  CE1       52.6070  -48.7030  -41.2590 C.ar  118  PHE118     -0.0003
    100  CE2       50.8040  -47.7040  -42.5040 C.ar  118  PHE118     -0.0003
    101  CZ        51.2820  -48.2710  -41.3330 C.ar  118  PHE118     -0.0000
    102  N         52.0240  -49.0120  -46.7870 N.am  119  ILE119     -0.1980
    103  CA        50.6580  -49.3830  -47.1140 C.3   119  ILE119      0.1595
    104  C         50.5780  -50.7690  -47.7550 C.2   119  ILE119      0.2287
    105  O         49.7600  -51.6190  -47.3470 O.2   119  ILE119     -0.2864
    106  CB        49.9870  -48.3980  -48.0900 C.3   119  ILE119      0.0276
    107  CG1       49.9480  -46.9870  -47.5150 C.3   119  ILE119      0.0022
    108  CG2       48.5630  -48.8630  -48.3980 C.3   119  ILE119      0.0022
    109  CD1       49.2460  -45.9940  -48.4280 C.3   119  ILE119      0.0001
@<TRIPOS>BOND
     1    60    58    1
     2    73    72    2
     3    55    58    1
     4    55    54    1
     5    55    56    1
     6    58    59    1
     7    57    56    2
     8    56    61   am
     9    64    63    2
    10    72    71    1
    11    70    71    1
    12    70    68   am
    13    67    66    1
    14    67    68    1
    15    61    62    1
    16    63    66   am
    17    63    62    1
    18    71    74    1
    19    68    69    2
    20    62    65    1
    21    75    76    1
    22     4     3    2
    23     1     2    1
    24    11    10    2
    25    76    79    1
    26    76    77    1
    27    82    80   am
    28    81    80    2
    29     3     2    1
    30     3     8   am
    31    90    88    1
    32    80    79    1
    33    83    77   am
    34    83    84    1
    35    87    89    1
    36    87    88    1
    37    87    84    1
    38     5     7    1
    39     5     2    1
    40     5     6    1
    41    85    84    1
    42    85    86    2
    43   109   107    1
    44    10     9    1
    45    77    78    2
    46   108   106    1
    47     9     8    1
    48   106   107    1
    49   106   103    1
    50   104   105    2
    51   104   103    1
    52   103   102    1
    53   102    93   am
    54    91    92    1
    55    93    92    1
    56    93    94    2
    57    26    24   ar
    58    53    52    1
    59    15    14    2
    60    92    95    1
    61    51    52   ar
    62    51    49   ar
    63    52    50   ar
    64    12    13    1
    65    24    25   ar
    66    24    23    1
    67    49    47   ar
    68    95    96    1
    69    14    13    1
    70    14    19   am
    71    16    13    1
    72    16    18    1
    73    16    17    1
    74    23    20    1
    75    50    48   ar
    76    98    96   ar
    77    98   100   ar
    78    20    19    1
    79    20    21    1
    80    96    97   ar
    81    47    48   ar
    82    47    46    1
    83    41    39    1
    84    46    43    1
    85   100   101   ar
    86    33    31    1
    87    97    99   ar
    88    21    27   am
    89    21    22    2
    90    45    44    2
    91    27    28    1
    92    32    31    1
    93    43    44    1
    94    43    42    1
    95    39    38    1
    96    31    28    1
    97   101    99   ar
    98    28    29    1
    99    34    29   am
   100    34    35    1
   101    38    35    1
   102    38    40    1
   103    29    30    2
   104    35    36    1
   105    37    36    2
