@<TRIPOS>MOLECULE
tmp/4qspA00.pdb
 86 82 0 0 0
SMALL
GASTEIGER

@<TRIPOS>ATOM
      1  N        -25.4540   44.9960    3.0980 N.3    30  VAL30      -0.1231
      2  CA       -25.3350   45.2740    4.4990 C.3    30  VAL30       0.1692
      3  C        -23.8920   45.3570    4.9690 C.2    30  VAL30       0.2592
      4  O        -23.5830   46.0370    5.9480 O.2    30  VAL30      -0.2718
      5  CB       -26.1390   44.1990    5.3200 C.3    30  VAL30       0.0266
      6  CG1      -25.6400   42.7730    5.0810 C.3    30  VAL30       0.0020
      7  CG2      -26.1990   44.5330    6.7900 C.3    30  VAL30       0.0020
      8  N        -22.9750   44.7630    4.1990 N.am   31  PHE31      -0.1976
      9  CA       -21.5790   44.7330    4.5700 C.3    31  PHE31       0.1639
     10  C        -20.7280   45.7710    3.8240 C.2    31  PHE31       0.2290
     11  O        -19.5080   45.7730    3.9600 O.2    31  PHE31      -0.2864
     12  CB       -21.0000   43.3520    4.2610 C.3    31  PHE31       0.0560
     13  CG       -21.7860   42.2320    4.9190 C.ar   31  PHE31      -0.0200
     14  CD1      -21.9770   42.1830    6.2650 C.ar   31  PHE31      -0.0042
     15  CD2      -22.3150   41.2520    4.1350 C.ar   31  PHE31      -0.0042
     16  CE1      -22.7330   41.1910    6.8730 C.ar   31  PHE31      -0.0003
     17  CE2      -23.0690   40.2170    4.7050 C.ar   31  PHE31      -0.0003
     18  CZ       -23.2820   40.1870    6.0590 C.ar   31  PHE31      -0.0000
     19  N        -21.6590   49.9870   10.0930 N.3    35  VAL35      -0.1245
     20  CA       -22.9160   50.1020   10.8200 C.3    35  VAL35       0.1561
     21  C        -23.0960   51.5420   11.3450 C.2    35  VAL35       0.2260
     22  O        -22.1530   52.1540   11.8420 O.2    35  VAL35      -0.2867
     23  CB       -22.9730   49.0860   11.9780 C.3    35  VAL35       0.0252
     24  CG1      -24.1600   49.3800   12.8810 C.3    35  VAL35       0.0019
     25  CG2      -23.0230   47.6600   11.4410 C.3    35  VAL35       0.0019
     26  N        -28.5500   54.4090   14.3150 N.3    39  GLU39      -0.1231
     27  CA       -29.4910   53.2990   14.2330 C.3    39  GLU39       0.1699
     28  C        -29.1380   52.1640   15.1960 C.2    39  GLU39       0.2592
     29  O        -30.0390   51.5540   15.7810 O.2    39  GLU39      -0.2718
     30  CB       -29.5730   52.7780   12.7990 C.3    39  GLU39       0.0402
     31  CG       -30.1420   53.7950   11.8230 C.3    39  GLU39       0.1161
     32  CD       -29.9250   53.4020   10.3760 C.2    39  GLU39       0.3649
     33  OE1      -30.2930   52.2680   10.0060 O.co2  39  GLU39      -0.2457
     34  OE2      -29.3900   54.2290    9.6080 O.co2  39  GLU39      -0.2457
     35  N        -27.8400   51.8880   15.3660 N.am   40  VAL40      -0.1980
     36  CA       -27.3900   50.7760   16.2190 C.3    40  VAL40       0.1595
     37  C        -26.3180   51.2170   17.2310 C.2    40  VAL40       0.2287
     38  O        -25.1370   50.9610   17.0470 O.2    40  VAL40      -0.2864
     39  CB       -26.8510   49.6050   15.3690 C.3    40  VAL40       0.0276
     40  CG1      -26.8680   48.3220   16.1850 C.3    40  VAL40       0.0022
     41  CG2      -27.6810   49.4380   14.0970 C.3    40  VAL40       0.0022
     42  N        -23.7470   48.7920   18.9310 N.3    43  TYR43      -0.1241
     43  CA       -22.8640   48.0190   18.0430 C.3    43  TYR43       0.1605
     44  C        -21.4220   48.1860   18.4380 C.2    43  TYR43       0.2264
     45  O        -20.7320   47.1920   18.6130 O.2    43  TYR43      -0.2867
     46  CB       -23.0260   48.3900   16.5530 C.3    43  TYR43       0.0534
     47  CG       -22.3100   47.4130   15.6270 C.ar   43  TYR43      -0.0201
     48  CD1      -21.0430   47.6530   15.1790 C.ar   43  TYR43      -0.0009
     49  CD2      -22.9110   46.1970   15.2810 C.ar   43  TYR43      -0.0009
     50  CE1      -20.4020   46.7520   14.3470 C.ar   43  TYR43       0.0417
     51  CE2      -22.2710   45.2750   14.4490 C.ar   43  TYR43       0.0417
     52  CZ       -21.0220   45.5570   13.9950 C.ar   43  TYR43       0.1957
     53  OH       -20.3860   44.6420   13.2040 O.3    43  TYR43      -0.2866
     54  N        -20.7430   39.7280   12.1600 N.3    82  ALA82      -0.1245
     55  CA       -22.1420   39.5640   11.8700 C.3    82  ALA82       0.1562
     56  C        -22.7490   38.3750   12.6110 C.2    82  ALA82       0.2260
     57  O        -23.8560   38.4470   13.1560 O.2    82  ALA82      -0.2867
     58  CB       -22.3550   39.4180   10.3270 C.3    82  ALA82       0.0290
     59  N        -22.8700   39.5280   16.4530 N.3    85  TYR85      -0.1227
     60  CA       -23.8250   40.5740   16.8000 C.3    85  TYR85       0.1736
     61  C        -25.2730   40.1650   16.5600 C.2    85  TYR85       0.2595
     62  O        -26.1760   40.6800   17.2230 O.2    85  TYR85      -0.2718
     63  CB       -23.5440   41.8680   16.0430 C.3    85  TYR85       0.0548
     64  CG       -24.3210   43.0140   16.6090 C.ar   85  TYR85      -0.0200
     65  CD1      -23.8940   43.5960   17.7760 C.ar   85  TYR85      -0.0009
     66  CD2      -25.4400   43.5280   15.9840 C.ar   85  TYR85      -0.0009
     67  CE1      -24.6270   44.6180   18.3860 C.ar   85  TYR85       0.0417
     68  CE2      -26.1640   44.5620   16.5890 C.ar   85  TYR85       0.0417
     69  CZ       -25.7140   45.1180   17.7530 C.ar   85  TYR85       0.1957
     70  OH       -26.4230   46.1670   18.3540 O.3    85  TYR85      -0.2866
     71  N        -25.4840   39.2150   15.6500 N.am   86  ASN86      -0.1974
     72  CA       -26.8450   38.7790   15.2630 C.3    86  ASN86       0.1688
     73  C        -27.0430   37.2840   15.4700 C.2    86  ASN86       0.2292
     74  O        -27.2320   36.5520   14.4750 O.2    86  ASN86      -0.2864
     75  CB       -27.1120   39.1740   13.7950 C.3    86  ASN86       0.1181
     76  CG       -26.7700   40.6470   13.5000 C.2    86  ASN86       0.2629
     77  OD1      -27.5750   41.5440   13.7490 O.2    86  ASN86      -0.2716
     78  ND2      -25.5700   40.8830   12.9340 N.am   86  ASN86      -0.0877
     79  N        -29.1100   37.7160    8.0310 N.3    96  ILE96      -0.1245
     80  CA       -27.7830   38.3630    8.0400 C.3    96  ILE96       0.1561
     81  C        -26.6780   37.3330    8.1950 C.2    96  ILE96       0.2260
     82  O        -25.6180   37.4090    7.5460 O.2    96  ILE96      -0.2867
     83  CB       -27.6690   39.5160    9.0510 C.3    96  ILE96       0.0252
     84  CG1      -26.3440   40.2580    8.7810 C.3    96  ILE96       0.0019
     85  CG2      -27.6550   39.0260   10.4730 C.3    96  ILE96       0.0019
     86  CD1      -26.3610   41.6470    9.3220 C.3    96  ILE96       0.0001
@<TRIPOS>BOND
     1     1     2    1
     2    10    11    2
     3    10     9    1
     4    15    17   ar
     5    15    13   ar
     6     8     9    1
     7     8     3   am
     8    12     9    1
     9    12    13    1
    10     2     3    1
    11     2     5    1
    12    17    18   ar
    13    13    14   ar
    14     3     4    2
    15     6     5    1
    16     5     7    1
    17    18    16   ar
    18    14    16   ar
    19    82    81    2
    20    79    80    1
    21    80    81    1
    22    80    83    1
    23    84    83    1
    24    84    86    1
    25    83    85    1
    26    34    32   ar
    27    33    32   ar
    28    19    20    1
    29    58    55    1
    30    32    31    1
    31    20    21    1
    32    20    23    1
    33    21    22    2
    34    25    23    1
    35    31    30    1
    36    55    54    1
    37    55    56    1
    38    23    24    1
    39    56    57    2
    40    30    27    1
    41    78    76   am
    42    53    52    1
    43    76    77    2
    44    76    75    1
    45    75    72    1
    46    52    50   ar
    47    52    51   ar
    48    41    39    1
    49    27    26    1
    50    27    28    1
    51    50    48   ar
    52    51    49   ar
    53    74    73    2
    54    48    47   ar
    55    28    35   am
    56    28    29    2
    57    72    73    1
    58    72    71    1
    59    49    47   ar
    60    35    36    1
    61    39    40    1
    62    39    36    1
    63    47    46    1
    64    71    61   am
    65    66    68   ar
    66    66    64   ar
    67    63    64    1
    68    63    60    1
    69    36    37    1
    70    59    60    1
    71    46    43    1
    72    61    60    1
    73    61    62    2
    74    68    69   ar
    75    64    65   ar
    76    38    37    2
    77    69    70    1
    78    69    67   ar
    79    65    67   ar
    80    43    44    1
    81    43    42    1
    82    44    45    2
