@<TRIPOS>MOLECULE
tmp/4qsrA00.pdb
 85 80 0 0 0
SMALL
GASTEIGER

@<TRIPOS>ATOM
      1  N         64.5140   24.2460    3.0880 N.3    30  VAL30      -0.1231
      2  CA        64.4090   23.8390    4.5030 C.3    30  VAL30       0.1692
      3  C         62.9330   23.7640    4.9320 C.2    30  VAL30       0.2592
      4  O         62.6180   23.1180    5.9100 O.2    30  VAL30      -0.2718
      5  CB        65.1780   24.7580    5.4940 C.3    30  VAL30       0.0266
      6  CG1       66.6940   24.5900    5.3400 C.3    30  VAL30       0.0020
      7  CG2       64.7440   26.2410    5.3540 C.3    30  VAL30       0.0020
      8  N         62.0340   24.4030    4.1760 N.am   31  PHE31      -0.1976
      9  CA        60.6060   24.4310    4.5170 C.3    31  PHE31       0.1639
     10  C         59.7420   23.3990    3.7750 C.2    31  PHE31       0.2290
     11  O         58.5080   23.4270    3.9460 O.2    31  PHE31      -0.2864
     12  CB        60.0250   25.8290    4.2450 C.3    31  PHE31       0.0560
     13  CG        60.8250   26.9440    4.8460 C.ar   31  PHE31      -0.0200
     14  CD1       60.9580   27.0370    6.2100 C.ar   31  PHE31      -0.0042
     15  CD2       61.4250   27.9020    4.0440 C.ar   31  PHE31      -0.0042
     16  CE1       61.6880   28.0440    6.7940 C.ar   31  PHE31      -0.0003
     17  CE2       62.1580   28.9350    4.6170 C.ar   31  PHE31      -0.0003
     18  CZ        62.2680   29.0160    6.0070 C.ar   31  PHE31      -0.0000
     19  N         60.5240   18.6700    9.8120 N.3    35  VAL35      -0.1245
     20  CA        61.8040   18.5440   10.4810 C.3    35  VAL35       0.1561
     21  C         61.9500   17.0730   10.9450 C.2    35  VAL35       0.2260
     22  O         61.0120   16.4700   11.4840 O.2    35  VAL35      -0.2867
     23  CB        61.9080   19.5110   11.6860 C.3    35  VAL35       0.0252
     24  CG1       63.1840   19.2540   12.4680 C.3    35  VAL35       0.0019
     25  CG2       61.8630   20.9540   11.2250 C.3    35  VAL35       0.0019
     26  N         66.7590   16.7260   14.5780 N.3    40  VAL40      -0.1245
     27  CA        66.4070   17.8410   15.4690 C.3    40  VAL40       0.1561
     28  C         65.3370   17.3570   16.4820 C.2    40  VAL40       0.2260
     29  O         64.1150   17.6060   16.3590 O.2    40  VAL40      -0.2867
     30  CB        65.9840   19.1160   14.7000 C.3    40  VAL40       0.0252
     31  CG1       66.0690   20.3270   15.6280 C.3    40  VAL40       0.0019
     32  CG2       66.8630   19.3430   13.4690 C.3    40  VAL40       0.0019
     33  N         63.0330   19.9580   18.2900 N.3    43  TYR43      -0.1241
     34  CA        62.0990   20.7540   17.4770 C.3    43  TYR43       0.1605
     35  C         60.6650   20.6470   18.0080 C.2    43  TYR43       0.2264
     36  O         60.0560   21.6660   18.3390 O.2    43  TYR43      -0.2867
     37  CB        62.1350   20.3630   15.9880 C.3    43  TYR43       0.0534
     38  CG        61.4510   21.4070   15.1280 C.ar   43  TYR43      -0.0201
     39  CD1       60.1560   21.2020   14.6410 C.ar   43  TYR43      -0.0009
     40  CD2       62.0680   22.6170   14.8670 C.ar   43  TYR43      -0.0009
     41  CE1       59.5180   22.1660   13.8630 C.ar   43  TYR43       0.0417
     42  CE2       61.4370   23.5880   14.1140 C.ar   43  TYR43       0.0417
     43  CZ        60.1640   23.3580   13.6110 C.ar   43  TYR43       0.1957
     44  OH        59.5540   24.3310   12.8680 O.3    43  TYR43      -0.2866
     45  N         54.5140   28.5720    8.8820 N.3    78  ILE78      -0.1245
     46  CA        55.8510   28.1540    8.5320 C.3    78  ILE78       0.1561
     47  C         56.8710   29.2200    8.8780 C.2    78  ILE78       0.2260
     48  O         57.9400   28.9060    9.4070 O.2    78  ILE78      -0.2867
     49  CB        55.9540   27.8050    7.0390 C.3    78  ILE78       0.0252
     50  CG1       55.0650   26.5640    6.7280 C.3    78  ILE78       0.0019
     51  CG2       57.3980   27.5340    6.6460 C.3    78  ILE78       0.0019
     52  CD1       54.9400   26.2040    5.2600 C.3    78  ILE78       0.0001
     53  N         59.7300   29.3470   12.0930 N.3    82  ALA82      -0.1245
     54  CA        61.1420   29.5250   11.7660 C.3    82  ALA82       0.1562
     55  C         61.7440   30.7000   12.5990 C.2    82  ALA82       0.2260
     56  O         62.8260   30.5640   13.1360 O.2    82  ALA82      -0.2867
     57  CB        61.3140   29.7320   10.2580 C.3    82  ALA82       0.0290
     58  N         62.0710   29.3630   16.1620 N.3    85  TYR85      -0.1227
     59  CA        63.0080   28.2970   16.4210 C.3    85  TYR85       0.1736
     60  C         64.4420   28.7590   16.1600 C.2    85  TYR85       0.2595
     61  O         65.3770   28.2170   16.7440 O.2    85  TYR85      -0.2718
     62  CB        62.7190   27.0520   15.5770 C.3    85  TYR85       0.0548
     63  CG        63.6320   25.8880   15.9620 C.ar   85  TYR85      -0.0200
     64  CD1       63.4170   25.1850   17.1510 C.ar   85  TYR85      -0.0009
     65  CD2       64.7030   25.5160   15.1620 C.ar   85  TYR85      -0.0009
     66  CE1       64.2340   24.1350   17.5190 C.ar   85  TYR85       0.0417
     67  CE2       65.5530   24.4920   15.5270 C.ar   85  TYR85       0.0417
     68  CZ        65.3140   23.8030   16.7170 C.ar   85  TYR85       0.1957
     69  OH        66.1350   22.7630   17.0780 O.3    85  TYR85      -0.2866
     70  N         64.5870   29.7750   15.3120 N.am   86  ASN86      -0.1974
     71  CA        65.8770   30.3160   14.9180 C.3    86  ASN86       0.1688
     72  C         65.9800   31.7880   15.2280 C.2    86  ASN86       0.2292
     73  O         66.0930   32.5960   14.3160 O.2    86  ASN86      -0.2864
     74  CB        66.1010   30.0630   13.4130 C.3    86  ASN86       0.1181
     75  CG        66.1070   28.5920   13.0850 C.2    86  ASN86       0.2629
     76  OD1       67.1180   27.8990   13.2390 O.2    86  ASN86      -0.2716
     77  ND2       64.9610   28.0900   12.6980 N.am   86  ASN86      -0.0877
     78  N         68.0880   31.5190    7.9680 N.3    96  ILE96      -0.1245
     79  CA        66.7820   30.8670    8.0240 C.3    96  ILE96       0.1561
     80  C         65.6810   31.9250    8.0530 C.2    96  ILE96       0.2260
     81  O         64.7080   31.8480    7.2950 O.2    96  ILE96      -0.2867
     82  CB        66.6990   29.8890    9.2350 C.3    96  ILE96       0.0252
     83  CG1       67.5790   28.6480    8.9420 C.3    96  ILE96       0.0019
     84  CG2       65.2460   29.4710    9.5160 C.3    96  ILE96       0.0019
     85  CD1       68.0390   27.8480   10.1560 C.3    96  ILE96       0.0001
@<TRIPOS>BOND
     1     1     2    1
     2    10    11    2
     3    10     9    1
     4    15    17   ar
     5    15    13   ar
     6     8     9    1
     7     8     3   am
     8    12     9    1
     9    12    13    1
    10     2     3    1
    11     2     5    1
    12    17    18   ar
    13    13    14   ar
    14     3     4    2
    15    52    50    1
    16     6     5    1
    17     7     5    1
    18    18    16   ar
    19    14    16   ar
    20    51    49    1
    21    50    49    1
    22    49    46    1
    23    81    80    2
    24    78    79    1
    25    79    80    1
    26    79    82    1
    27    46    47    1
    28    46    45    1
    29    47    48    2
    30    83    82    1
    31    83    85    1
    32    82    84    1
    33    19    20    1
    34    57    54    1
    35    20    21    1
    36    20    23    1
    37    21    22    2
    38    25    23    1
    39    23    24    1
    40    54    53    1
    41    54    55    1
    42    55    56    2
    43    77    75   am
    44    44    43    1
    45    75    76    2
    46    75    74    1
    47    74    71    1
    48    32    30    1
    49    43    41   ar
    50    43    42   ar
    51    41    39   ar
    52    42    40   ar
    53    73    72    2
    54    26    27    1
    55    39    38   ar
    56    30    27    1
    57    30    31    1
    58    40    38   ar
    59    71    72    1
    60    71    70    1
    61    38    37    1
    62    65    67   ar
    63    65    63   ar
    64    70    60   am
    65    27    28    1
    66    67    68   ar
    67    62    63    1
    68    62    59    1
    69    63    64   ar
    70    37    34    1
    71    60    59    1
    72    60    61    2
    73    58    59    1
    74    29    28    2
    75    68    69    1
    76    68    66   ar
    77    64    66   ar
    78    34    35    1
    79    34    33    1
    80    35    36    2
