@<TRIPOS>MOLECULE
tmp/4qssA03.pdb
 86 81 0 0 0
SMALL
GASTEIGER

@<TRIPOS>ATOM
      1  N        -24.8620   44.8080    2.8770 N.3    30  VAL30      -0.1231
      2  CA       -24.7550   45.1720    4.3100 C.3    30  VAL30       0.1692
      3  C        -23.2850   45.2370    4.7820 C.2    30  VAL30       0.2592
      4  O        -22.9850   45.8620    5.7890 O.2    30  VAL30      -0.2718
      5  CB       -25.5520   44.1880    5.1980 C.3    30  VAL30       0.0266
      6  CG1      -24.9530   42.7680    5.1150 C.3    30  VAL30       0.0020
      7  CG2      -25.5500   44.6510    6.6240 C.3    30  VAL30       0.0020
      8  N        -22.3640   44.5780    4.0580 N.am   31  PHE31      -0.1976
      9  CA       -20.9550   44.5530    4.4340 C.3    31  PHE31       0.1639
     10  C        -20.0880   45.5980    3.6910 C.2    31  PHE31       0.2290
     11  O        -18.8430   45.6150    3.8480 O.2    31  PHE31      -0.2864
     12  CB       -20.3860   43.1790    4.1690 C.3    31  PHE31       0.0560
     13  CG       -21.1610   42.0660    4.7930 C.ar   31  PHE31      -0.0200
     14  CD1      -21.2920   41.9870    6.1810 C.ar   31  PHE31      -0.0042
     15  CD2      -21.7490   41.0790    4.0050 C.ar   31  PHE31      -0.0042
     16  CE1      -22.0300   40.9410    6.7720 C.ar   31  PHE31      -0.0003
     17  CE2      -22.4590   40.0270    4.5930 C.ar   31  PHE31      -0.0003
     18  CZ       -22.5870   39.9480    5.9660 C.ar   31  PHE31      -0.0000
     19  N        -19.9920   48.9550    3.8620 N.3    33  LYS33      -0.1245
     20  CA       -19.7460   50.2090    4.5180 C.3    33  LYS33       0.1561
     21  C        -19.6870   49.9420    6.0170 C.2    33  LYS33       0.2260
     22  O        -20.2520   48.9570    6.4830 O.2    33  LYS33      -0.2867
     23  CB       -20.8970   51.1830    4.2530 C.3    33  LYS33       0.0271
     24  CG       -20.8000   51.9420    2.9420 C.3    33  LYS33       0.0035
     25  CD       -22.0200   52.8500    2.7310 C.3    33  LYS33       0.0206
     26  CE       -21.8620   53.7830    1.5280 C.3    33  LYS33       0.1093
     27  NZ       -20.8950   54.9030    1.7550 N.3    33  LYS33      -0.1314
     28  N        -20.7590   49.9990    9.7820 N.3    35  VAL35      -0.1245
     29  CA       -22.0600   50.0730   10.4490 C.3    35  VAL35       0.1561
     30  C        -22.2430   51.5420   10.9280 C.2    35  VAL35       0.2260
     31  O        -21.3260   52.1430   11.4970 O.2    35  VAL35      -0.2867
     32  CB       -22.1360   49.0600   11.6160 C.3    35  VAL35       0.0252
     33  CG1      -23.3510   49.3190   12.4810 C.3    35  VAL35       0.0019
     34  CG2      -22.1680   47.6330   11.0810 C.3    35  VAL35       0.0019
     35  N        -27.0730   51.8480   14.4810 N.3    40  VAL40      -0.1245
     36  CA       -26.7690   50.7340   15.3890 C.3    40  VAL40       0.1561
     37  C        -25.8010   51.2460   16.4550 C.2    40  VAL40       0.2260
     38  O        -24.5900   51.0480   16.3760 O.2    40  VAL40      -0.2867
     39  CB       -26.2170   49.4820   14.6540 C.3    40  VAL40       0.0252
     40  CG1      -26.1140   48.3190   15.6230 C.3    40  VAL40       0.0019
     41  CG2      -27.0930   49.0870   13.4670 C.3    40  VAL40       0.0019
     42  N        -23.1930   48.9740   18.3860 N.3    43  TYR43      -0.1241
     43  CA       -22.3280   48.1130   17.5910 C.3    43  TYR43       0.1605
     44  C        -20.8660   48.2500   18.0710 C.2    43  TYR43       0.2264
     45  O        -20.2310   47.2580   18.4100 O.2    43  TYR43      -0.2867
     46  CB       -22.4660   48.4240   16.0980 C.3    43  TYR43       0.0534
     47  CG       -21.7630   47.3960   15.2310 C.ar   43  TYR43      -0.0201
     48  CD1      -22.3650   46.1760   14.9370 C.ar   43  TYR43      -0.0009
     49  CD2      -20.4680   47.6200   14.7760 C.ar   43  TYR43      -0.0009
     50  CE1      -21.7100   45.2280   14.1900 C.ar   43  TYR43       0.0417
     51  CE2      -19.8050   46.6820   14.0090 C.ar   43  TYR43       0.0417
     52  CZ       -20.4200   45.4990   13.7150 C.ar   43  TYR43       0.1957
     53  OH       -19.7670   44.5440   12.9800 O.3    43  TYR43      -0.2866
     54  N        -20.1960   39.5960   12.0850 N.3    82  ALA82      -0.1245
     55  CA       -21.5930   39.4080   11.7820 C.3    82  ALA82       0.1562
     56  C        -22.1750   38.2030   12.5780 C.2    82  ALA82       0.2260
     57  O        -23.3270   38.2600   13.1130 O.2    82  ALA82      -0.2867
     58  CB       -21.7870   39.2190   10.2480 C.3    82  ALA82       0.0290
     59  N        -22.3710   39.5750   16.2320 N.3    85  TYR85      -0.1227
     60  CA       -23.3020   40.6440   16.5640 C.3    85  TYR85       0.1736
     61  C        -24.7640   40.1850   16.3490 C.2    85  TYR85       0.2595
     62  O        -25.6590   40.7120   16.9580 O.2    85  TYR85      -0.2718
     63  CB       -23.0160   41.9260   15.7640 C.3    85  TYR85       0.0548
     64  CG       -23.8850   43.0780   16.2290 C.ar   85  TYR85      -0.0200
     65  CD1      -25.0390   43.4050   15.5350 C.ar   85  TYR85      -0.0009
     66  CD2      -23.5980   43.7780   17.4130 C.ar   85  TYR85      -0.0009
     67  CE1      -25.8700   44.4090   15.9570 C.ar   85  TYR85       0.0417
     68  CE2      -24.4320   44.8020   17.8430 C.ar   85  TYR85       0.0417
     69  CZ       -25.5700   45.1090   17.0960 C.ar   85  TYR85       0.1957
     70  OH       -26.4340   46.0940   17.4620 O.3    85  TYR85      -0.2866
     71  N        -24.9650   39.1730   15.5180 N.am   86  ASN86      -0.1974
     72  CA       -26.2900   38.7250   15.1290 C.3    86  ASN86       0.1688
     73  C        -26.3910   37.2320   15.3700 C.2    86  ASN86       0.2292
     74  O        -26.5220   36.5020   14.4330 O.2    86  ASN86      -0.2864
     75  CB       -26.5460   39.0400   13.6410 C.3    86  ASN86       0.1181
     76  CG       -26.2290   40.4840   13.2730 C.2    86  ASN86       0.2629
     77  OD1      -27.0690   41.3780   13.3850 O.2    86  ASN86      -0.2716
     78  ND2      -25.0040   40.7160   12.8260 N.am   86  ASN86      -0.0877
     79  N        -28.4070   37.5610    7.9010 N.3    96  ILE96      -0.1245
     80  CA       -27.1180   38.2210    7.8460 C.3    96  ILE96       0.1561
     81  C        -25.9750   37.2080    8.0620 C.2    96  ILE96       0.2260
     82  O        -24.9570   37.2960    7.4090 O.2    96  ILE96      -0.2867
     83  CB       -27.0450   39.4870    8.7550 C.3    96  ILE96       0.0252
     84  CG1      -25.7560   40.2730    8.4560 C.3    96  ILE96       0.0019
     85  CG2      -27.1270   39.1460   10.2390 C.3    96  ILE96       0.0019
     86  CD1      -25.7200   41.6580    9.0750 C.3    96  ILE96       0.0001
@<TRIPOS>BOND
     1    26    27    1
     2    26    25    1
     3    25    24    1
     4     1     2    1
     5    24    23    1
     6    10    11    2
     7    10     9    1
     8    19    20    1
     9    15    17   ar
    10    15    13   ar
    11     8     9    1
    12     8     3   am
    13    12     9    1
    14    12    13    1
    15    23    20    1
    16     2     3    1
    17     2     5    1
    18    20    21    1
    19    17    18   ar
    20     3     4    2
    21    13    14   ar
    22     6     5    1
    23     5     7    1
    24    18    16   ar
    25    21    22    2
    26    14    16   ar
    27    82    81    2
    28    80    79    1
    29    80    81    1
    30    80    83    1
    31    84    83    1
    32    84    86    1
    33    83    85    1
    34    28    29    1
    35    58    55    1
    36    29    30    1
    37    29    32    1
    38    30    31    2
    39    34    32    1
    40    32    33    1
    41    55    54    1
    42    55    56    1
    43    56    57    2
    44    78    76   am
    45    53    52    1
    46    76    77    2
    47    76    75    1
    48    41    39    1
    49    75    72    1
    50    52    51   ar
    51    52    50   ar
    52    51    49   ar
    53    50    48   ar
    54    74    73    2
    55    35    36    1
    56    39    36    1
    57    39    40    1
    58    49    47   ar
    59    48    47   ar
    60    72    73    1
    61    72    71    1
    62    47    46    1
    63    36    37    1
    64    71    61   am
    65    65    67   ar
    66    65    64   ar
    67    63    64    1
    68    63    60    1
    69    67    69   ar
    70    46    43    1
    71    64    66   ar
    72    59    60    1
    73    61    60    1
    74    61    62    2
    75    38    37    2
    76    69    70    1
    77    69    68   ar
    78    66    68   ar
    79    43    44    1
    80    43    42    1
    81    44    45    2
