@<TRIPOS>MOLECULE
tmp/4qstA00.pdb
 110 107 0 0 0
SMALL
GASTEIGER

@<TRIPOS>ATOM
      1  N         14.0330   24.0360   -2.7820 N.3    30  VAL30      -0.1231
      2  CA        14.1560   23.7640   -4.2230 C.3    30  VAL30       0.1692
      3  C         15.6340   23.6400   -4.6970 C.2    30  VAL30       0.2592
      4  O         15.9480   22.9470   -5.6750 O.2    30  VAL30      -0.2718
      5  CB        13.3360   24.8290   -5.0410 C.3    30  VAL30       0.0266
      6  CG1       13.8530   26.2550   -4.8580 C.3    30  VAL30       0.0020
      7  CG2       13.2730   24.4640   -6.4960 C.3    30  VAL30       0.0020
      8  N         16.5420   24.3000   -3.9830 N.am   31  PHE31      -0.1976
      9  CA        17.9610   24.2930   -4.3400 C.3    31  PHE31       0.1639
     10  C         18.7920   23.1960   -3.6140 C.2    31  PHE31       0.2290
     11  O         20.0040   23.1170   -3.7840 O.2    31  PHE31      -0.2864
     12  CB        18.5340   25.6920   -4.1160 C.3    31  PHE31       0.0560
     13  CG        17.7170   26.8100   -4.7960 C.ar   31  PHE31      -0.0200
     14  CD1       17.5360   26.8320   -6.1840 C.ar   31  PHE31      -0.0042
     15  CD2       17.1270   27.8220   -4.0410 C.ar   31  PHE31      -0.0042
     16  CE1       16.7680   27.8100   -6.7890 C.ar   31  PHE31      -0.0003
     17  CE2       16.3880   28.8220   -4.6470 C.ar   31  PHE31      -0.0003
     18  CZ        16.2040   28.8070   -6.0320 C.ar   31  PHE31      -0.0000
     19  N         18.7450   19.7920   -3.7680 N.3    33  LYS33      -0.1231
     20  CA        19.0770   18.5760   -4.4570 C.3    33  LYS33       0.1678
     21  C         19.1880   18.8380   -5.9530 C.2    33  LYS33       0.2434
     22  O         18.5620   19.7790   -6.4800 O.2    33  LYS33      -0.2733
     23  CB        18.0050   17.5100   -4.1390 C.3    33  LYS33       0.0284
     24  CG        18.0640   16.9550   -2.6960 C.3    33  LYS33       0.0035
     25  CD        19.3800   16.2150   -2.4200 C.3    33  LYS33       0.0206
     26  CE        19.3490   15.3230   -1.1770 C.3    33  LYS33       0.1093
     27  NZ        20.3730   14.2300   -1.2450 N.3    33  LYS33      -0.1314
     28  N         19.9820   18.0180   -6.6620 N.am   34  PRO34      -0.2718
     29  CA        19.9510   18.1440   -8.1230 C.3    34  PRO34       0.1535
     30  C         18.4940   18.0190   -8.6860 C.2    34  PRO34       0.2598
     31  O         17.7040   17.2700   -8.1300 O.2    34  PRO34      -0.2715
     32  CB        20.8270   16.9840   -8.6100 C.3    34  PRO34       0.0310
     33  CG        21.5640   16.4830   -7.4210 C.3    34  PRO34       0.0237
     34  CD        20.7460   16.8380   -6.2140 C.3    34  PRO34       0.0939
     35  N         18.1540   18.8040   -9.7200 N.am   35  VAL35      -0.1964
     36  CA        16.8660   18.6900  -10.4560 C.3    35  VAL35       0.1727
     37  C         16.6820   17.2530  -10.9800 C.2    35  VAL35       0.2616
     38  O         17.6120   16.6740  -11.5600 O.2    35  VAL35      -0.2715
     39  CB        16.7760   19.6970  -11.6290 C.3    35  VAL35       0.0290
     40  CG1       15.4750   19.5050  -12.4350 C.3    35  VAL35       0.0023
     41  CG2       16.8580   21.1140  -11.0940 C.3    35  VAL35       0.0023
     42  N         15.5130   16.6630  -10.7340 N.am   36  ASP36      -0.1971
     43  CA        15.2780   15.2510  -11.1070 C.3    36  ASP36       0.1709
     44  C         14.9260   15.1670  -12.6050 C.2    36  ASP36       0.2293
     45  O         13.9640   15.8040  -13.0320 O.2    36  ASP36      -0.2864
     46  CB        14.1500   14.6500  -10.2600 C.3    36  ASP36       0.1436
     47  CG        14.1170   13.1200  -10.3060 C.2    36  ASP36       0.3671
     48  OD1       14.4120   12.4890  -11.3530 O.co2  36  ASP36      -0.2456
     49  OD2       13.7720   12.5390   -9.2660 O.co2  36  ASP36      -0.2456
     50  N         11.2850   14.3660  -13.1250 N.3    39  GLU39      -0.1231
     51  CA        10.4220   15.5080  -12.8430 C.3    39  GLU39       0.1699
     52  C         10.5750   16.6260  -13.9050 C.2    39  GLU39       0.2592
     53  O          9.5670   17.2110  -14.3220 O.2    39  GLU39      -0.2718
     54  CB        10.6450   16.0240  -11.4110 C.3    39  GLU39       0.0402
     55  CG         9.6180   17.0500  -10.9230 C.3    39  GLU39       0.1161
     56  CD         9.9410   17.6190   -9.5380 C.2    39  GLU39       0.3649
     57  OE1       10.7790   17.0250   -8.8160 O.co2  39  GLU39      -0.2457
     58  OE2        9.3540   18.6630   -9.1590 O.co2  39  GLU39      -0.2457
     59  N         11.8100   16.8890  -14.3670 N.am   40  VAL40      -0.1980
     60  CA        12.1100   18.0150  -15.3100 C.3    40  VAL40       0.1595
     61  C         13.0660   17.5100  -16.4230 C.2    40  VAL40       0.2287
     62  O         14.2950   17.6720  -16.3240 O.2    40  VAL40      -0.2864
     63  CB        12.7420   19.2510  -14.5780 C.3    40  VAL40       0.0276
     64  CG1       12.8370   20.4360  -15.5110 C.3    40  VAL40       0.0022
     65  CG2       11.9600   19.6610  -13.3260 C.3    40  VAL40       0.0022
     66  N         15.7640   19.8260  -18.4170 N.3    43  TYR43      -0.1241
     67  CA        16.6000   20.7110  -17.5780 C.3    43  TYR43       0.1605
     68  C         18.0520   20.6040  -18.0500 C.2    43  TYR43       0.2264
     69  O         18.6490   21.6230  -18.4410 O.2    43  TYR43      -0.2867
     70  CB        16.4750   20.4160  -16.0590 C.3    43  TYR43       0.0534
     71  CG        17.2470   21.4140  -15.1870 C.ar   43  TYR43      -0.0201
     72  CD1       18.5460   21.1550  -14.7590 C.ar   43  TYR43      -0.0009
     73  CD2       16.6700   22.6230  -14.8330 C.ar   43  TYR43      -0.0009
     74  CE1       19.2510   22.0830  -13.9880 C.ar   43  TYR43       0.0417
     75  CE2       17.3440   23.5500  -14.0770 C.ar   43  TYR43       0.0417
     76  CZ        18.6390   23.2870  -13.6860 C.ar   43  TYR43       0.1957
     77  OH        19.2360   24.2270  -12.9480 O.3    43  TYR43      -0.2866
     78  N         18.7520   29.1500  -12.1120 N.3    82  ALA82      -0.1245
     79  CA        17.3050   29.3260  -11.8530 C.3    82  ALA82       0.1562
     80  C         16.7230   30.4860  -12.6400 C.2    82  ALA82       0.2260
     81  O         15.5970   30.3950  -13.1000 O.2    82  ALA82      -0.2867
     82  CB        16.9800   29.4840  -10.3340 C.3    82  ALA82       0.0290
     83  N         16.6700   29.1990  -16.3880 N.3    85  TYR85      -0.1227
     84  CA        15.7170   28.1370  -16.6930 C.3    85  TYR85       0.1736
     85  C         14.2350   28.5430  -16.4880 C.2    85  TYR85       0.2595
     86  O         13.3360   28.0090  -17.1530 O.2    85  TYR85      -0.2718
     87  CB        16.0230   26.8660  -15.9070 C.3    85  TYR85       0.0548
     88  CG        15.1730   25.7060  -16.3720 C.ar   85  TYR85      -0.0200
     89  CD1       15.4930   24.9980  -17.5480 C.ar   85  TYR85      -0.0009
     90  CD2       14.0360   25.3390  -15.6650 C.ar   85  TYR85      -0.0009
     91  CE1       14.6850   23.9570  -17.9860 C.ar   85  TYR85       0.0417
     92  CE2       13.2510   24.2830  -16.0770 C.ar   85  TYR85       0.0417
     93  CZ        13.5790   23.5970  -17.2290 C.ar   85  TYR85       0.1957
     94  OH        12.7650   22.5630  -17.6360 O.3    85  TYR85      -0.2866
     95  N         14.0050   29.5150  -15.6140 N.am   86  ASN86      -0.1974
     96  CA        12.6550   29.9240  -15.2260 C.3    86  ASN86       0.1688
     97  C         12.5090   31.4480  -15.4440 C.2    86  ASN86       0.2292
     98  O         12.3450   32.1940  -14.4970 O.2    86  ASN86      -0.2864
     99  CB        12.4390   29.6010  -13.7350 C.3    86  ASN86       0.1181
    100  CG        12.7710   28.1700  -13.3870 C.2    86  ASN86       0.2629
    101  OD1       11.9740   27.2700  -13.6120 O.2    86  ASN86      -0.2716
    102  ND2       13.9560   27.9480  -12.8350 N.am   86  ASN86      -0.0877
    103  N         10.4450   31.0750   -7.8860 N.3    96  ILE96      -0.1245
    104  CA        11.7580   30.4190   -7.9010 C.3    96  ILE96       0.1561
    105  C         12.8460   31.4960   -8.1270 C.2    96  ILE96       0.2260
    106  O         13.8890   31.4810   -7.4640 O.2    96  ILE96      -0.2867
    107  CB        11.8110   29.2040   -8.8740 C.3    96  ILE96       0.0252
    108  CG1       13.0040   28.3170   -8.5810 C.3    96  ILE96       0.0019
    109  CG2       11.8910   29.6260  -10.3350 C.3    96  ILE96       0.0019
    110  CD1       12.8530   26.8800   -9.0660 C.3    96  ILE96       0.0001
@<TRIPOS>BOND
     1    69    68    2
     2    66    67    1
     3    68    67    1
     4    91    89   ar
     5    91    93   ar
     6    94    93    1
     7    67    70    1
     8    89    88   ar
     9    93    92   ar
    10    86    85    2
    11    84    85    1
    12    84    83    1
    13    84    87    1
    14    85    95   am
    15    61    62    2
    16    61    60    1
    17    88    87    1
    18    88    90   ar
    19    92    90   ar
    20    70    71    1
    21    95    96    1
    22    64    63    1
    23    97    96    1
    24    97    98    2
    25    60    63    1
    26    60    59    1
    27    96    99    1
    28    71    73   ar
    29    71    72   ar
    30    73    75   ar
    31    72    74   ar
    32    63    65    1
    33    59    52   am
    34    53    52    2
    35    75    76   ar
    36    74    76   ar
    37    52    51    1
    38    99   100    1
    39    76    77    1
    40   101   100    2
    41   100   102   am
    42    50    51    1
    43    81    80    2
    44    45    44    2
    45    51    54    1
    46    80    79    1
    47    44    43    1
    48    40    39    1
    49    78    79    1
    50    79    82    1
    51    39    41    1
    52    39    36    1
    53    38    37    2
    54    54    55    1
    55    48    47   ar
    56    43    42    1
    57    43    46    1
    58    37    42   am
    59    37    36    1
    60    55    56    1
    61    36    35    1
    62   109   107    1
    63    47    46    1
    64    47    49   ar
    65    35    30   am
    66    56    58   ar
    67    56    57   ar
    68   110   108    1
    69   107   108    1
    70   107   104    1
    71    30    31    2
    72    30    29    1
    73    32    29    1
    74    32    33    1
    75   105   104    1
    76   105   106    2
    77    29    28    1
    78   104   103    1
    79    33    34    1
    80    16    14   ar
    81    16    18   ar
    82    28    34    1
    83    28    21   am
    84     7     5    1
    85    22    21    2
    86    14    13   ar
    87    18    17   ar
    88    21    20    1
    89     4     3    2
    90     5     6    1
    91     5     2    1
    92    13    12    1
    93    13    15   ar
    94     3     2    1
    95     3     8   am
    96    17    15   ar
    97    20    23    1
    98    20    19    1
    99     9    12    1
   100     9     8    1
   101     9    10    1
   102     2     1    1
   103    23    24    1
   104    11    10    2
   105    24    25    1
   106    25    26    1
   107    27    26    1
