@<TRIPOS>MOLECULE
tmp/4qsuA00.pdb
 86 81 0 0 0
SMALL
GASTEIGER

@<TRIPOS>ATOM
      1  N         25.1310   44.8880   -2.9810 N.3    30  VAL30      -0.1231
      2  CA        25.0350   45.2330   -4.3910 C.3    30  VAL30       0.1692
      3  C         23.5520   45.3010   -4.8630 C.2    30  VAL30       0.2592
      4  O         23.2450   45.9480   -5.8690 O.2    30  VAL30      -0.2718
      5  CB        25.8420   44.2280   -5.2400 C.3    30  VAL30       0.0266
      6  CG1       25.2570   42.8170   -5.1800 C.3    30  VAL30       0.0020
      7  CG2       25.9430   44.6640   -6.6640 C.3    30  VAL30       0.0020
      8  N         22.6640   44.6110   -4.1530 N.am   31  PHE31      -0.1976
      9  CA        21.2290   44.5670   -4.5250 C.3    31  PHE31       0.1639
     10  C         20.4060   45.6180   -3.7560 C.2    31  PHE31       0.2290
     11  O         19.1660   45.6260   -3.8660 O.2    31  PHE31      -0.2864
     12  CB        20.6650   43.1670   -4.2560 C.3    31  PHE31       0.0560
     13  CG        21.4720   42.0540   -4.8880 C.ar   31  PHE31      -0.0200
     14  CD1       21.6170   41.9960   -6.2700 C.ar   31  PHE31      -0.0042
     15  CD2       22.0510   41.0760   -4.1090 C.ar   31  PHE31      -0.0042
     16  CE1       22.3640   40.9980   -6.8630 C.ar   31  PHE31      -0.0003
     17  CE2       22.8270   40.0670   -4.6820 C.ar   31  PHE31      -0.0003
     18  CZ        22.9730   40.0190   -6.0680 C.ar   31  PHE31      -0.0000
     19  N         20.3580   48.9880   -3.8930 N.3    33  LYS33      -0.1245
     20  CA        20.0300   50.2130   -4.5730 C.3    33  LYS33       0.1561
     21  C         20.0490   49.9220   -6.0470 C.2    33  LYS33       0.2260
     22  O         20.7530   49.0010   -6.4960 O.2    33  LYS33      -0.2867
     23  CB        21.1120   51.2730   -4.3030 C.3    33  LYS33       0.0271
     24  CG        21.1650   51.8350   -2.8910 C.3    33  LYS33       0.0035
     25  CD        19.9390   52.6740   -2.5040 C.3    33  LYS33       0.0206
     26  CE        19.7440   52.7600   -0.9750 C.3    33  LYS33       0.1093
     27  NZ        18.4170   53.3490   -0.5570 N.3    33  LYS33      -0.1314
     28  N         21.1740   50.2460   -9.9240 N.3    35  VAL35      -0.1245
     29  CA        22.4820   50.3150  -10.5160 C.3    35  VAL35       0.1561
     30  C         22.7630   51.7550  -10.9540 C.2    35  VAL35       0.2260
     31  O         21.8980   52.4340  -11.5190 O.2    35  VAL35      -0.2867
     32  CB        22.5930   49.3590  -11.7260 C.3    35  VAL35       0.0252
     33  CG1       23.9230   49.5430  -12.4410 C.3    35  VAL35       0.0019
     34  CG2       22.4330   47.9210  -11.2800 C.3    35  VAL35       0.0019
     35  N         27.5650   51.7350  -14.4420 N.3    40  VAL40      -0.1245
     36  CA        27.1910   50.6780  -15.4020 C.3    40  VAL40       0.1561
     37  C         26.2290   51.2400  -16.4530 C.2    40  VAL40       0.2260
     38  O         25.0150   51.1470  -16.3160 O.2    40  VAL40      -0.2867
     39  CB        26.5360   49.4560  -14.6960 C.3    40  VAL40       0.0252
     40  CG1       26.6260   48.2110  -15.5750 C.3    40  VAL40       0.0019
     41  CG2       27.1850   49.1980  -13.3400 C.3    40  VAL40       0.0019
     42  N         23.4550   49.0520  -18.3540 N.3    43  TYR43      -0.1241
     43  CA        22.6130   48.1740  -17.5650 C.3    43  TYR43       0.1605
     44  C         21.1350   48.3510  -17.9660 C.2    43  TYR43       0.2264
     45  O         20.4300   47.3720  -18.2880 O.2    43  TYR43      -0.2867
     46  CB        22.7830   48.4410  -16.0730 C.3    43  TYR43       0.0534
     47  CG        22.0840   47.4080  -15.2340 C.ar   43  TYR43      -0.0201
     48  CD1       20.7750   47.6110  -14.7740 C.ar   43  TYR43      -0.0009
     49  CD2       22.7120   46.2000  -14.9250 C.ar   43  TYR43      -0.0009
     50  CE1       20.1210   46.6390  -13.9990 C.ar   43  TYR43       0.0417
     51  CE2       22.0760   45.2270  -14.1540 C.ar   43  TYR43       0.0417
     52  CZ        20.7780   45.4490  -13.7000 C.ar   43  TYR43       0.1957
     53  OH        20.1390   44.4980  -12.9830 O.3    43  TYR43      -0.2866
     54  N         20.4340   39.4370  -12.1510 N.3    82  ALA82      -0.1245
     55  CA        21.8420   39.2780  -11.8780 C.3    82  ALA82       0.1562
     56  C         22.4150   38.1090  -12.6550 C.2    82  ALA82       0.2260
     57  O         23.5400   38.1880  -13.0910 O.2    82  ALA82      -0.2867
     58  CB        22.1020   39.1030  -10.3580 C.3    82  ALA82       0.0290
     59  N         22.5410   39.4320  -16.4130 N.3    85  TYR85      -0.1227
     60  CA        23.5180   40.4600  -16.6880 C.3    85  TYR85       0.1736
     61  C         24.9730   40.0350  -16.4470 C.2    85  TYR85       0.2595
     62  O         25.8420   40.6100  -17.0510 O.2    85  TYR85      -0.2718
     63  CB        23.2500   41.7540  -15.9100 C.3    85  TYR85       0.0548
     64  CG        24.0890   42.9270  -16.3590 C.ar   85  TYR85      -0.0200
     65  CD1       23.8170   43.5950  -17.5680 C.ar   85  TYR85      -0.0009
     66  CD2       25.1920   43.3470  -15.6160 C.ar   85  TYR85      -0.0009
     67  CE1       24.6060   44.6640  -17.9810 C.ar   85  TYR85       0.0417
     68  CE2       25.9820   44.3990  -16.0260 C.ar   85  TYR85       0.0417
     69  CZ        25.6780   45.0610  -17.2010 C.ar   85  TYR85       0.1957
     70  OH        26.4680   46.1070  -17.6030 O.3    85  TYR85      -0.2866
     71  N         25.2190   39.0500  -15.5830 N.am   86  ASN86      -0.1974
     72  CA        26.5680   38.6280  -15.2360 C.3    86  ASN86       0.1688
     73  C         26.7150   37.1150  -15.4700 C.2    86  ASN86       0.2292
     74  O         26.7780   36.3450  -14.5170 O.2    86  ASN86      -0.2864
     75  CB        26.8770   38.9690  -13.7530 C.3    86  ASN86       0.1181
     76  CG        26.4650   40.4000  -13.3610 C.2    86  ASN86       0.2629
     77  OD1       27.2180   41.3580  -13.5140 O.2    86  ASN86      -0.2716
     78  ND2       25.2590   40.5340  -12.8550 N.am   86  ASN86      -0.0877
     79  N         28.7380   37.5530   -7.9620 N.3    96  ILE96      -0.1245
     80  CA        27.4570   38.2140   -7.9280 C.3    96  ILE96       0.1561
     81  C         26.3080   37.2210   -8.1610 C.2    96  ILE96       0.2260
     82  O         25.2870   37.3380   -7.4660 O.2    96  ILE96      -0.2867
     83  CB        27.3430   39.4620   -8.8370 C.3    96  ILE96       0.0252
     84  CG1       26.0560   40.2250   -8.4840 C.3    96  ILE96       0.0019
     85  CG2       27.3120   39.0990  -10.3160 C.3    96  ILE96       0.0019
     86  CD1       26.0230   41.6610   -9.0100 C.3    96  ILE96       0.0001
@<TRIPOS>BOND
     1    42    43    1
     2    45    44    2
     3    67    65   ar
     4    67    69   ar
     5    44    43    1
     6    70    69    1
     7    65    64   ar
     8    43    46    1
     9    69    68   ar
    10    62    61    2
    11    60    61    1
    12    60    59    1
    13    60    63    1
    14    37    38    2
    15    37    36    1
    16    61    71   am
    17    64    63    1
    18    64    66   ar
    19    46    47    1
    20    68    66   ar
    21    71    72    1
    22    40    39    1
    23    73    72    1
    24    73    74    2
    25    36    39    1
    26    36    35    1
    27    72    75    1
    28    47    49   ar
    29    47    48   ar
    30    49    51   ar
    31    48    50   ar
    32    39    41    1
    33    51    52   ar
    34    50    52   ar
    35    75    76    1
    36    52    53    1
    37    77    76    2
    38    76    78   am
    39    57    56    2
    40    56    55    1
    41    33    32    1
    42    54    55    1
    43    55    58    1
    44    32    34    1
    45    32    29    1
    46    31    30    2
    47    30    29    1
    48    29    28    1
    49    85    83    1
    50    86    84    1
    51    83    84    1
    52    83    80    1
    53    81    80    1
    54    81    82    2
    55    79    80    1
    56    16    14   ar
    57    16    18   ar
    58     7     5    1
    59    22    21    2
    60    14    13   ar
    61    18    17   ar
    62    21    20    1
    63     4     3    2
    64     5     6    1
    65     5     2    1
    66    13    12    1
    67    13    15   ar
    68     3     2    1
    69     3     8   am
    70    17    15   ar
    71    20    23    1
    72    20    19    1
    73     9    12    1
    74     9     8    1
    75     9    10    1
    76     2     1    1
    77    23    24    1
    78    11    10    2
    79    24    25    1
    80    25    26    1
    81    26    27    1
