@<TRIPOS>MOLECULE
tmp/4qswA00.pdb
 110 107 0 0 0
SMALL
GASTEIGER

@<TRIPOS>ATOM
      1  N         25.2810   45.0240   -3.2590 N.3    30  VAL30      -0.1231
      2  CA        25.1690   45.3180   -4.6470 C.3    30  VAL30       0.1692
      3  C         23.6850   45.3420   -5.0900 C.2    30  VAL30       0.2592
      4  O         23.3680   45.9620   -6.0890 O.2    30  VAL30      -0.2718
      5  CB        26.0260   44.3400   -5.5200 C.3    30  VAL30       0.0266
      6  CG1       25.5320   42.9030   -5.4140 C.3    30  VAL30       0.0020
      7  CG2       26.0330   44.7660   -6.9570 C.3    30  VAL30       0.0020
      8  N         22.8150   44.6960   -4.3210 N.am   31  PHE31      -0.1976
      9  CA        21.3950   44.6140   -4.6850 C.3    31  PHE31       0.1639
     10  C         20.5490   45.6330   -3.9420 C.2    31  PHE31       0.2290
     11  O         19.3410   45.6130   -4.0660 O.2    31  PHE31      -0.2864
     12  CB        20.8660   43.2260   -4.3770 C.3    31  PHE31       0.0560
     13  CG        21.6710   42.1230   -5.0100 C.ar   31  PHE31      -0.0200
     14  CD1       21.8290   42.0810   -6.3940 C.ar   31  PHE31      -0.0042
     15  CD2       22.2510   41.1610   -4.2270 C.ar   31  PHE31      -0.0042
     16  CE1       22.5760   41.0920   -6.9970 C.ar   31  PHE31      -0.0003
     17  CE2       23.0300   40.1570   -4.8130 C.ar   31  PHE31      -0.0003
     18  CZ        23.1730   40.1150   -6.1940 C.ar   31  PHE31      -0.0000
     19  N         20.6260   49.0130   -4.2650 N.3    33  LYS33      -0.1231
     20  CA        20.3790   50.2210   -5.0500 C.3    33  LYS33       0.1678
     21  C         20.3780   49.8630   -6.4990 C.2    33  LYS33       0.2434
     22  O         21.0210   48.8860   -6.9000 O.2    33  LYS33      -0.2733
     23  CB        21.5000   51.2480   -4.8380 C.3    33  LYS33       0.0284
     24  CG        21.6410   51.7580   -3.4260 C.3    33  LYS33       0.0035
     25  CD        20.4360   52.5620   -2.9690 C.3    33  LYS33       0.0206
     26  CE        20.4910   52.8580   -1.4710 C.3    33  LYS33       0.1093
     27  NZ        19.1730   53.3910   -1.0070 N.3    33  LYS33      -0.1314
     28  N         19.7490   50.7120   -7.3260 N.am   34  PRO34      -0.2718
     29  CA        19.8420   50.5660   -8.7770 C.3    34  PRO34       0.1535
     30  C         21.2740   50.6790   -9.2400 C.2    34  PRO34       0.2598
     31  O         22.0610   51.2820   -8.5420 O.2    34  PRO34      -0.2715
     32  CB        19.0660   51.7930   -9.3150 C.3    34  PRO34       0.0310
     33  CG        18.2420   52.2870   -8.1860 C.3    34  PRO34       0.0237
     34  CD        18.9790   51.9100   -6.9270 C.3    34  PRO34       0.0939
     35  N         21.6460   50.0990  -10.3820 N.am   35  VAL35      -0.1964
     36  CA        23.0710   50.1670  -10.8150 C.3    35  VAL35       0.1727
     37  C         23.4840   51.5830  -11.2500 C.2    35  VAL35       0.2616
     38  O         22.6360   52.4050  -11.5480 O.2    35  VAL35      -0.2715
     39  CB        23.4420   49.1710  -11.9520 C.3    35  VAL35       0.0290
     40  CG1       22.8410   47.7930  -11.6880 C.3    35  VAL35       0.0023
     41  CG2       23.0330   49.7030  -13.3220 C.3    35  VAL35       0.0023
     42  N         24.7860   51.8510  -11.3060 N.am   36  ASP36      -0.1971
     43  CA        25.2830   53.1670  -11.7820 C.3    36  ASP36       0.1709
     44  C         25.3980   53.2310  -13.3280 C.2    36  ASP36       0.2293
     45  O         26.3500   52.6910  -13.9090 O.2    36  ASP36      -0.2864
     46  CB        26.6290   53.5070  -11.1180 C.3    36  ASP36       0.1436
     47  CG        27.1220   54.9070  -11.4700 C.2    36  ASP36       0.3671
     48  OD1       26.3170   55.8630  -11.3360 O.co2  36  ASP36      -0.2456
     49  OD2       28.2980   55.0400  -11.8780 O.co2  36  ASP36      -0.2456
     50  N         28.5540   53.8460  -14.8350 N.3    39  GLU39      -0.1231
     51  CA        29.4730   52.7400  -14.5920 C.3    39  GLU39       0.1699
     52  C         29.1850   51.5500  -15.4960 C.2    39  GLU39       0.2592
     53  O         30.1120   50.8550  -15.9260 O.2    39  GLU39      -0.2718
     54  CB        29.3590   52.2900  -13.1400 C.3    39  GLU39       0.0402
     55  CG        30.6780   52.0340  -12.4520 C.3    39  GLU39       0.1161
     56  CD        30.5150   52.0620  -10.9510 C.2    39  GLU39       0.3649
     57  OE1       30.1250   51.0240  -10.3810 O.co2  39  GLU39      -0.2457
     58  OE2       30.7580   53.1360  -10.3540 O.co2  39  GLU39      -0.2457
     59  N         27.9000   51.3160  -15.7700 N.am   40  VAL40      -0.1980
     60  CA        27.4640   50.1490  -16.5410 C.3    40  VAL40       0.1595
     61  C         26.3320   50.5700  -17.5150 C.2    40  VAL40       0.2287
     62  O         25.1350   50.3210  -17.2820 O.2    40  VAL40      -0.2864
     63  CB        27.1120   49.0010  -15.5650 C.3    40  VAL40       0.0276
     64  CG1       26.0670   49.4390  -14.5710 C.3    40  VAL40       0.0022
     65  CG2       26.7260   47.7380  -16.2990 C.3    40  VAL40       0.0022
     66  N         23.5170   48.3880  -19.1030 N.3    43  TYR43      -0.1241
     67  CA        22.6370   47.6440  -18.1880 C.3    43  TYR43       0.1605
     68  C         21.1850   47.7910  -18.5720 C.2    43  TYR43       0.2264
     69  O         20.4700   46.7950  -18.6700 O.2    43  TYR43      -0.2867
     70  CB        22.8220   48.0660  -16.7280 C.3    43  TYR43       0.0534
     71  CG        22.1450   47.1000  -15.7610 C.ar   43  TYR43      -0.0201
     72  CD1       22.7980   45.9260  -15.3330 C.ar   43  TYR43      -0.0009
     73  CD2       20.8670   47.3330  -15.2790 C.ar   43  TYR43      -0.0009
     74  CE1       22.1910   45.0390  -14.4620 C.ar   43  TYR43       0.0417
     75  CE2       20.2600   46.4520  -14.3930 C.ar   43  TYR43       0.0417
     76  CZ        20.9210   45.3060  -13.9860 C.ar   43  TYR43       0.1957
     77  OH        20.2990   44.4180  -13.1640 O.3    43  TYR43      -0.2866
     78  N         20.5760   39.3720  -12.2010 N.3    82  ALA82      -0.1245
     79  CA        21.9980   39.2470  -11.8970 C.3    82  ALA82       0.1562
     80  C         22.5740   38.0490  -12.6840 C.2    82  ALA82       0.2260
     81  O         23.6880   38.1130  -13.1810 O.2    82  ALA82      -0.2867
     82  CB        22.2220   39.1160  -10.4010 C.3    82  ALA82       0.0290
     83  N         22.6890   39.1820  -16.5290 N.3    85  TYR85      -0.1227
     84  CA        23.6170   40.2550  -16.8420 C.3    85  TYR85       0.1736
     85  C         25.1050   39.8910  -16.5790 C.2    85  TYR85       0.2595
     86  O         26.0120   40.4630  -17.1980 O.2    85  TYR85      -0.2718
     87  CB        23.2580   41.5260  -16.0610 C.3    85  TYR85       0.0548
     88  CG        24.1290   42.6590  -16.5340 C.ar   85  TYR85      -0.0200
     89  CD1       23.8820   43.2550  -17.7690 C.ar   85  TYR85      -0.0009
     90  CD2       25.2320   43.0830  -15.7960 C.ar   85  TYR85      -0.0009
     91  CE1       24.7000   44.2720  -18.2580 C.ar   85  TYR85       0.0417
     92  CE2       26.0690   44.0830  -16.2750 C.ar   85  TYR85       0.0417
     93  CZ        25.7990   44.6720  -17.4990 C.ar   85  TYR85       0.1957
     94  OH        26.6110   45.6650  -17.9720 O.3    85  TYR85      -0.2866
     95  N         25.3410   38.9150  -15.7010 N.am   86  ASN86      -0.1974
     96  CA        26.6950   38.5040  -15.2950 C.3    86  ASN86       0.1688
     97  C         26.8940   37.0070  -15.4780 C.2    86  ASN86       0.2292
     98  O         27.0370   36.2750  -14.5210 O.2    86  ASN86      -0.2864
     99  CB        26.9520   38.8760  -13.8370 C.3    86  ASN86       0.1181
    100  CG        26.6190   40.3330  -13.5340 C.2    86  ASN86       0.2629
    101  OD1       27.4140   41.2170  -13.7510 O.2    86  ASN86      -0.2716
    102  ND2       25.4450   40.5550  -12.9430 N.am   86  ASN86      -0.0877
    103  N         29.0070   37.6790   -7.9670 N.3    96  ILE96      -0.1245
    104  CA        27.7100   38.2790   -7.9900 C.3    96  ILE96       0.1561
    105  C         26.6170   37.2350   -8.1650 C.2    96  ILE96       0.2260
    106  O         25.5840   37.3630   -7.4890 O.2    96  ILE96      -0.2867
    107  CB        27.5760   39.4490   -8.9810 C.3    96  ILE96       0.0252
    108  CG1       26.2580   40.1920   -8.7250 C.3    96  ILE96       0.0019
    109  CG2       27.5450   38.9430  -10.3760 C.3    96  ILE96       0.0019
    110  CD1       26.1690   41.5770   -9.3450 C.3    96  ILE96       0.0001
@<TRIPOS>BOND
     1    66    67    1
     2    69    68    2
     3    68    67    1
     4    91    89   ar
     5    91    93   ar
     6    67    70    1
     7    94    93    1
     8    89    88   ar
     9    61    62    2
    10    61    60    1
    11    93    92   ar
    12    86    85    2
    13    84    85    1
    14    84    83    1
    15    84    87    1
    16    70    71    1
    17    85    95   am
    18    60    59    1
    19    60    63    1
    20    88    87    1
    21    88    90   ar
    22    65    63    1
    23    92    90   ar
    24    53    52    2
    25    59    52   am
    26    71    72   ar
    27    71    73   ar
    28    95    96    1
    29    63    64    1
    30    52    51    1
    31    97    96    1
    32    97    98    2
    33    72    74   ar
    34    96    99    1
    35    73    75   ar
    36    50    51    1
    37    51    54    1
    38    74    76   ar
    39    75    76   ar
    40    76    77    1
    41    45    44    2
    42    99   100    1
    43   101   100    2
    44   100   102   am
    45    44    43    1
    46    41    39    1
    47    81    80    2
    48    54    55    1
    49    80    79    1
    50    55    56    1
    51    78    79    1
    52    39    40    1
    53    39    36    1
    54    79    82    1
    55    49    47   ar
    56    43    42    1
    57    43    46    1
    58    38    37    2
    59    47    48   ar
    60    47    46    1
    61    42    37   am
    62    37    36    1
    63    56    57   ar
    64    56    58   ar
    65    36    35    1
    66    35    30   am
    67   109   107    1
    68   110   108    1
    69    32    29    1
    70    32    33    1
    71    30    29    1
    72    30    31    2
    73   107   108    1
    74   107   104    1
    75    29    28    1
    76    33    34    1
    77   105   104    1
    78   105   106    2
    79   104   103    1
    80    28    34    1
    81    28    21   am
    82    16    14   ar
    83    16    18   ar
    84     7     5    1
    85    22    21    2
    86    21    20    1
    87    14    13   ar
    88    18    17   ar
    89     4     3    2
    90     5     6    1
    91     5     2    1
    92     3     2    1
    93     3     8   am
    94    20    23    1
    95    20    19    1
    96    13    12    1
    97    13    15   ar
    98    23    24    1
    99    17    15   ar
   100     9    12    1
   101     9     8    1
   102     9    10    1
   103     2     1    1
   104    11    10    2
   105    24    25    1
   106    25    26    1
   107    26    27    1
