@<TRIPOS>MOLECULE
tmp/4qsxA00.pdb
 110 107 0 0 0
SMALL
GASTEIGER

@<TRIPOS>ATOM
      1  N         25.2100   44.8940   -3.1530 N.3    30  VAL30      -0.1231
      2  CA        25.0980   45.2080   -4.5460 C.3    30  VAL30       0.1692
      3  C         23.6380   45.2080   -5.0380 C.2    30  VAL30       0.2592
      4  O         23.3200   45.8600   -6.0300 O.2    30  VAL30      -0.2718
      5  CB        25.9250   44.2070   -5.3840 C.3    30  VAL30       0.0266
      6  CG1       25.3320   42.8150   -5.3800 C.3    30  VAL30       0.0020
      7  CG2       26.1010   44.7210   -6.7950 C.3    30  VAL30       0.0020
      8  N         22.7640   44.4980   -4.3370 N.am   31  PHE31      -0.1976
      9  CA        21.3400   44.4800   -4.6980 C.3    31  PHE31       0.1639
     10  C         20.5140   45.5540   -3.9890 C.2    31  PHE31       0.2290
     11  O         19.2810   45.5630   -4.1280 O.2    31  PHE31      -0.2864
     12  CB        20.7740   43.0820   -4.4100 C.3    31  PHE31       0.0560
     13  CG        21.5540   41.9740   -5.0610 C.ar   31  PHE31      -0.0200
     14  CD1       21.7580   41.9810   -6.4400 C.ar   31  PHE31      -0.0042
     15  CD2       22.1480   40.9960   -4.3020 C.ar   31  PHE31      -0.0042
     16  CE1       22.5430   41.0080   -7.0520 C.ar   31  PHE31      -0.0003
     17  CE2       22.9430   40.0100   -4.8980 C.ar   31  PHE31      -0.0003
     18  CZ        23.1260   40.0110   -6.2700 C.ar   31  PHE31      -0.0000
     19  N         20.5390   48.9060   -4.1970 N.3    33  LYS33      -0.1231
     20  CA        20.2200   50.1190   -4.9440 C.3    33  LYS33       0.1678
     21  C         20.1830   49.7950   -6.3990 C.2    33  LYS33       0.2434
     22  O         20.8180   48.8230   -6.8330 O.2    33  LYS33      -0.2733
     23  CB        21.2950   51.1880   -4.7630 C.3    33  LYS33       0.0284
     24  CG        21.4530   51.7190   -3.3550 C.3    33  LYS33       0.0035
     25  CD        20.2400   52.5100   -2.8710 C.3    33  LYS33       0.0206
     26  CE        20.1730   52.5560   -1.3440 C.3    33  LYS33       0.1093
     27  NZ        18.8720   53.1160   -0.8650 N.3    33  LYS33      -0.1314
     28  N         19.4550   50.6080   -7.1690 N.am   34  PRO34      -0.2718
     29  CA        19.4960   50.4490   -8.6130 C.3    34  PRO34       0.1535
     30  C         20.8930   50.6940   -9.1890 C.2    34  PRO34       0.2598
     31  O         21.7140   51.3370   -8.5570 O.2    34  PRO34      -0.2715
     32  CB        18.4960   51.5190   -9.1450 C.3    34  PRO34       0.0310
     33  CG        17.8500   52.1280   -7.9590 C.3    34  PRO34       0.0237
     34  CD        18.6580   51.7770   -6.7460 C.3    34  PRO34       0.0939
     35  N         21.1610   50.1460  -10.3630 N.am   35  VAL35      -0.1964
     36  CA        22.4810   50.3130  -11.0280 C.3    35  VAL35       0.1727
     37  C         22.5680   51.6950  -11.6780 C.2    35  VAL35       0.2616
     38  O         21.6980   52.0550  -12.4750 O.2    35  VAL35      -0.2715
     39  CB        22.7150   49.2350  -12.1140 C.3    35  VAL35       0.0290
     40  CG1       24.0830   49.3960  -12.7700 C.3    35  VAL35       0.0023
     41  CG2       22.5840   47.8410  -11.5250 C.3    35  VAL35       0.0023
     42  N         23.6210   52.4450  -11.3450 N.am   36  ASP36      -0.1971
     43  CA        23.8160   53.8490  -11.7980 C.3    36  ASP36       0.1709
     44  C         23.6470   54.0970  -13.3180 C.2    36  ASP36       0.2293
     45  O         24.3470   53.4860  -14.1310 O.2    36  ASP36      -0.2864
     46  CB        25.1910   54.3420  -11.3630 C.3    36  ASP36       0.1436
     47  CG        25.3440   55.8430  -11.5190 C.2    36  ASP36       0.3671
     48  OD1       25.5420   56.3260  -12.6600 O.co2  36  ASP36      -0.2456
     49  OD2       25.2590   56.5380  -10.4880 O.co2  36  ASP36      -0.2456
     50  N         26.9210   55.0890  -15.0560 N.3    39  GLU39      -0.1231
     51  CA        28.1140   54.3190  -14.6730 C.3    39  GLU39       0.1699
     52  C         28.0880   52.8480  -15.1290 C.2    39  GLU39       0.2592
     53  O         29.1380   52.1990  -15.1540 O.2    39  GLU39      -0.2718
     54  CB        28.3820   54.4320  -13.1640 C.3    39  GLU39       0.0402
     55  CG        28.9380   53.1730  -12.5100 C.3    39  GLU39       0.1161
     56  CD        28.9000   53.2130  -10.9970 C.2    39  GLU39       0.3649
     57  OE1       28.1590   54.0410  -10.4250 O.co2  39  GLU39      -0.2457
     58  OE2       29.6000   52.3870  -10.3780 O.co2  39  GLU39      -0.2457
     59  N         26.9080   52.3230  -15.4700 N.am   40  VAL40      -0.1980
     60  CA        26.8050   51.0280  -16.1640 C.3    40  VAL40       0.1595
     61  C         25.7900   51.1870  -17.3000 C.2    40  VAL40       0.2287
     62  O         24.6720   50.6700  -17.2210 O.2    40  VAL40      -0.2864
     63  CB        26.3840   49.8810  -15.2180 C.3    40  VAL40       0.0276
     64  CG1       26.5280   48.5250  -15.8940 C.3    40  VAL40       0.0022
     65  CG2       27.2100   49.8980  -13.9380 C.3    40  VAL40       0.0022
     66  N         23.4180   48.5080  -18.8440 N.3    43  TYR43      -0.1241
     67  CA        22.5720   47.6820  -17.9500 C.3    43  TYR43       0.1605
     68  C         21.1180   47.7270  -18.4110 C.2    43  TYR43       0.2264
     69  O         20.5200   46.6910  -18.7340 O.2    43  TYR43      -0.2867
     70  CB        22.6750   48.1340  -16.4710 C.3    43  TYR43       0.0534
     71  CG        22.0240   47.1600  -15.5130 C.ar   43  TYR43      -0.0201
     72  CD1       20.7410   47.3970  -14.9930 C.ar   43  TYR43      -0.0009
     73  CD2       22.6640   45.9710  -15.1640 C.ar   43  TYR43      -0.0009
     74  CE1       20.1420   46.4890  -14.1340 C.ar   43  TYR43       0.0417
     75  CE2       22.0680   45.0510  -14.3100 C.ar   43  TYR43       0.0417
     76  CZ        20.8050   45.3080  -13.8060 C.ar   43  TYR43       0.1957
     77  OH        20.2160   44.4060  -12.9810 O.3    43  TYR43      -0.2866
     78  N         20.5560   39.2400  -12.2150 N.3    82  ALA82      -0.1245
     79  CA        21.9760   39.1590  -11.9310 C.3    82  ALA82       0.1562
     80  C         22.5560   38.0020  -12.7440 C.2    82  ALA82       0.2260
     81  O         23.6500   38.1050  -13.2290 O.2    82  ALA82      -0.2867
     82  CB        22.2320   38.9600  -10.4310 C.3    82  ALA82       0.0290
     83  N         22.6770   39.1900  -16.5270 N.3    85  TYR85      -0.1227
     84  CA        23.6290   40.2460  -16.8380 C.3    85  TYR85       0.1736
     85  C         25.0890   39.8720  -16.5410 C.2    85  TYR85       0.2595
     86  O         26.0140   40.4620  -17.1150 O.2    85  TYR85      -0.2718
     87  CB        23.2940   41.4780  -16.0230 C.3    85  TYR85       0.0548
     88  CG        24.1330   42.6580  -16.3970 C.ar   85  TYR85      -0.0200
     89  CD1       23.9340   43.3140  -17.6160 C.ar   85  TYR85      -0.0009
     90  CD2       25.1490   43.1050  -15.5570 C.ar   85  TYR85      -0.0009
     91  CE1       24.7240   44.4030  -17.9880 C.ar   85  TYR85       0.0417
     92  CE2       25.9640   44.1640  -15.9160 C.ar   85  TYR85       0.0417
     93  CZ        25.7510   44.8090  -17.1230 C.ar   85  TYR85       0.1957
     94  OH        26.5340   45.8650  -17.4500 O.3    85  TYR85      -0.2866
     95  N         25.3150   38.9380  -15.6170 N.am   86  ASN86      -0.1974
     96  CA        26.6980   38.5430  -15.2360 C.3    86  ASN86       0.1688
     97  C         26.8480   37.0550  -15.4680 C.2    86  ASN86       0.2292
     98  O         26.9140   36.2750  -14.5300 O.2    86  ASN86      -0.2864
     99  CB        27.0210   38.8880  -13.7700 C.3    86  ASN86       0.1181
    100  CG        26.5670   40.2730  -13.3820 C.2    86  ASN86       0.2629
    101  OD1       27.3110   41.2290  -13.4770 O.2    86  ASN86      -0.2716
    102  ND2       25.3520   40.3720  -12.8890 N.am   86  ASN86      -0.0877
    103  N         28.9130   37.6370   -7.9620 N.3    96  ILE96      -0.1245
    104  CA        27.5890   38.2420   -7.9750 C.3    96  ILE96       0.1561
    105  C         26.4940   37.2010   -8.2060 C.2    96  ILE96       0.2260
    106  O         25.4510   37.2930   -7.5560 O.2    96  ILE96      -0.2867
    107  CB        27.4690   39.4260   -8.9540 C.3    96  ILE96       0.0252
    108  CG1       26.1410   40.1200   -8.7700 C.3    96  ILE96       0.0019
    109  CG2       27.5360   38.9580  -10.3900 C.3    96  ILE96       0.0019
    110  CD1       26.0970   41.5490   -9.2440 C.3    96  ILE96       0.0001
@<TRIPOS>BOND
     1    66    67    1
     2    69    68    2
     3    68    67    1
     4    91    89   ar
     5    91    93   ar
     6    67    70    1
     7    89    88   ar
     8    94    93    1
     9    61    62    2
    10    61    60    1
    11    93    92   ar
    12    86    85    2
    13    84    85    1
    14    84    83    1
    15    84    87    1
    16    85    95   am
    17    70    71    1
    18    88    87    1
    19    88    90   ar
    20    60    59    1
    21    60    63    1
    22    92    90   ar
    23    64    63    1
    24    95    96    1
    25    71    73   ar
    26    71    72   ar
    27    59    52   am
    28    97    96    1
    29    97    98    2
    30    96    99    1
    31    63    65    1
    32    73    75   ar
    33    53    52    2
    34    52    51    1
    35    50    51    1
    36    72    74   ar
    37    51    54    1
    38    75    76   ar
    39    74    76   ar
    40    45    44    2
    41    76    77    1
    42    99   100    1
    43   101   100    2
    44   100   102   am
    45    44    43    1
    46    81    80    2
    47    54    55    1
    48    40    39    1
    49    80    79    1
    50    48    47   ar
    51    55    56    1
    52    38    37    2
    53    78    79    1
    54    39    41    1
    55    39    36    1
    56    79    82    1
    57    43    46    1
    58    43    42    1
    59    37    42   am
    60    37    36    1
    61    47    46    1
    62    47    49   ar
    63    36    35    1
    64    56    57   ar
    65    56    58   ar
    66   109   107    1
    67    35    30   am
    68   110   108    1
    69    30    29    1
    70    30    31    2
    71    32    29    1
    72    32    33    1
    73   107   108    1
    74   107   104    1
    75    29    28    1
    76   105   104    1
    77   105   106    2
    78   104   103    1
    79    33    34    1
    80    28    34    1
    81    28    21   am
    82    16    14   ar
    83    16    18   ar
    84    22    21    2
    85     7     5    1
    86    14    13   ar
    87    21    20    1
    88    18    17   ar
    89     4     3    2
    90     5     6    1
    91     5     2    1
    92    13    12    1
    93    13    15   ar
    94     3     2    1
    95     3     8   am
    96    20    23    1
    97    20    19    1
    98    17    15   ar
    99    23    24    1
   100     9    12    1
   101     9     8    1
   102     9    10    1
   103     2     1    1
   104    11    10    2
   105    24    25    1
   106    25    26    1
   107    26    27    1
