@<TRIPOS>MOLECULE
tmp/4qsyA00.pdb
 66 65 0 0 0
SMALL
GASTEIGER

@<TRIPOS>ATOM
      1  N        -15.1240   11.7220   -7.4330 N.3    61  LEU61      -0.1231
      2  CA       -15.2270   11.9590   -5.9990 C.3    61  LEU61       0.1693
      3  C        -15.5780   10.6610   -5.2870 C.2    61  LEU61       0.2592
      4  O        -16.4700   10.6330   -4.4370 O.2    61  LEU61      -0.2718
      5  CB       -16.2680   13.0430   -5.6960 C.3    61  LEU61       0.0284
      6  CG       -16.1470   14.3580   -6.4730 C.3    61  LEU61       0.0019
      7  CD1      -17.3310   15.2740   -6.1840 C.3    61  LEU61       0.0001
      8  CD2      -14.8370   15.0580   -6.1500 C.3    61  LEU61       0.0001
      9  N        -14.8580    9.5950   -5.6390 N.am   62  TYR62      -0.1962
     10  CA       -15.1700    8.2410   -5.1870 C.3    62  TYR62       0.1771
     11  C        -16.6390    7.9410   -5.4500 C.2    62  TYR62       0.2620
     12  O        -17.3630    7.4740   -4.5700 O.2    62  TYR62      -0.2715
     13  CB       -14.8280    8.0600   -3.7050 C.3    62  TYR62       0.0574
     14  CG       -13.3420    8.0940   -3.4310 C.ar   62  TYR62      -0.0198
     15  CD1      -12.7040    9.2820   -3.1000 C.ar   62  TYR62      -0.0009
     16  CD2      -12.5730    6.9390   -3.5180 C.ar   62  TYR62      -0.0009
     17  CE1      -11.3420    9.3190   -2.8560 C.ar   62  TYR62       0.0417
     18  CE2      -11.2110    6.9660   -3.2750 C.ar   62  TYR62       0.0417
     19  CZ       -10.6010    8.1600   -2.9460 C.ar   62  TYR62       0.1957
     20  OH        -9.2470    8.1950   -2.7030 O.3    62  TYR62      -0.2866
     21  N        -17.0660    8.2240   -6.6760 N.am   63  GLY63      -0.1940
     22  CA       -18.4550    8.0950   -7.0670 C.3    63  GLY63       0.2014
     23  C        -18.8380    9.2070   -8.0240 C.2    63  GLY63       0.2639
     24  O        -18.0970   10.1720   -8.1920 O.2    63  GLY63      -0.2714
     25  N        -19.9960    9.0740   -8.6580 N.am   64  GLY64      -0.1954
     26  CA       -20.4660   10.0850   -9.5860 C.3    64  GLY64       0.1869
     27  C        -19.7700   10.0330  -10.9340 C.2    64  GLY64       0.2309
     28  O        -19.1660    9.0190  -11.3000 O.2    64  GLY64      -0.2863
     29  N        -18.5530   20.5010  -11.9090 N.3    77  TYR77      -0.1241
     30  CA       -19.3260   20.7100  -10.6910 C.3    77  TYR77       0.1605
     31  C        -19.6450   22.1860  -10.4690 C.2    77  TYR77       0.2264
     32  O        -20.5700   22.5220   -9.7350 O.2    77  TYR77      -0.2867
     33  CB       -18.5910   20.1080   -9.4960 C.3    77  TYR77       0.0534
     34  CG       -18.7840   18.6090   -9.4260 C.ar   77  TYR77      -0.0201
     35  CD1      -20.0400   18.0660   -9.1760 C.ar   77  TYR77      -0.0009
     36  CD2      -17.7250   17.7370   -9.6450 C.ar   77  TYR77      -0.0009
     37  CE1      -20.2320   16.6980   -9.1250 C.ar   77  TYR77       0.0417
     38  CE2      -17.9070   16.3660   -9.5940 C.ar   77  TYR77       0.0417
     39  CZ       -19.1620   15.8530   -9.3360 C.ar   77  TYR77       0.1957
     40  OH       -19.3490   14.4920   -9.2860 O.3    77  TYR77      -0.2866
     41  N        -25.4130   18.4850   -8.4010 N.3    83  GLN83      -0.1231
     42  CA       -24.8880   17.1300   -8.5470 C.3    83  GLN83       0.1698
     43  C        -24.0930   16.6360   -7.3430 C.2    83  GLN83       0.2592
     44  O        -23.9160   15.4330   -7.1620 O.2    83  GLN83      -0.2718
     45  CB       -24.0140   17.0410   -9.7980 C.3    83  GLN83       0.0381
     46  CG       -24.8030   16.9200  -11.0890 C.3    83  GLN83       0.0905
     47  CD       -25.9750   15.9740  -10.9570 C.2    83  GLN83       0.2608
     48  OE1      -25.7970   14.7660  -10.8000 O.2    83  GLN83      -0.2717
     49  NE2      -27.1860   16.5180  -11.0140 N.am   83  GLN83      -0.0878
     50  N        -23.6130   17.5560   -6.5170 N.am   84  LEU84      -0.1966
     51  CA       -22.7720   17.1680   -5.3910 C.3    84  LEU84       0.1728
     52  C        -23.5540   17.2440   -4.0800 C.2    84  LEU84       0.2616
     53  O        -23.7120   18.3200   -3.4990 O.2    84  LEU84      -0.2715
     54  CB       -21.5210   18.0500   -5.3400 C.3    84  LEU84       0.0311
     55  CG       -20.2210   17.4530   -4.7940 C.3    84  LEU84       0.0022
     56  CD1      -19.0690   18.4190   -5.0240 C.3    84  LEU84       0.0001
     57  CD2      -20.3300   17.1030   -3.3170 C.3    84  LEU84       0.0001
     58  N        -24.0370   16.0890   -3.6270 N.am   85  LYS85      -0.1977
     59  CA       -24.8390   15.9890   -2.4130 C.3    85  LYS85       0.1596
     60  C        -24.1930   15.0550   -1.4020 C.2    85  LYS85       0.2287
     61  O        -23.6380   14.0230   -1.7720 O.2    85  LYS85      -0.2864
     62  CB       -26.2430   15.4680   -2.7290 C.3    85  LYS85       0.0298
     63  CG       -27.3840   16.3390   -2.2240 C.3    85  LYS85       0.0038
     64  CD       -28.7270   15.8140   -2.7200 C.3    85  LYS85       0.0206
     65  CE       -29.8270   16.0060   -1.6770 C.3    85  LYS85       0.1093
     66  NZ       -29.6780   17.2910   -0.9250 N.3    85  LYS85      -0.1314
@<TRIPOS>BOND
     1    29    30    1
     2    28    27    2
     3    46    47    1
     4    46    45    1
     5    49    47   am
     6    47    48    2
     7    27    26    1
     8    30    31    1
     9    30    33    1
    10    31    32    2
    11    45    42    1
    12    36    38   ar
    13    36    34   ar
    14    38    39   ar
    15    26    25    1
    16    33    34    1
    17    34    35   ar
    18    39    40    1
    19    39    37   ar
    20    35    37   ar
    21    25    23   am
    22    42    41    1
    23    42    43    1
    24    24    23    2
    25    23    22    1
    26     1     2    1
    27    43    44    2
    28    43    50   am
    29    22    21    1
    30    21    11   am
    31    50    51    1
    32     6     7    1
    33     6     8    1
    34     6     5    1
    35     2     5    1
    36     2     3    1
    37     9     3   am
    38     9    10    1
    39    11    10    1
    40    11    12    2
    41    51    54    1
    42    51    52    1
    43    54    55    1
    44     3     4    2
    45    10    13    1
    46    56    55    1
    47    55    57    1
    48    52    58   am
    49    52    53    2
    50    13    14    1
    51    58    59    1
    52    16    14   ar
    53    16    18   ar
    54    14    15   ar
    55    18    19   ar
    56    15    17   ar
    57    19    17   ar
    58    19    20    1
    59    62    59    1
    60    62    63    1
    61    64    63    1
    62    64    65    1
    63    59    60    1
    64    61    60    2
    65    65    66    1
