@<TRIPOS>MOLECULE
tmp/4qszA02.pdb
 119 117 0 0 0
SMALL
GASTEIGER

@<TRIPOS>ATOM
      1  N         44.5240   24.5200  103.5190 N.3    42  LYS42      -0.1245
      2  CA        44.9300   25.1100  104.7870 C.3    42  LYS42       0.1561
      3  C         44.3060   24.3570  105.9520 C.2    42  LYS42       0.2260
      4  O         43.8090   24.9810  106.8980 O.2    42  LYS42      -0.2867
      5  CB        44.5500   26.5980  104.8410 C.3    42  LYS42       0.0271
      6  CG        45.3000   27.4630  103.8500 C.3    42  LYS42       0.0035
      7  CD        44.6600   28.8370  103.7330 C.3    42  LYS42       0.0206
      8  CE        45.4570   29.7300  102.7970 C.3    42  LYS42       0.1093
      9  NZ        44.7270   30.9770  102.4530 N.3    42  LYS42      -0.1314
     10  N         45.7150   22.6440  108.2420 N.3    44  GLU44      -0.1231
     11  CA        46.5010   22.7920  109.4560 C.3    44  GLU44       0.1699
     12  C         46.2800   24.1660  110.0850 C.2    44  GLU44       0.2592
     13  O         46.5920   24.3740  111.2550 O.2    44  GLU44      -0.2718
     14  CB        47.9830   22.5700  109.1600 C.3    44  GLU44       0.0402
     15  CG        48.6950   23.7750  108.5590 C.3    44  GLU44       0.1161
     16  CD        48.2720   24.0800  107.1320 C.2    44  GLU44       0.3649
     17  OE1       47.4420   23.3180  106.5790 O.co2  44  GLU44      -0.2457
     18  OE2       48.7650   25.0870  106.5700 O.co2  44  GLU44      -0.2457
     19  N         45.7450   25.1050  109.3070 N.am   45  GLU45      -0.1979
     20  CA        45.3680   26.4240  109.8450 C.3    45  GLU45       0.1602
     21  C         43.9120   26.4280  110.3490 C.2    45  GLU45       0.2287
     22  O         43.6100   27.0490  111.3740 O.2    45  GLU45      -0.2864
     23  CB        45.5580   27.5480  108.7980 C.3    45  GLU45       0.0415
     24  CG        46.9640   28.1780  108.7230 C.3    45  GLU45       0.1163
     25  CD        46.9890   29.5180  107.9690 C.2    45  GLU45       0.3649
     26  OE1       48.0600   30.1740  107.9210 O.co2  45  GLU45      -0.2457
     27  OE2       45.9320   29.9310  107.4400 O.co2  45  GLU45      -0.2457
     28  N         49.1560   15.5420  109.8240 N.3    62  TRP62      -0.1241
     29  CA        50.0810   16.6180  109.4330 C.3    62  TRP62       0.1605
     30  C         51.5140   16.3040  109.8690 C.2    62  TRP62       0.2264
     31  O         51.7300   15.4290  110.7160 O.2    62  TRP62      -0.2867
     32  CB        49.6570   17.9660  110.0230 C.3    62  TRP62       0.0550
     33  CG        50.3460   19.1440  109.3530 C.ar   62  TRP62       0.0003
     34  CD1       51.4220   19.8550  109.8200 C.ar   62  TRP62       0.0946
     35  CD2       50.0010   19.7300  108.0930 C.ar   62  TRP62       0.0152
     36  NE1       51.7540   20.8470  108.9360 N.ar   62  TRP62      -0.2442
     37  CE2       50.9060   20.7870  107.8630 C.ar   62  TRP62       0.0810
     38  CE3       49.0140   19.4610  107.1370 C.ar   62  TRP62       0.0012
     39  CZ2       50.8540   21.5750  106.7210 C.ar   62  TRP62       0.0191
     40  CZ3       48.9730   20.2380  105.9900 C.ar   62  TRP62       0.0001
     41  CH2       49.8830   21.2820  105.7950 C.ar   62  TRP62       0.0015
     42  N         55.5060   18.9390  113.2330 N.3    65  ASP65      -0.1225
     43  CA        55.9210   20.2330  113.7610 C.3    65  ASP65       0.1805
     44  C         54.6960   21.0880  114.1380 C.2    65  ASP65       0.2597
     45  O         54.7850   22.0120  114.9550 O.2    65  ASP65      -0.2718
     46  CB        56.8300   20.9540  112.7550 C.3    65  ASP65       0.1424
     47  CG        56.1610   21.1610  111.4120 C.2    65  ASP65       0.3668
     48  OD1       55.9380   20.1580  110.7040 O.co2  65  ASP65      -0.2456
     49  OD2       55.8540   22.3210  111.0540 O.co2  65  ASP65      -0.2456
     50  N         53.5440   20.7540  113.5710 N.am   66  ARG66      -0.1979
     51  CA        52.3210   21.4570  113.9280 C.3    66  ARG66       0.1597
     52  C         51.6890   20.9920  115.2290 C.2    66  ARG66       0.2287
     53  O         50.8500   21.7070  115.7730 O.2    66  ARG66      -0.2864
     54  CB        51.2880   21.3210  112.8190 C.3    66  ARG66       0.0334
     55  CG        51.2270   22.5250  111.8970 C.3    66  ARG66       0.0492
     56  CD        50.6440   23.7280  112.6070 C.3    66  ARG66       0.2205
     57  NE        50.5120   24.8590  111.7040 N.pl3  66  ARG66      -0.0865
     58  CZ        49.9290   26.0030  112.0440 C.cat  66  ARG66       0.5346
     59  NH1       49.4200   26.1440  113.2650 N.pl3  66  ARG66       0.1354
     60  NH2       49.8390   26.9990  111.1660 N.pl3  66  ARG66       0.1354
     61  N         56.8540   27.9040   99.3230 N.3   153  GLU153     -0.1231
     62  CA        56.8200   27.3450  100.6740 C.3   153  GLU153      0.1684
     63  C         58.2430   27.1180  101.1520 C.2   153  GLU153      0.2434
     64  O         58.9610   26.3000  100.5750 O.2   153  GLU153     -0.2733
     65  CB        56.0320   26.0280  100.7040 C.3   153  GLU153      0.0402
     66  CG        54.5190   26.1690  100.5380 C.3   153  GLU153      0.1161
     67  CD        53.8310   26.6440  101.8160 C.2   153  GLU153      0.3649
     68  OE1       54.5580   27.0080  102.7710 O.co2 153  GLU153     -0.2457
     69  OE2       52.5760   26.6330  101.8730 O.co2 153  GLU153     -0.2457
     70  N         58.6570   27.8320  102.2110 N.am  154  PRO154     -0.2729
     71  CA        60.0390   27.8400  102.7180 C.3   154  PRO154      0.1401
     72  C         60.6500   26.4480  102.9830 C.2   154  PRO154      0.2269
     73  O         61.8790   26.3250  103.0330 O.2   154  PRO154     -0.2865
     74  CB        59.9240   28.6440  104.0170 C.3   154  PRO154      0.0296
     75  CG        58.4790   28.6190  104.3750 C.3   154  PRO154      0.0237
     76  CD        57.7600   28.6220  103.0640 C.3   154  PRO154      0.0939
     77  N         55.4570   27.2690  114.2420 N.3   337  SER337     -0.1217
     78  CA        54.5090   27.8350  113.3130 C.3   337  SER337      0.1889
     79  C         54.8910   29.2480  112.8980 C.2   337  SER337      0.2288
     80  O         54.8770   29.5600  111.7170 O.2   337  SER337     -0.2866
     81  CB        53.1170   27.8240  113.9080 C.3   337  SER337      0.2089
     82  OG        52.1710   27.8340  112.8620 O.3   337  SER337     -0.2183
     83  N         58.0670   29.3720  110.4590 N.3   340  TRP340     -0.1227
     84  CA        57.7460   29.1760  109.0430 C.3   340  TRP340      0.1737
     85  C         57.1580   30.4000  108.3530 C.2   340  TRP340      0.2595
     86  O         57.5310   30.7080  107.2220 O.2   340  TRP340     -0.2718
     87  CB        56.7870   27.9990  108.8780 C.3   340  TRP340      0.0564
     88  CG        57.4370   26.6650  109.0540 C.ar  340  TRP340      0.0003
     89  CD1       57.0440   25.6640  109.8900 C.ar  340  TRP340      0.0946
     90  CD2       58.6160   26.1800  108.3780 C.ar  340  TRP340      0.0152
     91  NE1       57.8920   24.5850  109.7710 N.ar  340  TRP340     -0.2442
     92  CE2       58.8670   24.8820  108.8580 C.ar  340  TRP340      0.0810
     93  CE3       59.4790   26.7200  107.4190 C.ar  340  TRP340      0.0012
     94  CZ2       59.9380   24.1200  108.4060 C.ar  340  TRP340      0.0191
     95  CZ3       60.5220   25.9710  106.9850 C.ar  340  TRP340      0.0001
     96  CH2       60.7490   24.6810  107.4680 C.ar  340  TRP340      0.0015
     97  N         56.2320   31.0870  109.0190 N.am  341  TYR341     -0.1976
     98  CA        55.6580   32.3160  108.4860 C.3   341  TYR341      0.1639
     99  C         56.7350   33.3610  108.2430 C.2   341  TYR341      0.2290
    100  O         56.7360   34.0420  107.2150 O.2   341  TYR341     -0.2864
    101  CB        54.6300   32.8770  109.4450 C.3   341  TYR341      0.0560
    102  CG        53.3250   32.1330  109.4970 C.ar  341  TYR341     -0.0198
    103  CD1       52.5880   31.8690  108.3570 C.ar  341  TYR341     -0.0009
    104  CD2       52.8040   31.7280  110.7110 C.ar  341  TYR341     -0.0009
    105  CE1       51.3650   31.2010  108.4420 C.ar  341  TYR341      0.0417
    106  CE2       51.5980   31.0700  110.8000 C.ar  341  TYR341      0.0417
    107  CZ        50.8810   30.8000  109.6750 C.ar  341  TYR341      0.1957
    108  OH        49.6730   30.1380  109.8070 O.3   341  TYR341     -0.2866
    109  N         58.9100   32.2590  105.2680 N.3   344  ARG344     -0.1245
    110  CA        58.0420   32.2930  104.0910 C.3   344  ARG344      0.1563
    111  C         58.0330   33.6830  103.4720 C.2   344  ARG344      0.2260
    112  O         58.2190   33.8290  102.2680 O.2   344  ARG344     -0.2867
    113  CB        56.6130   31.8730  104.4660 C.3   344  ARG344      0.0307
    114  CG        55.5650   31.7520  103.3380 C.3   344  ARG344      0.0489
    115  CD        54.2010   32.0930  103.9550 C.3   344  ARG344      0.2205
    116  NE        53.0110   31.8270  103.1440 N.pl3 344  ARG344     -0.0865
    117  CZ        51.7730   31.7850  103.6520 C.cat 344  ARG344      0.5346
    118  NH1       51.5820   31.9930  104.9500 N.pl3 344  ARG344      0.1354
    119  NH2       50.7210   31.5400  102.8730 N.pl3 344  ARG344      0.1354
@<TRIPOS>BOND
     1    61    62    1
     2    66    65    1
     3    66    67    1
     4    64    63    2
     5    62    65    1
     6    62    63    1
     7    63    70   am
     8    67    69   ar
     9    67    68   ar
    10    70    71    1
    11    70    76    1
    12   112   111    2
    13     9     8    1
    14    71    72    1
    15    71    74    1
    16     8     7    1
    17   119   117    1
    18    72    73    2
    19    76    75    1
    20   116   117    2
    21   116   115    1
    22   114   115    1
    23   114   113    1
    24   111   110    1
    25     1     2    1
    26   117   118    1
    27     7     6    1
    28     6     5    1
    29    74    75    1
    30   110   113    1
    31   110   109    1
    32     2     5    1
    33     2     3    1
    34    41    40   ar
    35    41    39   ar
    36     3     4    2
    37    40    38   ar
    38    18    16   ar
    39    17    16   ar
    40    39    37   ar
    41    95    93   ar
    42    95    96   ar
    43    16    15    1
    44    38    35   ar
    45   100    99    2
    46    86    85    2
    47    93    90   ar
    48    27    25   ar
    49    96    94   ar
    50    37    35   ar
    51    37    36   ar
    52    26    25   ar
    53    25    24    1
    54    35    33   ar
    55    10    11    1
    56    99    98    1
    57    85    97   am
    58    85    84    1
    59   103   105   ar
    60   103   102   ar
    61    90    92   ar
    62    90    88   ar
    63    94    92   ar
    64   105   107   ar
    65    98    97    1
    66    98   101    1
    67    15    14    1
    68    24    23    1
    69    23    20    1
    70    92    91   ar
    71    87    84    1
    72    87    88    1
    73    36    34   ar
    74    84    83    1
    75    88    89   ar
    76    14    11    1
    77    19    20    1
    78    19    12   am
    79    33    34   ar
    80    33    32    1
    81    29    28    1
    82    29    30    1
    83    29    32    1
    84   101   102    1
    85    11    12    1
    86   102   104   ar
    87   107   108    1
    88   107   106   ar
    89    91    89   ar
    90    20    21    1
    91    30    31    2
    92    12    13    2
    93    21    22    2
    94    48    47   ar
    95   104   106   ar
    96    49    47   ar
    97    60    58    1
    98    47    46    1
    99    57    58    2
   100    57    56    1
   101    80    79    2
   102    55    56    1
   103    55    54    1
   104    58    59    1
   105    46    43    1
   106    54    51    1
   107    82    81    1
   108    79    78    1
   109    42    43    1
   110    78    81    1
   111    78    77    1
   112    50    51    1
   113    50    44   am
   114    43    44    1
   115    51    52    1
   116    44    45    2
   117    52    53    2
