@<TRIPOS>MOLECULE
tmp/4qszA00.pdb
 131 127 0 0 0
SMALL
GASTEIGER

@<TRIPOS>ATOM
      1  N         46.4210   16.2270  104.1990 N.3    12  ASN12      -0.1240
      2  CA        46.8410   17.1270  103.1300 C.3    12  ASN12       0.1653
      3  C         46.7740   16.4370  101.7520 C.2    12  ASN12       0.2266
      4  O         46.9840   15.2320  101.6300 O.2    12  ASN12      -0.2867
      5  CB        48.2480   17.6530  103.4260 C.3    12  ASN12       0.1155
      6  CG        48.5000   19.0290  102.8400 C.2    12  ASN12       0.2627
      7  OD1       47.5910   19.8400  102.7240 O.2    12  ASN12      -0.2716
      8  ND2       49.7440   19.3000  102.4860 N.am   12  ASN12      -0.0877
      9  N         48.4330   16.2260   99.0970 N.3    14  ASP14      -0.1225
     10  CA        49.5720   15.7080   98.3850 C.3    14  ASP14       0.1805
     11  C         49.8410   14.2980   98.8870 C.2    14  ASP14       0.2597
     12  O         50.6310   13.5630   98.2820 O.2    14  ASP14      -0.2718
     13  CB        50.7790   16.6150   98.5740 C.3    14  ASP14       0.1424
     14  CG        51.0020   16.9920  100.0280 C.2    14  ASP14       0.3668
     15  OD1       50.0130   17.0990  100.7970 O.co2  14  ASP14      -0.2456
     16  OD2       52.1810   17.1880  100.4000 O.co2  14  ASP14      -0.2456
     17  N         49.1600   13.9270   99.9810 N.am   15  LYS15      -0.1979
     18  CA        49.2490   12.5810  100.5630 C.3    15  LYS15       0.1596
     19  C         48.1730   11.6450  100.0050 C.2    15  LYS15       0.2287
     20  O         47.1620   12.1010   99.4790 O.2    15  LYS15      -0.2864
     21  CB        49.1400   12.6450  102.0800 C.3    15  LYS15       0.0298
     22  CG        50.0130   13.6750  102.7090 C.3    15  LYS15       0.0038
     23  CD        51.4490   13.4470  102.3490 C.3    15  LYS15       0.0206
     24  CE        52.2610   14.6940  102.5910 C.3    15  LYS15       0.1093
     25  NZ        52.0760   15.1740  103.9910 N.3    15  LYS15      -0.1314
     26  N         49.1560   15.5420  109.8240 N.3    62  TRP62      -0.1227
     27  CA        50.0810   16.6180  109.4330 C.3    62  TRP62       0.1737
     28  C         51.5140   16.3040  109.8690 C.2    62  TRP62       0.2595
     29  O         51.7300   15.4290  110.7160 O.2    62  TRP62      -0.2718
     30  CB        49.6570   17.9660  110.0230 C.3    62  TRP62       0.0564
     31  CG        50.3460   19.1440  109.3530 C.ar   62  TRP62       0.0003
     32  CD1       51.4220   19.8550  109.8200 C.ar   62  TRP62       0.0946
     33  CD2       50.0010   19.7300  108.0930 C.ar   62  TRP62       0.0152
     34  NE1       51.7540   20.8470  108.9360 N.ar   62  TRP62      -0.2442
     35  CE2       50.9060   20.7870  107.8630 C.ar   62  TRP62       0.0810
     36  CE3       49.0140   19.4610  107.1370 C.ar   62  TRP62       0.0012
     37  CZ2       50.8540   21.5750  106.7210 C.ar   62  TRP62       0.0191
     38  CZ3       48.9730   20.2380  105.9900 C.ar   62  TRP62       0.0001
     39  CH2       49.8830   21.2820  105.7950 C.ar   62  TRP62       0.0015
     40  N         52.4950   17.0020  109.2940 N.am   63  ALA63      -0.1980
     41  CA        53.8590   16.8480  109.7650 C.3    63  ALA63       0.1597
     42  C         53.8290   17.2190  111.2350 C.2    63  ALA63       0.2287
     43  O         53.0130   18.0520  111.6500 O.2    63  ALA63      -0.2864
     44  CB        54.8220   17.7170  108.9920 C.3    63  ALA63       0.0319
     45  N         59.6430   11.6460  106.6800 N.3   111  GLU111     -0.1245
     46  CA        59.7710   12.1720  105.3320 C.3   111  GLU111      0.1567
     47  C         60.8010   13.2790  105.2660 C.2   111  GLU111      0.2260
     48  O         60.9010   14.1100  106.1690 O.2   111  GLU111     -0.2867
     49  CB        58.4080   12.6550  104.8040 C.3   111  GLU111      0.0388
     50  CG        57.4140   13.1390  105.8700 C.3   111  GLU111      0.1160
     51  CD        56.1150   13.6770  105.2730 C.2   111  GLU111      0.3649
     52  OE1       56.0040   14.9090  105.0810 O.co2 111  GLU111     -0.2457
     53  OE2       55.2040   12.8670  104.9970 O.co2 111  GLU111     -0.2457
     54  N         59.3320   24.1020   94.2010 N.3   150  ASN150     -0.1240
     55  CA        58.4680   25.0530   94.8840 C.3   150  ASN150      0.1653
     56  C         59.2200   26.1540   95.6330 C.2   150  ASN150      0.2266
     57  O         59.9100   25.8850   96.6150 O.2   150  ASN150     -0.2867
     58  CB        57.5610   24.3020   95.8580 C.3   150  ASN150      0.1155
     59  CG        56.5010   25.1930   96.4580 C.2   150  ASN150      0.2627
     60  OD1       56.3250   26.3420   96.0360 O.2   150  ASN150     -0.2716
     61  ND2       55.7930   24.6780   97.4610 N.am  150  ASN150     -0.0877
     62  N         56.8540   27.9040   99.3230 N.3   153  GLU153     -0.1245
     63  CA        56.8200   27.3450  100.6740 C.3   153  GLU153      0.1567
     64  C         58.2430   27.1180  101.1520 C.2   153  GLU153      0.2260
     65  O         58.9610   26.3000  100.5750 O.2   153  GLU153     -0.2867
     66  CB        56.0320   26.0280  100.7040 C.3   153  GLU153      0.0388
     67  CG        54.5190   26.1690  100.5380 C.3   153  GLU153      0.1160
     68  CD        53.8310   26.6440  101.8160 C.2   153  GLU153      0.3649
     69  OE1       54.5580   27.0080  102.7710 O.co2 153  GLU153     -0.2457
     70  OE2       52.5760   26.6330  101.8730 O.co2 153  GLU153     -0.2457
     71  N         59.8050   25.4230  103.1190 N.3   155  TYR155     -0.1227
     72  CA        60.2230   24.0350  103.3710 C.3   155  TYR155      0.1736
     73  C         61.2000   23.4910  102.3340 C.2   155  TYR155      0.2595
     74  O         62.0130   22.6210  102.6370 O.2   155  TYR155     -0.2718
     75  CB        58.9760   23.1400  103.4220 C.3   155  TYR155      0.0548
     76  CG        59.2450   21.6650  103.6420 C.ar  155  TYR155     -0.0200
     77  CD1       59.6000   21.1840  104.8910 C.ar  155  TYR155     -0.0009
     78  CD2       59.1190   20.7500  102.6050 C.ar  155  TYR155     -0.0009
     79  CE1       59.8420   19.8500  105.1030 C.ar  155  TYR155      0.0417
     80  CE2       59.3540   19.4040  102.8130 C.ar  155  TYR155      0.0417
     81  CZ        59.7210   18.9630  104.0660 C.ar  155  TYR155      0.1957
     82  OH        59.9760   17.6210  104.2750 O.3   155  TYR155     -0.2866
     83  N         61.0950   23.9910  101.1050 N.am  156  PHE156     -0.1976
     84  CA        61.8960   23.5090   99.9720 C.3   156  PHE156      0.1639
     85  C         63.1890   24.2670   99.8590 C.2   156  PHE156      0.2290
     86  O         64.2220   23.7490   99.4140 O.2   156  PHE156     -0.2864
     87  CB        61.1060   23.6570   98.6810 C.3   156  PHE156      0.0560
     88  CG        59.8730   22.8250   98.6570 C.ar  156  PHE156     -0.0200
     89  CD1       58.6900   23.2960   99.2110 C.ar  156  PHE156     -0.0042
     90  CD2       59.9110   21.5300   98.1380 C.ar  156  PHE156     -0.0042
     91  CE1       57.5390   22.4910   99.2250 C.ar  156  PHE156     -0.0003
     92  CE2       58.7780   20.7140   98.1460 C.ar  156  PHE156     -0.0003
     93  CZ        57.5820   21.1920   98.6940 C.ar  156  PHE156     -0.0000
     94  N         54.5890   24.8910   93.6590 N.3   210  TYR210     -0.1241
     95  CA        54.5880   23.4400   93.6700 C.3   210  TYR210      0.1605
     96  C         54.0790   22.8630   92.3670 C.2   210  TYR210      0.2264
     97  O         54.6580   21.9120   91.8200 O.2   210  TYR210     -0.2867
     98  CB        53.7380   22.8980   94.8240 C.3   210  TYR210      0.0534
     99  CG        53.8510   21.3980   94.9960 C.ar  210  TYR210     -0.0201
    100  CD1       54.8980   20.8500   95.7240 C.ar  210  TYR210     -0.0009
    101  CD2       52.9280   20.5380   94.4270 C.ar  210  TYR210     -0.0009
    102  CE1       55.0260   19.4990   95.8900 C.ar  210  TYR210      0.0417
    103  CE2       53.0420   19.1730   94.5870 C.ar  210  TYR210      0.0417
    104  CZ        54.0960   18.6570   95.3250 C.ar  210  TYR210      0.1957
    105  OH        54.2360   17.2980   95.4920 O.3   210  TYR210     -0.2866
    106  N         55.9350   11.7860   98.5240 N.3   230  TRP230     -0.1241
    107  CA        54.5430   11.8280   98.0290 C.3   230  TRP230      0.1605
    108  C         54.4850   12.0740   96.5480 C.2   230  TRP230      0.2264
    109  O         53.5350   11.6880   95.8800 O.2   230  TRP230     -0.2867
    110  CB        53.7590   12.9200   98.7340 C.3   230  TRP230      0.0550
    111  CG        54.5070   14.2150   98.7600 C.ar  230  TRP230      0.0003
    112  CD1       54.4840   15.2080   97.8200 C.ar  230  TRP230      0.0946
    113  CD2       55.4120   14.6450   99.7720 C.ar  230  TRP230      0.0152
    114  NE1       55.3210   16.2380   98.1950 N.ar  230  TRP230     -0.2442
    115  CE2       55.8980   15.9140   99.3940 C.ar  230  TRP230      0.0810
    116  CE3       55.8590   14.0820  100.9650 C.ar  230  TRP230      0.0012
    117  CZ2       56.8070   16.6180  100.1640 C.ar  230  TRP230      0.0191
    118  CZ3       56.7570   14.7930  101.7300 C.ar  230  TRP230      0.0001
    119  CH2       57.2290   16.0400  101.3200 C.ar  230  TRP230      0.0015
    120  N         60.4330   15.6440  108.5880 N.3   260  GLY260     -0.1225
    121  CA        59.0610   15.6940  109.0590 C.3   260  GLY260      0.1811
    122  C         58.4930   14.3200  109.3340 C.2   260  GLY260      0.2280
    123  O         58.7100   13.3850  108.5580 O.2   260  GLY260     -0.2866
    124  N         62.5050   18.2490  112.8020 N.3   330  MET330     -0.1245
    125  CA        61.8480   19.4590  113.2480 C.3   330  MET330      0.1570
    126  C         61.4180   19.2690  114.6830 C.2   330  MET330      0.2261
    127  O         61.0680   18.1630  115.0900 O.2   330  MET330     -0.2867
    128  CB        60.6440   19.7770  112.3760 C.3   330  MET330      0.0387
    129  CG        60.9510   20.5360  111.1040 C.3   330  MET330      0.0595
    130  SD        59.4300   20.8270  110.1540 S.3   330  MET330     -0.1393
    131  CE        58.8370   19.1210  110.1240 C.3   330  MET330      0.0692
@<TRIPOS>BOND
     1    97    96    2
     2    96    95    1
     3    94    95    1
     4    95    98    1
     5    54    55    1
     6   101   103   ar
     7   101    99   ar
     8   103   104   ar
     9    98    99    1
    10    55    56    1
    11    55    58    1
    12    99   100   ar
    13   104   105    1
    14   104   102   ar
    15    56    57    2
    16   100   102   ar
    17    58    59    1
    18   109   108    2
    19    60    59    2
    20    59    61   am
    21   108   107    1
    22   112   114   ar
    23   112   111   ar
    24   107   106    1
    25   107   110    1
    26    90    92   ar
    27    90    88   ar
    28    92    93   ar
    29   114   115   ar
    30    12    11    2
    31    10    13    1
    32    10    11    1
    33    10     9    1
    34    13    14    1
    35    88    87    1
    36    88    89   ar
    37    87    84    1
    38    93    91   ar
    39   110   111    1
    40   111   113   ar
    41    11    17   am
    42    89    91   ar
    43    62    63    1
    44   115   113   ar
    45   115   117   ar
    46    86    85    2
    47    20    19    2
    48   113   116   ar
    49    85    84    1
    50    84    83    1
    51    17    18    1
    52    19    18    1
    53    14    16   ar
    54    14    15   ar
    55   117   119   ar
    56    67    66    1
    57    67    68    1
    58    18    21    1
    59    65    64    2
    60    63    66    1
    61    63    64    1
    62   116   118   ar
    63    83    73   am
    64   119   118   ar
    65     4     3    2
    66     3     2    1
    67    68    70   ar
    68    68    69   ar
    69    21    22    1
    70    73    74    2
    71    73    72    1
    72    23    24    1
    73    23    22    1
    74     8     6   am
    75    24    25    1
    76    78    80   ar
    77    78    76   ar
    78     7     6    2
    79    80    81   ar
    80     6     5    1
    81    71    72    1
    82     2     5    1
    83     2     1    1
    84    72    75    1
    85    75    76    1
    86    76    77   ar
    87    81    82    1
    88    81    79   ar
    89    49    46    1
    90    49    50    1
    91    77    79   ar
    92    53    51   ar
    93    52    51   ar
    94    47    46    1
    95    47    48    2
    96    51    50    1
    97    46    45    1
    98    39    38   ar
    99    39    37   ar
   100    38    36   ar
   101    37    35   ar
   102    36    33   ar
   103    35    33   ar
   104    35    34   ar
   105    33    31   ar
   106   123   122    2
   107   120   121    1
   108    34    32   ar
   109    44    41    1
   110   121   122    1
   111    40    41    1
   112    40    28   am
   113    31    32   ar
   114    31    30    1
   115    27    26    1
   116    27    28    1
   117    27    30    1
   118    41    42    1
   119    28    29    2
   120   131   130    1
   121   130   129    1
   122   129   128    1
   123    42    43    2
   124   128   125    1
   125   124   125    1
   126   125   126    1
   127   126   127    2
