@<TRIPOS>MOLECULE
tmp/4qszA01.pdb
 97 97 0 0 0
SMALL
GASTEIGER

@<TRIPOS>ATOM
      1  N         45.7150   22.6440  108.2420 N.3    44  GLU44      -0.1245
      2  CA        46.5010   22.7920  109.4560 C.3    44  GLU44       0.1567
      3  C         46.2800   24.1660  110.0850 C.2    44  GLU44       0.2260
      4  O         46.5920   24.3740  111.2550 O.2    44  GLU44      -0.2867
      5  CB        47.9830   22.5700  109.1600 C.3    44  GLU44       0.0388
      6  CG        48.6950   23.7750  108.5590 C.3    44  GLU44       0.1160
      7  CD        48.2720   24.0800  107.1320 C.2    44  GLU44       0.3649
      8  OE1       47.4420   23.3180  106.5790 O.co2  44  GLU44      -0.2457
      9  OE2       48.7650   25.0870  106.5700 O.co2  44  GLU44      -0.2457
     10  N         49.1560   15.5420  109.8240 N.3    62  TRP62      -0.1227
     11  CA        50.0810   16.6180  109.4330 C.3    62  TRP62       0.1737
     12  C         51.5140   16.3040  109.8690 C.2    62  TRP62       0.2595
     13  O         51.7300   15.4290  110.7160 O.2    62  TRP62      -0.2718
     14  CB        49.6570   17.9660  110.0230 C.3    62  TRP62       0.0564
     15  CG        50.3460   19.1440  109.3530 C.ar   62  TRP62       0.0003
     16  CD1       51.4220   19.8550  109.8200 C.ar   62  TRP62       0.0946
     17  CD2       50.0010   19.7300  108.0930 C.ar   62  TRP62       0.0152
     18  NE1       51.7540   20.8470  108.9360 N.ar   62  TRP62      -0.2442
     19  CE2       50.9060   20.7870  107.8630 C.ar   62  TRP62       0.0810
     20  CE3       49.0140   19.4610  107.1370 C.ar   62  TRP62       0.0012
     21  CZ2       50.8540   21.5750  106.7210 C.ar   62  TRP62       0.0191
     22  CZ3       48.9730   20.2380  105.9900 C.ar   62  TRP62       0.0001
     23  CH2       49.8830   21.2820  105.7950 C.ar   62  TRP62       0.0015
     24  N         52.4950   17.0020  109.2940 N.am   63  ALA63      -0.1980
     25  CA        53.8590   16.8480  109.7650 C.3    63  ALA63       0.1597
     26  C         53.8290   17.2190  111.2350 C.2    63  ALA63       0.2287
     27  O         53.0130   18.0520  111.6500 O.2    63  ALA63      -0.2864
     28  CB        54.8220   17.7170  108.9920 C.3    63  ALA63       0.0319
     29  N         55.5060   18.9390  113.2330 N.3    65  ASP65      -0.1225
     30  CA        55.9210   20.2330  113.7610 C.3    65  ASP65       0.1805
     31  C         54.6960   21.0880  114.1380 C.2    65  ASP65       0.2597
     32  O         54.7850   22.0120  114.9550 O.2    65  ASP65      -0.2718
     33  CB        56.8300   20.9540  112.7550 C.3    65  ASP65       0.1424
     34  CG        56.1610   21.1610  111.4120 C.2    65  ASP65       0.3668
     35  OD1       55.9380   20.1580  110.7040 O.co2  65  ASP65      -0.2456
     36  OD2       55.8540   22.3210  111.0540 O.co2  65  ASP65      -0.2456
     37  N         53.5440   20.7540  113.5710 N.am   66  ARG66      -0.1979
     38  CA        52.3210   21.4570  113.9280 C.3    66  ARG66       0.1597
     39  C         51.6890   20.9920  115.2290 C.2    66  ARG66       0.2287
     40  O         50.8500   21.7070  115.7730 O.2    66  ARG66      -0.2864
     41  CB        51.2880   21.3210  112.8190 C.3    66  ARG66       0.0334
     42  CG        51.2270   22.5250  111.8970 C.3    66  ARG66       0.0492
     43  CD        50.6440   23.7280  112.6070 C.3    66  ARG66       0.2205
     44  NE        50.5120   24.8590  111.7040 N.pl3  66  ARG66      -0.0865
     45  CZ        49.9290   26.0030  112.0440 C.cat  66  ARG66       0.5346
     46  NH1       49.4200   26.1440  113.2650 N.pl3  66  ARG66       0.1354
     47  NH2       49.8390   26.9990  111.1660 N.pl3  66  ARG66       0.1354
     48  N         56.8540   27.9040   99.3230 N.3   153  GLU153     -0.1231
     49  CA        56.8200   27.3450  100.6740 C.3   153  GLU153      0.1684
     50  C         58.2430   27.1180  101.1520 C.2   153  GLU153      0.2434
     51  O         58.9610   26.3000  100.5750 O.2   153  GLU153     -0.2733
     52  CB        56.0320   26.0280  100.7040 C.3   153  GLU153      0.0402
     53  CG        54.5190   26.1690  100.5380 C.3   153  GLU153      0.1161
     54  CD        53.8310   26.6440  101.8160 C.2   153  GLU153      0.3649
     55  OE1       54.5580   27.0080  102.7710 O.co2 153  GLU153     -0.2457
     56  OE2       52.5760   26.6330  101.8730 O.co2 153  GLU153     -0.2457
     57  N         58.6570   27.8320  102.2110 N.am  154  PRO154     -0.2718
     58  CA        60.0390   27.8400  102.7180 C.3   154  PRO154      0.1535
     59  C         60.6500   26.4480  102.9830 C.2   154  PRO154      0.2598
     60  O         61.8790   26.3250  103.0330 O.2   154  PRO154     -0.2715
     61  CB        59.9240   28.6440  104.0170 C.3   154  PRO154      0.0310
     62  CG        58.4790   28.6190  104.3750 C.3   154  PRO154      0.0237
     63  CD        57.7600   28.6220  103.0640 C.3   154  PRO154      0.0939
     64  N         59.8050   25.4230  103.1190 N.am  155  TYR155     -0.1974
     65  CA        60.2230   24.0350  103.3710 C.3   155  TYR155      0.1639
     66  C         61.2000   23.4910  102.3340 C.2   155  TYR155      0.2290
     67  O         62.0130   22.6210  102.6370 O.2   155  TYR155     -0.2864
     68  CB        58.9760   23.1400  103.4220 C.3   155  TYR155      0.0560
     69  CG        59.2450   21.6650  103.6420 C.ar  155  TYR155     -0.0198
     70  CD1       59.6000   21.1840  104.8910 C.ar  155  TYR155     -0.0009
     71  CD2       59.1190   20.7500  102.6050 C.ar  155  TYR155     -0.0009
     72  CE1       59.8420   19.8500  105.1030 C.ar  155  TYR155      0.0417
     73  CE2       59.3540   19.4040  102.8130 C.ar  155  TYR155      0.0417
     74  CZ        59.7210   18.9630  104.0660 C.ar  155  TYR155      0.1957
     75  OH        59.9760   17.6210  104.2750 O.3   155  TYR155     -0.2866
     76  N         62.5050   18.2490  112.8020 N.3   330  MET330     -0.1245
     77  CA        61.8480   19.4590  113.2480 C.3   330  MET330      0.1570
     78  C         61.4180   19.2690  114.6830 C.2   330  MET330      0.2261
     79  O         61.0680   18.1630  115.0900 O.2   330  MET330     -0.2867
     80  CB        60.6440   19.7770  112.3760 C.3   330  MET330      0.0387
     81  CG        60.9510   20.5360  111.1040 C.3   330  MET330      0.0595
     82  SD        59.4300   20.8270  110.1540 S.3   330  MET330     -0.1393
     83  CE        58.8370   19.1210  110.1240 C.3   330  MET330      0.0692
     84  N         58.0670   29.3720  110.4590 N.3   340  TRP340     -0.1241
     85  CA        57.7460   29.1760  109.0430 C.3   340  TRP340      0.1605
     86  C         57.1580   30.4000  108.3530 C.2   340  TRP340      0.2264
     87  O         57.5310   30.7080  107.2220 O.2   340  TRP340     -0.2867
     88  CB        56.7870   27.9990  108.8780 C.3   340  TRP340      0.0550
     89  CG        57.4370   26.6650  109.0540 C.ar  340  TRP340      0.0003
     90  CD1       57.0440   25.6640  109.8900 C.ar  340  TRP340      0.0946
     91  CD2       58.6160   26.1800  108.3780 C.ar  340  TRP340      0.0152
     92  NE1       57.8920   24.5850  109.7710 N.ar  340  TRP340     -0.2442
     93  CE2       58.8670   24.8820  108.8580 C.ar  340  TRP340      0.0810
     94  CE3       59.4790   26.7200  107.4190 C.ar  340  TRP340      0.0012
     95  CZ2       59.9380   24.1200  108.4060 C.ar  340  TRP340      0.0191
     96  CZ3       60.5220   25.9710  106.9850 C.ar  340  TRP340      0.0001
     97  CH2       60.7490   24.6810  107.4680 C.ar  340  TRP340      0.0015
@<TRIPOS>BOND
     1    48    49    1
     2    53    52    1
     3    53    54    1
     4    51    50    2
     5    49    52    1
     6    49    50    1
     7    50    57   am
     8    54    56   ar
     9    54    55   ar
    10    57    58    1
    11    57    63    1
    12    66    67    2
    13    66    65    1
    14    71    73   ar
    15    71    69   ar
    16    58    59    1
    17    58    61    1
    18    73    74   ar
    19    59    60    2
    20    59    64   am
    21    63    62    1
    22    64    65    1
    23    65    68    1
    24    68    69    1
    25    69    70   ar
    26    61    62    1
    27    74    75    1
    28    74    72   ar
    29    70    72   ar
    30    23    22   ar
    31    23    21   ar
    32    22    20   ar
    33     9     7   ar
    34     8     7   ar
    35    21    19   ar
    36    96    94   ar
    37    96    97   ar
    38     7     6    1
    39    20    17   ar
    40    87    86    2
    41    94    91   ar
    42    97    95   ar
    43    19    17   ar
    44    19    18   ar
    45    17    15   ar
    46     1     2    1
    47    86    85    1
    48    91    93   ar
    49    91    89   ar
    50    95    93   ar
    51     6     5    1
    52    93    92   ar
    53    88    85    1
    54    88    89    1
    55    18    16   ar
    56    28    25    1
    57    85    84    1
    58    89    90   ar
    59     5     2    1
    60    24    25    1
    61    24    12   am
    62    15    16   ar
    63    15    14    1
    64    11    10    1
    65    11    12    1
    66    11    14    1
    67     2     3    1
    68    25    26    1
    69    92    90   ar
    70    12    13    2
    71     3     4    2
    72    83    82    1
    73    82    81    1
    74    35    34   ar
    75    36    34   ar
    76    81    80    1
    77    47    45    1
    78    26    27    2
    79    34    33    1
    80    44    45    2
    81    44    43    1
    82    42    43    1
    83    42    41    1
    84    45    46    1
    85    80    77    1
    86    33    30    1
    87    76    77    1
    88    41    38    1
    89    29    30    1
    90    77    78    1
    91    37    38    1
    92    37    31   am
    93    30    31    1
    94    38    39    1
    95    31    32    2
    96    78    79    2
    97    39    40    2
