@<TRIPOS>MOLECULE
tmp/4qt0B00.pdb
 118 112 0 0 0
SMALL
GASTEIGER

@<TRIPOS>ATOM
      1  N        -42.5840   14.0240  -20.0220 N.3    25  VAL25      -0.1231
      2  CA       -41.5750   14.7330  -20.7670 C.3    25  VAL25       0.1692
      3  C        -41.8930   14.6880  -22.2740 C.2    25  VAL25       0.2592
      4  O        -42.0930   13.6250  -22.8700 O.2    25  VAL25      -0.2718
      5  CB       -40.1780   14.1910  -20.4620 C.3    25  VAL25       0.0266
      6  CG1      -39.1350   14.9070  -21.3080 C.3    25  VAL25       0.0020
      7  CG2      -39.8900   14.3790  -18.9860 C.3    25  VAL25       0.0020
      8  N        -41.9750   15.8770  -22.8570 N.am   26  GLY26      -0.1957
      9  CA       -42.1170   16.0580  -24.3030 C.3    26  GLY26       0.1869
     10  C        -43.5430   16.3180  -24.6760 C.2    26  GLY26       0.2309
     11  O        -44.3760   15.4680  -24.4660 O.2    26  GLY26      -0.2863
     12  N        -40.6720   20.1520  -21.7930 N.3    51  ASP51      -0.1225
     13  CA       -40.0240   19.9560  -23.0720 C.3    51  ASP51       0.1805
     14  C        -39.0890   21.2040  -23.2580 C.2    51  ASP51       0.2597
     15  O        -38.9200   22.0290  -22.3240 O.2    51  ASP51      -0.2718
     16  CB       -41.1220   19.8350  -24.1450 C.3    51  ASP51       0.1424
     17  CG       -40.6040   19.4140  -25.5230 C.2    51  ASP51       0.3668
     18  OD1      -39.3870   19.2770  -25.7190 O.co2  51  ASP51      -0.2456
     19  OD2      -41.4260   19.2360  -26.4370 O.co2  51  ASP51      -0.2456
     20  N        -38.4860   21.3490  -24.4430 N.am   52  VAL52      -0.1980
     21  CA       -37.6520   22.5170  -24.7560 C.3    52  VAL52       0.1595
     22  C        -38.3170   23.6250  -25.5610 C.2    52  VAL52       0.2287
     23  O        -38.0610   24.7780  -25.2750 O.2    52  VAL52      -0.2864
     24  CB       -36.3730   22.1320  -25.4720 C.3    52  VAL52       0.0276
     25  CG1      -35.3540   21.5930  -24.4800 C.3    52  VAL52       0.0022
     26  CG2      -36.6660   21.1500  -26.5810 C.3    52  VAL52       0.0022
     27  N        -39.7470   24.6190  -18.6930 N.3    80  LYS80      -0.1245
     28  CA       -38.5080   24.2160  -19.3230 C.3    80  LYS80       0.1561
     29  C        -37.5190   23.7740  -18.2680 C.2    80  LYS80       0.2260
     30  O        -36.5090   23.1530  -18.6080 O.2    80  LYS80      -0.2867
     31  CB       -37.9130   25.3770  -20.1140 C.3    80  LYS80       0.0271
     32  CG       -37.1370   24.9460  -21.3490 C.3    80  LYS80       0.0035
     33  CD       -36.1040   25.9780  -21.8290 C.3    80  LYS80       0.0206
     34  CE       -34.6870   25.4920  -21.5600 C.3    80  LYS80       0.1093
     35  NZ       -33.6610   26.4840  -21.9800 N.3    80  LYS80      -0.1314
     36  N        -36.6720   21.4850  -15.0630 N.3    82  TYR82      -0.1241
     37  CA       -37.1420   20.2510  -14.4870 C.3    82  TYR82       0.1605
     38  C        -37.6200   20.3090  -13.0210 C.2    82  TYR82       0.2264
     39  O        -38.1460   19.3210  -12.5040 O.2    82  TYR82      -0.2867
     40  CB       -36.0840   19.2050  -14.6620 C.3    82  TYR82       0.0534
     41  CG       -36.2150   18.5750  -15.9900 C.ar   82  TYR82      -0.0201
     42  CD1      -35.7340   19.1930  -17.1040 C.ar   82  TYR82      -0.0009
     43  CD2      -36.8490   17.3680  -16.1320 C.ar   82  TYR82      -0.0009
     44  CE1      -35.8660   18.6140  -18.3550 C.ar   82  TYR82       0.0417
     45  CE2      -36.9850   16.7770  -17.3630 C.ar   82  TYR82       0.0417
     46  CZ       -36.4930   17.4020  -18.4800 C.ar   82  TYR82       0.1957
     47  OH       -36.6180   16.8060  -19.7130 O.3    82  TYR82      -0.2866
     48  N        -39.6680   12.4250  -25.2460 N.3    95  ALA95      -0.1231
     49  CA       -38.4590   13.0640  -25.7980 C.3    95  ALA95       0.1694
     50  C        -37.3910   12.1190  -26.2960 C.2    95  ALA95       0.2593
     51  O        -37.2320   10.9830  -25.8150 O.2    95  ALA95      -0.2718
     52  CB       -37.8250   13.9810  -24.7680 C.3    95  ALA95       0.0304
     53  N        -36.6440   12.6360  -27.2550 N.am   96  GLY96      -0.1942
     54  CA       -35.6650   11.8610  -27.9890 C.3    96  GLY96       0.2014
     55  C        -35.3390   12.4490  -29.3580 C.2    96  GLY96       0.2639
     56  O        -36.0680   13.2980  -29.8840 O.2    96  GLY96      -0.2714
     57  N        -34.2070   12.0100  -29.9020 N.am   97  ALA97      -0.1963
     58  CA       -33.7630   12.3300  -31.2570 C.3    97  ALA97       0.1728
     59  C        -34.8080   11.9980  -32.3110 C.2    97  ALA97       0.2616
     60  O        -35.5820   11.0660  -32.1100 O.2    97  ALA97      -0.2715
     61  CB       -32.4950   11.5340  -31.5450 C.3    97  ALA97       0.0334
     62  N        -34.8100   12.7280  -33.4310 N.am   98  ARG98      -0.1977
     63  CA       -35.6570   12.3800  -34.5900 C.3    98  ARG98       0.1597
     64  C        -34.8340   11.9390  -35.8070 C.2    98  ARG98       0.2287
     65  O        -34.0850   12.7510  -36.3710 O.2    98  ARG98      -0.2864
     66  CB       -36.5490   13.5550  -34.9730 C.3    98  ARG98       0.0334
     67  CG       -37.7040   13.1450  -35.8750 C.3    98  ARG98       0.0492
     68  CD       -38.2810   14.3480  -36.5950 C.3    98  ARG98       0.2205
     69  NE       -39.2750   15.0800  -35.7960 N.pl3  98  ARG98      -0.0865
     70  CZ       -39.4910   16.4050  -35.8480 C.cat  98  ARG98       0.5346
     71  NH1      -38.7660   17.2180  -36.6420 N.pl3  98  ARG98       0.1354
     72  NH2      -40.4410   16.9310  -35.0740 N.pl3  98  ARG98       0.1354
     73  N        -27.3540    9.5930  -30.2120 N.3   111  ARG111     -0.1245
     74  CA       -27.7990   10.9610  -29.9830 C.3   111  ARG111      0.1563
     75  C        -28.8340   10.9270  -28.9340 C.2   111  ARG111      0.2260
     76  O        -28.8350   11.7530  -28.0420 O.2   111  ARG111     -0.2867
     77  CB       -28.4420   11.5570  -31.2190 C.3   111  ARG111      0.0307
     78  CG       -27.5480   11.5580  -32.4290 C.3   111  ARG111      0.0489
     79  CD       -27.8730   12.7010  -33.3610 C.3   111  ARG111      0.2205
     80  NE       -28.9830   12.3880  -34.2420 N.pl3 111  ARG111     -0.0865
     81  CZ       -30.2100   12.8660  -34.1280 C.cat 111  ARG111      0.5346
     82  NH1      -30.5230   13.7200  -33.1370 N.pl3 111  ARG111      0.1354
     83  NH2      -31.1250   12.4860  -35.0290 N.pl3 111  ARG111      0.1354
     84  N        -27.2480   11.0400  -25.7500 N.3   114  ASN114     -0.1225
     85  CA       -26.7760   12.3660  -25.3340 C.3   114  ASN114      0.1785
     86  C        -27.8960   13.2590  -24.8630 C.2   114  ASN114      0.2597
     87  O        -27.7280   14.0120  -23.9240 O.2   114  ASN114     -0.2718
     88  CB       -26.0080   13.0470  -26.4530 C.3   114  ASN114      0.1169
     89  CG       -24.5500   12.6600  -26.4650 C.2   114  ASN114      0.2627
     90  OD1      -24.2020   11.5020  -26.6890 O.2   114  ASN114     -0.2716
     91  ND2      -23.6800   13.6360  -26.2230 N.am  114  ASN114     -0.0877
     92  N        -29.0460   13.1600  -25.5040 N.am  115  ILE115     -0.1980
     93  CA       -30.2030   13.8920  -25.0480 C.3   115  ILE115      0.1595
     94  C        -30.6460   13.3510  -23.7000 C.2   115  ILE115      0.2287
     95  O        -31.1100   14.1150  -22.8320 O.2   115  ILE115     -0.2864
     96  CB       -31.3450   13.7890  -26.0620 C.3   115  ILE115      0.0276
     97  CG1      -30.9620   14.5850  -27.3120 C.3   115  ILE115      0.0022
     98  CG2      -32.6540   14.2910  -25.4650 C.3   115  ILE115      0.0022
     99  CD1      -31.8690   14.3380  -28.4930 C.3   115  ILE115      0.0001
    100  N        -29.0720   14.5140  -20.4760 N.3   118  PHE118     -0.1227
    101  CA       -29.5410   15.7910  -19.9860 C.3   118  PHE118      0.1736
    102  C        -30.8130   15.6270  -19.2040 C.2   118  PHE118      0.2595
    103  O        -30.9630   16.2480  -18.1200 O.2   118  PHE118     -0.2718
    104  CB       -29.8270   16.7700  -21.1120 C.3   118  PHE118      0.0547
    105  CG       -30.6150   17.9820  -20.6680 C.ar  118  PHE118     -0.0202
    106  CD1      -30.0150   18.9730  -19.9020 C.ar  118  PHE118     -0.0042
    107  CD2      -31.9680   18.1250  -21.0100 C.ar  118  PHE118     -0.0042
    108  CE1      -30.7210   20.0910  -19.4920 C.ar  118  PHE118     -0.0003
    109  CE2      -32.6920   19.2420  -20.6020 C.ar  118  PHE118     -0.0003
    110  CZ       -32.0610   20.2230  -19.8380 C.ar  118  PHE118     -0.0000
    111  N        -31.7240   14.8340  -19.7880 N.am  119  ILE119     -0.1980
    112  CA       -33.0880   14.6860  -19.2990 C.3   119  ILE119      0.1595
    113  C        -33.1210   13.7500  -18.1020 C.2   119  ILE119      0.2287
    114  O        -33.5940   14.1190  -17.0250 O.2   119  ILE119     -0.2864
    115  CB       -34.0150   14.1380  -20.3960 C.3   119  ILE119      0.0276
    116  CG1      -34.1830   15.1750  -21.5240 C.3   119  ILE119      0.0022
    117  CG2      -35.3650   13.7430  -19.8120 C.3   119  ILE119      0.0022
    118  CD1      -35.1410   14.7620  -22.6410 C.3   119  ILE119      0.0001
@<TRIPOS>BOND
     1    71    70    1
     2    68    67    1
     3    68    69    1
     4    65    64    2
     5    67    66    1
     6    70    69    2
     7    70    72    1
     8    64    63    1
     9    83    81    1
    10    66    63    1
    11    63    62    1
    12    80    81    2
    13    80    79    1
    14    81    82    1
    15    62    59   am
    16    79    78    1
    17    78    77    1
    18    59    60    2
    19    59    58    1
    20    61    58    1
    21    58    57    1
    22    77    74    1
    23    73    74    1
    24    74    75    1
    25    57    55   am
    26    56    55    2
    27    55    54    1
    28    75    76    2
    29    99    97    1
    30    54    53    1
    31    97    96    1
    32    53    50   am
    33    90    89    2
    34    26    24    1
    35    89    88    1
    36    89    91   am
    37    88    85    1
    38    19    17   ar
    39    50    51    2
    40    50    49    1
    41    96    98    1
    42    96    93    1
    43    49    48    1
    44    49    52    1
    45    84    85    1
    46    18    17   ar
    47    22    23    2
    48    22    21    1
    49    17    16    1
    50    92    93    1
    51    92    86   am
    52    24    21    1
    53    24    25    1
    54    85    86    1
    55    93    94    1
    56    86    87    2
    57    21    20    1
    58    10    11    2
    59    10     9    1
    60    20    14   am
    61     9     8    1
    62    16    13    1
    63    94    95    2
    64    14    13    1
    65    14    15    2
    66    13    12    1
    67     4     3    2
    68     8     3   am
    69   118   116    1
    70     3     2    1
    71    35    34    1
    72    33    34    1
    73    33    32    1
    74   116   115    1
    75    32    31    1
    76     6     5    1
    77   104   105    1
    78   104   101    1
    79   107   105   ar
    80   107   109   ar
    81     2     5    1
    82     2     1    1
    83   105   106   ar
    84   109   110   ar
    85   100   101    1
    86     5     7    1
    87   115   117    1
    88   115   112    1
    89    31    28    1
    90   101   102    1
    91   106   108   ar
    92   110   108   ar
    93   111   112    1
    94   111   102   am
    95    47    46    1
    96    28    27    1
    97    28    29    1
    98   112   113    1
    99   102   103    2
   100    30    29    2
   101    46    44   ar
   102    46    45   ar
   103    44    42   ar
   104   113   114    2
   105    45    43   ar
   106    42    41   ar
   107    43    41   ar
   108    41    40    1
   109    36    37    1
   110    40    37    1
   111    37    38    1
   112    38    39    2
