@<TRIPOS>MOLECULE
tmp/4qt1A00.pdb
 158 149 0 0 0
SMALL
GASTEIGER

@<TRIPOS>ATOM
      1  N          2.9440  -18.7220    0.9340 N.3    15  LEU15      -0.1231
      2  CA         2.2160  -18.7720   -0.3690 C.3    15  LEU15       0.1693
      3  C          3.1540  -19.1640   -1.5240 C.2    15  LEU15       0.2593
      4  O          2.7570  -19.8420   -2.4460 O.2    15  LEU15      -0.2718
      5  CB         1.5500  -17.4230   -0.6670 C.3    15  LEU15       0.0284
      6  CG         0.5400  -16.9320    0.3810 C.3    15  LEU15       0.0019
      7  CD1        0.0520  -15.5420    0.0450 C.3    15  LEU15       0.0001
      8  CD2       -0.6310  -17.8930    0.5600 C.3    15  LEU15       0.0001
      9  N          4.3980  -18.7100   -1.4470 N.am   16  GLY16      -0.1942
     10  CA         5.3810  -19.0030   -2.4510 C.3    16  GLY16       0.2014
     11  C          6.7870  -18.6210   -2.0510 C.2    16  GLY16       0.2639
     12  O          7.0100  -17.9910   -1.0250 O.2    16  GLY16      -0.2714
     13  N          7.7410  -19.0240   -2.8850 N.am   17  LYS17      -0.1963
     14  CA         9.1630  -18.6820   -2.6930 C.3    17  LYS17       0.1728
     15  C          9.9200  -18.7610   -4.0170 C.2    17  LYS17       0.2617
     16  O          9.6140  -19.5820   -4.8650 O.2    17  LYS17      -0.2715
     17  CB         9.8140  -19.6210   -1.6740 C.3    17  LYS17       0.0311
     18  CG         9.7850  -21.0770   -2.1070 C.3    17  LYS17       0.0038
     19  CD        10.2350  -22.0020   -0.9990 C.3    17  LYS17       0.0206
     20  CE         9.7950  -23.4220   -1.2950 C.3    17  LYS17       0.1093
     21  NZ        10.1500  -24.3280   -0.1660 N.3    17  LYS17      -0.1314
     22  N         10.9210  -17.9140   -4.1800 N.am   18  GLY18      -0.1940
     23  CA        11.7150  -17.9410   -5.3990 C.3    18  GLY18       0.2014
     24  C         12.7360  -16.8390   -5.3780 C.2    18  GLY18       0.2638
     25  O         12.7010  -15.9660   -4.5030 O.2    18  GLY18      -0.2714
     26  N         13.6400  -16.8670   -6.3490 N.am   19  ASN19      -0.1972
     27  CA        14.8150  -16.0260   -6.2930 C.3    19  ASN19       0.1688
     28  C         15.3690  -16.1320   -4.8860 C.2    19  ASN19       0.2292
     29  O         15.7760  -17.2190   -4.4560 O.2    19  ASN19      -0.2864
     30  CB        14.4690  -14.5810   -6.6600 C.3    19  ASN19       0.1181
     31  CG        14.0650  -14.4420   -8.1000 C.2    19  ASN19       0.2629
     32  OD1       14.9140  -14.4940   -9.0000 O.2    19  ASN19      -0.2716
     33  ND2       12.7660  -14.2690   -8.3390 N.am   19  ASN19      -0.0877
     34  N         13.4570  -14.5300   -2.3660 N.3    21  GLY21      -0.1210
     35  CA        12.3020  -13.9620   -1.6840 C.3    21  GLY21       0.1956
     36  C         11.2310  -14.9900   -1.3520 C.2    21  GLY21       0.2613
     37  O         11.2300  -16.1150   -1.8560 O.2    21  GLY21      -0.2717
     38  N         10.3090  -14.5840   -0.5050 N.am   22  SER22      -0.1938
     39  CA         9.1460  -15.3860   -0.2170 C.3    22  SER22       0.2055
     40  C          7.9440  -14.4820    0.0110 C.2    22  SER22       0.2642
     41  O          8.0950  -13.3230    0.4480 O.2    22  SER22      -0.2714
     42  CB         9.3830  -16.2460    1.0170 C.3    22  SER22       0.2130
     43  OG         9.5260  -15.4300    2.1580 O.3    22  SER22      -0.2179
     44  N          6.7770  -15.0320   -0.3090 N.am   23  VAL23      -0.1977
     45  CA         5.4930  -14.4140   -0.0500 C.3    23  VAL23       0.1596
     46  C          4.7490  -15.2610    0.9900 C.2    23  VAL23       0.2287
     47  O          4.6230  -16.5030    0.8500 O.2    23  VAL23      -0.2864
     48  CB         4.6510  -14.2790   -1.3410 C.3    23  VAL23       0.0276
     49  CG1        3.3010  -13.6520   -1.0520 C.3    23  VAL23       0.0022
     50  CG2        5.3920  -13.4470   -2.3650 C.3    23  VAL23       0.0022
     51  N         -1.0240  -10.7510    1.7220 N.3    40  ALA40      -0.1245
     52  CA         0.1440  -11.4880    1.2660 C.3    40  ALA40       0.1562
     53  C          1.3520  -10.5720    1.3520 C.2    40  ALA40       0.2260
     54  O          1.3240   -9.4300    0.9060 O.2    40  ALA40      -0.2867
     55  CB        -0.0520  -11.9720   -0.1590 C.3    40  ALA40       0.0290
     56  N          5.4910  -10.0400    0.8440 N.3    42  LYS42      -0.1245
     57  CA         6.7800  -10.3990    0.2750 C.3    42  LYS42       0.1561
     58  C          7.9630   -9.8300    1.0490 C.2    42  LYS42       0.2260
     59  O          8.0010   -8.6640    1.3850 O.2    42  LYS42      -0.2867
     60  CB         6.8810   -9.9760   -1.1870 C.3    42  LYS42       0.0271
     61  CG         8.1980  -10.4290   -1.8020 C.3    42  LYS42       0.0035
     62  CD         8.1260  -10.5780   -3.2880 C.3    42  LYS42       0.0206
     63  CE         9.5160  -10.6410   -3.9120 C.3    42  LYS42       0.1093
     64  NZ         9.3730  -10.8690   -5.3860 N.3    42  LYS42      -0.1314
     65  N         -2.2780   -7.6490   -9.6300 N.3    71  VAL71      -0.1245
     66  CA        -2.4220   -7.8910   -8.2050 C.3    71  VAL71       0.1561
     67  C         -2.1660   -6.5870   -7.4490 C.2    71  VAL71       0.2260
     68  O         -1.2670   -5.8160   -7.7870 O.2    71  VAL71      -0.2867
     69  CB        -1.5000   -9.0500   -7.7190 C.3    71  VAL71       0.0252
     70  CG1       -0.0530   -8.6330   -7.7530 C.3    71  VAL71       0.0019
     71  CG2       -1.8650   -9.5050   -6.3160 C.3    71  VAL71       0.0019
     72  N          0.3530   -6.7950    0.0090 N.3    83  MET83      -0.1230
     73  CA        -0.4800   -6.8920   -1.1580 C.3    83  MET83       0.1702
     74  C         -1.7790   -7.5250   -0.7290 C.2    83  MET83       0.2592
     75  O         -1.8450   -8.1080    0.3390 O.2    83  MET83      -0.2718
     76  CB         0.2000   -7.8030   -2.1820 C.3    83  MET83       0.0401
     77  CG         1.5080   -7.2760   -2.7640 C.3    83  MET83       0.0596
     78  SD         2.3160   -8.5090   -3.8150 S.3    83  MET83      -0.1393
     79  CE         3.3080   -9.4570   -2.6580 C.3    83  MET83       0.0692
     80  N         -2.8120   -7.3830   -1.5450 N.am   84  GLU84      -0.1966
     81  CA        -4.0580   -8.0890   -1.3130 C.3    84  GLU84       0.1733
     82  C         -3.8010   -9.5920   -1.4690 C.2    84  GLU84       0.2616
     83  O         -2.8780  -10.0170   -2.1570 O.2    84  GLU84      -0.2715
     84  CB        -5.1430   -7.6540   -2.3130 C.3    84  GLU84       0.0429
     85  CG        -4.8220   -8.1410   -3.7150 C.3    84  GLU84       0.1163
     86  CD        -5.8740   -7.8200   -4.7250 C.2    84  GLU84       0.3649
     87  OE1       -7.0710   -7.7610   -4.3560 O.co2  84  GLU84      -0.2457
     88  OE2       -5.4810   -7.6870   -5.8990 O.co2  84  GLU84      -0.2457
     89  N         -4.6680  -10.3780   -0.8500 N.am   85  TYR85      -0.1960
     90  CA        -4.5180  -11.8040   -0.8100 C.3    85  TYR85       0.1771
     91  C         -5.6470  -12.4180   -1.6110 C.2    85  TYR85       0.2619
     92  O         -6.8170  -12.0260   -1.4700 O.2    85  TYR85      -0.2715
     93  CB        -4.5360  -12.2690    0.6330 C.3    85  TYR85       0.0574
     94  CG        -4.7110  -13.7500    0.7930 C.ar   85  TYR85      -0.0198
     95  CD1       -3.8520  -14.6430    0.1540 C.ar   85  TYR85      -0.0009
     96  CD2       -5.7330  -14.2650    1.5590 C.ar   85  TYR85      -0.0009
     97  CE1       -4.0100  -16.0190    0.2930 C.ar   85  TYR85       0.0417
     98  CE2       -5.9060  -15.6340    1.6770 C.ar   85  TYR85       0.0417
     99  CZ        -5.0270  -16.5000    1.0670 C.ar   85  TYR85       0.1957
    100  OH        -5.1960  -17.8500    1.2030 O.3    85  TYR85      -0.2866
    101  N         -5.2890  -13.3620   -2.4780 N.am   86  LEU86      -0.1977
    102  CA        -6.2760  -14.0450   -3.3150 C.3    86  LEU86       0.1596
    103  C         -6.3410  -15.5180   -2.9430 C.2    86  LEU86       0.2287
    104  O         -5.4720  -16.3050   -3.3330 O.2    86  LEU86      -0.2864
    105  CB        -5.9390  -13.8640   -4.8010 C.3    86  LEU86       0.0297
    106  CG        -6.3960  -12.5430   -5.4340 C.3    86  LEU86       0.0022
    107  CD1       -5.7490  -11.3520   -4.7690 C.3    86  LEU86       0.0001
    108  CD2       -6.0700  -12.5310   -6.9100 C.3    86  LEU86       0.0001
    109  N         -5.6410  -18.7700   -5.2630 N.3    89  GLY89      -0.1210
    110  CA        -4.2940  -19.2090   -5.6540 C.3    89  GLY89       0.1956
    111  C         -4.0520  -19.0830   -7.1390 C.2    89  GLY89       0.2612
    112  O         -4.6960  -18.2770   -7.8170 O.2    89  GLY89      -0.2717
    113  N         -3.1250  -19.8700   -7.6700 N.am   90  CYS90      -0.1970
    114  CA        -2.7150  -19.6380   -9.0360 C.3    90  CYS90       0.1712
    115  C         -3.5940  -20.3380  -10.0730 C.2    90  CYS90       0.2296
    116  O         -4.1170  -21.4350   -9.8520 O.2    90  CYS90      -0.2864
    117  CB        -1.2400  -19.9440   -9.2430 C.3    90  CYS90       0.0983
    118  SG        -0.8240  -21.6590   -9.4640 S.3    90  CYS90      -0.0798
    119  N          1.3900  -20.2860  -13.6780 N.3   134  ARG134     -0.1182
    120  CA         1.8060  -20.3810  -12.2660 C.3   134  ARG134      0.1910
    121  C          1.9810  -19.0320  -11.5790 C.2   134  ARG134      0.2634
    122  O          1.9700  -18.9750  -10.3320 O.2   134  ARG134     -0.2714
    123  CB         3.1140  -21.1680  -12.1060 C.2   134  ARG134      0.0007
    124  CG         4.3660  -20.4540  -12.5960 C.2   134  ARG134      0.0176
    125  CD         5.6530  -21.2930  -12.6290 C.3   134  ARG134      0.2464
    126  NE         6.6930  -20.5620  -13.3760 N.pl3 134  ARG134     -0.0815
    127  CZ         6.9780  -20.7160  -14.6790 C.cat 134  ARG134      0.5349
    128  NH1        6.3520  -21.6460  -15.4170 N.pl3 134  ARG134      0.1354
    129  NH2        7.9260  -19.9610  -15.2570 N.pl3 134  ARG134      0.1354
    130  N          2.1270  -17.9600  -12.3840 N.am  135  ASN135     -0.1972
    131  CA         2.2700  -16.5630  -11.8820 C.3   135  ASN135      0.1688
    132  C          1.0430  -15.6720  -12.0550 C.2   135  ASN135      0.2292
    133  O          1.1180  -14.4530  -11.8570 O.2   135  ASN135     -0.2864
    134  CB         3.4460  -15.8990  -12.5680 C.3   135  ASN135      0.1181
    135  CG         4.7700  -16.4560  -12.0960 C.2   135  ASN135      0.2629
    136  OD1        4.9270  -16.7690  -10.8980 O.2   135  ASN135     -0.2716
    137  ND2        5.7490  -16.5550  -13.0150 N.am  135  ASN135     -0.0877
    138  N         -3.0340  -15.0810  -10.9320 N.3   137  LEU137     -0.1245
    139  CA        -3.8540  -15.3870   -9.7650 C.3   137  LEU137      0.1561
    140  C         -5.3150  -15.3760  -10.1210 C.2   137  LEU137      0.2260
    141  O         -5.7300  -14.6510  -11.0210 O.2   137  LEU137     -0.2867
    142  CB        -3.5980  -14.3900   -8.6250 C.3   137  LEU137      0.0270
    143  CG        -2.3000  -14.5920   -7.8580 C.3   137  LEU137      0.0019
    144  CD1       -2.0450  -13.4060   -6.9210 C.3   137  LEU137      0.0001
    145  CD2       -2.3030  -15.9380   -7.1280 C.3   137  LEU137      0.0001
    146  N          0.6290  -11.5470  -11.4190 N.3   147  ALA147     -0.1231
    147  CA         1.3800  -11.5020  -10.1640 C.3   147  ALA147      0.1694
    148  C          2.8900  -11.7740  -10.3800 C.2   147  ALA147      0.2592
    149  O          3.3460  -12.0260  -11.5110 O.2   147  ALA147     -0.2718
    150  CB         0.7970  -12.5050   -9.1790 C.3   147  ALA147      0.0304
    151  N          3.6510  -11.6930   -9.2880 N.am  148  ASP148     -0.1974
    152  CA         5.0930  -11.8840   -9.3030 C.3   148  ASP148      0.1709
    153  C          5.8200  -10.9990  -10.3420 C.2   148  ASP148      0.2293
    154  O          6.2160  -11.4350  -11.4400 O.2   148  ASP148     -0.2864
    155  CB         5.4290  -13.3620   -9.5090 C.3   148  ASP148      0.1436
    156  CG         6.9100  -13.6870   -9.2680 C.2   148  ASP148      0.3671
    157  OD1        7.2930  -14.8190   -9.6270 O.co2 148  ASP148     -0.2456
    158  OD2        7.6740  -12.8490   -8.7220 O.co2 148  ASP148     -0.2456
@<TRIPOS>BOND
     1   128   127    1
     2   129   127    1
     3   127   126    2
     4   119   120    1
     5   126   125    1
     6   137   135   am
     7   125   124    1
     8   124   123    2
     9   134   135    1
    10   134   131    1
    11   130   131    1
    12   130   121   am
    13   120   123    1
    14   120   121    1
    15   135   136    2
    16   132   131    1
    17   132   133    2
    18   121   122    2
    19   149   148    2
    20   154   153    2
    21   146   147    1
    22   141   140    2
    23   138   139    1
    24   148   147    1
    25   148   151   am
    26   153   152    1
    27   147   150    1
    28   140   139    1
    29   115   116    2
    30   115   114    1
    31   139   142    1
    32    65    66    1
    33   157   156   ar
    34   155   152    1
    35   155   156    1
    36   118   117    1
    37   152   151    1
    38   156   158   ar
    39   117   114    1
    40   114   113    1
    41    32    31    2
    42   142   143    1
    43    33    31   am
    44    66    69    1
    45    66    67    1
    46    31    30    1
    47   143   145    1
    48   143   144    1
    49   112   111    2
    50    68    67    2
    51    70    69    1
    52    69    71    1
    53   113   111   am
    54   111   110    1
    55   108   106    1
    56    30    27    1
    57    26    27    1
    58    26    24   am
    59    27    28    1
    60    88    86   ar
    61   110   109    1
    62   106   105    1
    63   106   107    1
    64    23    24    1
    65    23    22    1
    66    64    63    1
    67    24    25    2
    68    28    29    2
    69    16    15    2
    70   105   102    1
    71    86    87   ar
    72    86    85    1
    73    22    15   am
    74    15    14    1
    75    63    62    1
    76    78    77    1
    77    78    79    1
    78    85    84    1
    79   104   103    2
    80   102   103    1
    81   102   101    1
    82    62    61    1
    83    13    14    1
    84    13    11   am
    85    77    76    1
    86    14    17    1
    87   101    91   am
    88    10    11    1
    89    10     9    1
    90     4     3    2
    91    34    35    1
    92    50    48    1
    93    84    81    1
    94    76    73    1
    95    83    82    2
    96    18    17    1
    97    18    19    1
    98    11    12    2
    99    37    36    2
   100    61    60    1
   101    35    36    1
   102    91    92    2
   103    91    90    1
   104    80    81    1
   105    80    74   am
   106     3     9   am
   107     3     2    1
   108    82    81    1
   109    82    89   am
   110    36    38   am
   111    48    49    1
   112    48    45    1
   113    20    19    1
   114    20    21    1
   115    60    57    1
   116    73    74    1
   117    73    72    1
   118    89    90    1
   119    90    93    1
   120    74    75    2
   121     5     2    1
   122     5     6    1
   123    38    39    1
   124     2     1    1
   125    44    45    1
   126    44    40   am
   127    39    40    1
   128    39    42    1
   129    55    52    1
   130    45    46    1
   131    40    41    2
   132     7     6    1
   133    95    97   ar
   134    95    94   ar
   135    57    56    1
   136    57    58    1
   137    97    99   ar
   138     6     8    1
   139    93    94    1
   140    94    96   ar
   141    47    46    2
   142    54    53    2
   143    42    43    1
   144    58    59    2
   145    99   100    1
   146    99    98   ar
   147    52    53    1
   148    52    51    1
   149    96    98   ar
