@<TRIPOS>MOLECULE
tmp/4qt3A00.pdb
 152 151 0 0 0
SMALL
GASTEIGER

@<TRIPOS>ATOM
      1  N          1.6510   16.4140    3.5000 N.3    40  TYR40      -0.1241
      2  CA         1.0640   15.6570    2.4080 C.3    40  TYR40       0.1605
      3  C          0.7670   14.2230    2.8000 C.2    40  TYR40       0.2264
      4  O          1.3130   13.7070    3.7680 O.2    40  TYR40      -0.2867
      5  CB         1.9670   15.6660    1.1590 C.3    40  TYR40       0.0534
      6  CG         3.1820   14.7500    1.2210 C.ar   40  TYR40      -0.0201
      7  CD1        3.1020   13.4280    0.8060 C.ar   40  TYR40      -0.0009
      8  CD2        4.3990   15.2030    1.7170 C.ar   40  TYR40      -0.0009
      9  CE1        4.1980   12.5890    0.8710 C.ar   40  TYR40       0.0417
     10  CE2        5.4970   14.3720    1.7710 C.ar   40  TYR40       0.0417
     11  CZ         5.3980   13.0680    1.3600 C.ar   40  TYR40       0.1957
     12  OH         6.5050   12.2500    1.4200 O.3    40  TYR40      -0.2866
     13  N          0.3180    5.1270    0.2520 N.3    51  PHE51      -0.1227
     14  CA         1.7000    4.6670    0.3380 C.3    51  PHE51       0.1736
     15  C          2.5860    5.5220    1.2490 C.2    51  PHE51       0.2595
     16  O          3.6460    5.0680    1.6640 O.2    51  PHE51      -0.2718
     17  CB         2.3400    4.5210   -1.0510 C.3    51  PHE51       0.0547
     18  CG         2.2790    5.7530   -1.9000 C.ar   51  PHE51      -0.0202
     19  CD1        3.2030    6.7760   -1.7520 C.ar   51  PHE51      -0.0042
     20  CD2        1.3130    5.8740   -2.8750 C.ar   51  PHE51      -0.0042
     21  CE1        3.1290    7.9090   -2.5430 C.ar   51  PHE51      -0.0003
     22  CE2        1.2330    7.0000   -3.6740 C.ar   51  PHE51      -0.0003
     23  CZ         2.1510    8.0240   -3.5090 C.ar   51  PHE51      -0.0000
     24  N          2.1780    6.7480    1.5620 N.am   52  ASP52      -0.1974
     25  CA         3.0070    7.6280    2.3900 C.3    52  ASP52       0.1709
     26  C          2.1160    8.6050    3.1310 C.2    52  ASP52       0.2293
     27  O          1.4510    9.4290    2.5090 O.2    52  ASP52      -0.2864
     28  CB         4.0310    8.3590    1.5040 C.3    52  ASP52       0.1436
     29  CG         5.0650    9.1700    2.2920 C.2    52  ASP52       0.3671
     30  OD1        4.8720    9.4480    3.4930 O.co2  52  ASP52      -0.2456
     31  OD2        6.0690    9.5680    1.6480 O.co2  52  ASP52      -0.2456
     32  N          4.2770   12.4760    6.5100 N.3    55  PHE55      -0.1241
     33  CA         4.2910   13.9310    6.6230 C.3    55  PHE55       0.1605
     34  C          2.8790   14.5310    6.6440 C.2    55  PHE55       0.2264
     35  O          2.7010   15.7000    6.3150 O.2    55  PHE55      -0.2867
     36  CB         5.0870   14.5330    5.4590 C.3    55  PHE55       0.0534
     37  CG         6.5440   14.1610    5.4470 C.ar   55  PHE55      -0.0203
     38  CD1        7.4580   14.8490    6.2330 C.ar   55  PHE55      -0.0042
     39  CD2        7.0060   13.1440    4.6270 C.ar   55  PHE55      -0.0042
     40  CE1        8.7970   14.5180    6.2120 C.ar   55  PHE55      -0.0003
     41  CE2        8.3460   12.8090    4.6000 C.ar   55  PHE55      -0.0003
     42  CZ         9.2460   13.4980    5.3930 C.ar   55  PHE55      -0.0000
     43  N          7.2130   18.4480    5.5060 N.3    61  PHE61      -0.1227
     44  CA         8.0950   18.1030    4.3930 C.3    61  PHE61       0.1736
     45  C          8.5500   19.4060    3.7380 C.2    61  PHE61       0.2595
     46  O          7.7300   20.2760    3.4660 O.2    61  PHE61      -0.2718
     47  CB         7.3570   17.2160    3.3780 C.3    61  PHE61       0.0547
     48  CG         8.1740   16.8670    2.1750 C.ar   61  PHE61      -0.0202
     49  CD1        9.1740   15.9040    2.2540 C.ar   61  PHE61      -0.0042
     50  CD2        7.9610   17.4990    0.9580 C.ar   61  PHE61      -0.0042
     51  CE1        9.9350   15.5830    1.1430 C.ar   61  PHE61      -0.0003
     52  CE2        8.7290   17.1860   -0.1470 C.ar   61  PHE61      -0.0003
     53  CZ         9.7150   16.2260   -0.0580 C.ar   61  PHE61      -0.0000
     54  N          9.8530   19.5370    3.4990 N.am   62  LYS62      -0.1966
     55  CA        10.4150   20.7420    2.8810 C.3    62  LYS62       0.1728
     56  C         11.1560   20.3910    1.6010 C.2    62  LYS62       0.2616
     57  O         11.8510   19.3740    1.5370 O.2    62  LYS62      -0.2715
     58  CB        11.3690   21.4600    3.8460 C.3    62  LYS62       0.0311
     59  CG        10.7340   21.8080    5.1790 C.3    62  LYS62       0.0038
     60  CD        11.6710   22.5700    6.1060 C.3    62  LYS62       0.0206
     61  CE        11.1300   22.5460    7.5250 C.3    62  LYS62       0.1093
     62  NZ        11.8880   23.4300    8.4500 N.3    62  LYS62      -0.1314
     63  N         11.0010   21.2200    0.5760 N.am   63  PHE63      -0.1974
     64  CA        11.7540   21.0630   -0.6590 C.3    63  PHE63       0.1639
     65  C         11.8840   22.4220   -1.3530 C.2    63  PHE63       0.2290
     66  O         11.2160   23.3800   -0.9730 O.2    63  PHE63      -0.2864
     67  CB        11.0890   20.0240   -1.5710 C.3    63  PHE63       0.0560
     68  CG         9.8460   20.5120   -2.2750 C.ar   63  PHE63      -0.0200
     69  CD1        9.9010   20.8740   -3.6110 C.ar   63  PHE63      -0.0042
     70  CD2        8.6300   20.5890   -1.6180 C.ar   63  PHE63      -0.0042
     71  CE1        8.7750   21.3180   -4.2830 C.ar   63  PHE63      -0.0003
     72  CE2        7.4970   21.0330   -2.2880 C.ar   63  PHE63      -0.0003
     73  CZ         7.5670   21.3860   -3.6210 C.ar   63  PHE63      -0.0000
     74  N         14.2450   20.7280   -9.6910 N.3    68  GLY68      -0.1210
     75  CA        14.5420   19.3310  -10.0250 C.3    68  GLY68       0.1956
     76  C         14.5340   18.3500   -8.8640 C.2    68  GLY68       0.2612
     77  O         15.0880   17.2500   -8.9850 O.2    68  GLY68      -0.2717
     78  N         13.9040   18.7180   -7.7520 N.am   69  GLU69      -0.1965
     79  CA        13.9680   17.8960   -6.5390 C.3    69  GLU69       0.1733
     80  C         12.8430   16.8640   -6.4210 C.2    69  GLU69       0.2616
     81  O         13.0260   15.8150   -5.8070 O.2    69  GLU69      -0.2715
     82  CB        13.9670   18.7640   -5.2810 C.3    69  GLU69       0.0429
     83  CG        15.2800   19.4820   -5.0500 C.3    69  GLU69       0.1163
     84  CD        15.2840   20.3140   -3.7910 C.2    69  GLU69       0.3649
     85  OE1       16.2480   21.0850   -3.6180 O.co2  69  GLU69      -0.2457
     86  OE2       14.3490   20.2020   -2.9700 O.co2  69  GLU69      -0.2457
     87  N         11.6890   17.1730   -7.0040 N.am   70  VAL70      -0.1963
     88  CA        10.4830   16.3620   -6.8650 C.3    70  VAL70       0.1727
     89  C          9.8950   16.0600   -8.2350 C.2    70  VAL70       0.2616
     90  O         10.2900   16.6460   -9.2470 O.2    70  VAL70      -0.2715
     91  CB         9.4370   17.0680   -5.9700 C.3    70  VAL70       0.0290
     92  CG1        9.9780   17.2730   -4.5740 C.3    70  VAL70       0.0023
     93  CG2        8.9880   18.4060   -6.5630 C.3    70  VAL70       0.0023
     94  N          8.9420   15.1250   -8.2710 N.am   71  ILE71      -0.1977
     95  CA         8.2260   14.8120   -9.5050 C.3    71  ILE71       0.1596
     96  C          7.5770   16.0640  -10.0930 C.2    71  ILE71       0.2287
     97  O          7.1660   16.9770   -9.3650 O.2    71  ILE71      -0.2864
     98  CB         7.2070   13.6710   -9.3130 C.3    71  ILE71       0.0276
     99  CG1        6.1920   13.9930   -8.2070 C.3    71  ILE71       0.0022
    100  CG2        7.9430   12.3640   -9.0290 C.3    71  ILE71       0.0022
    101  CD1        5.1010   12.9410   -8.0710 C.3    71  ILE71       0.0001
    102  N          4.3480   17.6450   -8.7990 N.3    74  TRP74      -0.1241
    103  CA         4.4590   18.3960   -7.5420 C.3    74  TRP74       0.1605
    104  C          4.9300   19.8270   -7.7510 C.2    74  TRP74       0.2264
    105  O          4.3770   20.7420   -7.1420 O.2    74  TRP74      -0.2867
    106  CB         5.3940   17.6980   -6.5480 C.3    74  TRP74       0.0550
    107  CG         4.6710   16.9080   -5.4970 C.ar   74  TRP74       0.0003
    108  CD1        3.8570   15.8110   -5.6820 C.ar   74  TRP74       0.0946
    109  CD2        4.6930   17.1520   -4.0930 C.ar   74  TRP74       0.0152
    110  NE1        3.3940   15.3650   -4.4600 N.ar   74  TRP74      -0.2442
    111  CE2        3.8910   16.1700   -3.4730 C.ar   74  TRP74       0.0810
    112  CE3        5.3220   18.1100   -3.2860 C.ar   74  TRP74       0.0012
    113  CZ2        3.7140   16.1230   -2.1060 C.ar   74  TRP74       0.0191
    114  CZ3        5.1370   18.0620   -1.9460 C.ar   74  TRP74       0.0001
    115  CH2        4.3510   17.0730   -1.3560 C.ar   74  TRP74       0.0015
    116  N          6.2810    9.1750  -11.8000 N.3    97  TYR97      -0.1241
    117  CA         7.4550    8.3020  -11.9270 C.3    97  TYR97       0.1605
    118  C          7.5630    7.5840  -13.2700 C.2    97  TYR97       0.2264
    119  O          8.4370    6.7460  -13.4410 O.2    97  TYR97      -0.2867
    120  CB         7.5150    7.2940  -10.7700 C.3    97  TYR97       0.0534
    121  CG         7.6900    8.0090   -9.4590 C.ar   97  TYR97      -0.0201
    122  CD1        8.9170    8.5580   -9.1230 C.ar   97  TYR97      -0.0009
    123  CD2        6.6250    8.1790   -8.5800 C.ar   97  TYR97      -0.0009
    124  CE1        9.0890    9.2340   -7.9410 C.ar   97  TYR97       0.0417
    125  CE2        6.7850    8.8640   -7.3850 C.ar   97  TYR97       0.0417
    126  CZ         8.0280    9.4000   -7.0820 C.ar   97  TYR97       0.1957
    127  OH         8.2040   10.1100   -5.9270 O.3    97  TYR97      -0.2866
    128  N          8.4750    3.7460   -8.7570 N.3   102  CYS102     -0.1235
    129  CA         9.3270    4.0640   -7.5890 C.3   102  CYS102      0.1677
    130  C          9.1220    2.9820   -6.5500 C.2   102  CYS102      0.2270
    131  O          8.1640    3.0000   -5.8040 O.2   102  CYS102     -0.2867
    132  CB         8.9580    5.4120   -7.0110 C.3   102  CYS102      0.0956
    133  SG        10.0730    5.9590   -5.6450 S.3   102  CYS102     -0.0801
    134  N          4.9470    1.3720   -6.1100 N.3   106  ILE106     -0.1245
    135  CA         4.5330    2.2210   -7.2470 C.3   106  ILE106      0.1561
    136  C          5.0650    1.7160   -8.5850 C.2   106  ILE106      0.2260
    137  O          6.2250    1.9350   -8.9310 O.2   106  ILE106     -0.2867
    138  CB         4.8990    3.7090   -7.0560 C.3   106  ILE106      0.0252
    139  CG1        4.2420    4.2500   -5.7760 C.3   106  ILE106      0.0019
    140  CG2        4.4540    4.5200   -8.2730 C.3   106  ILE106      0.0019
    141  CD1        4.6990    5.6420   -5.4160 C.3   106  ILE106      0.0001
    142  N         -2.3310   12.9550   -4.3570 N.3   114  PHE114     -0.1241
    143  CA        -1.8100   13.5290   -3.1300 C.3   114  PHE114      0.1605
    144  C         -2.7700   14.5700   -2.5830 C.2   114  PHE114      0.2264
    145  O         -3.3930   15.3180   -3.3320 O.2   114  PHE114     -0.2867
    146  CB        -0.4730   14.2550   -3.3600 C.3   114  PHE114      0.0534
    147  CG         0.6900   13.3550   -3.6960 C.ar  114  PHE114     -0.0203
    148  CD1        1.5460   12.9180   -2.7020 C.ar  114  PHE114     -0.0042
    149  CD2        0.9620   12.9920   -5.0040 C.ar  114  PHE114     -0.0042
    150  CE1        2.6340   12.1190   -2.9930 C.ar  114  PHE114     -0.0003
    151  CE2        2.0540   12.1970   -5.3070 C.ar  114  PHE114     -0.0003
    152  CZ         2.8890   11.7560   -4.2960 C.ar  114  PHE114     -0.0000
@<TRIPOS>BOND
     1   119   118    2
     2   118   117    1
     3   117   116    1
     4   117   120    1
     5   120   121    1
     6    96    95    1
     7    96    97    2
     8    75    74    1
     9    75    76    1
    10    95    98    1
    11    95    94    1
    12   121   122   ar
    13   121   123   ar
    14    98   100    1
    15    98    99    1
    16    90    89    2
    17   122   124   ar
    18    77    76    2
    19   137   136    2
    20    76    78   am
    21   102   103    1
    22   128   129    1
    23   136   135    1
    24   123   125   ar
    25   140   138    1
    26    94    89   am
    27    89    88    1
    28    99   101    1
    29   124   126   ar
    30    78    79    1
    31   104   103    1
    32   104   105    2
    33   129   132    1
    34   129   130    1
    35   103   106    1
    36   125   126   ar
    37   135   138    1
    38   135   134    1
    39   126   127    1
    40   138   139    1
    41   132   133    1
    42    87    88    1
    43    87    80   am
    44    88    91    1
    45    93    91    1
    46   130   131    2
    47   106   107    1
    48    79    80    1
    49    79    82    1
    50    80    81    2
    51    91    92    1
    52   139   141    1
    53   108   107   ar
    54   108   110   ar
    55   107   109   ar
    56   151   149   ar
    57   151   152   ar
    58    82    83    1
    59    83    84    1
    60   149   147   ar
    61   110   111   ar
    62   142   143    1
    63   152   150   ar
    64    71    73   ar
    65    71    69   ar
    66   109   111   ar
    67   109   112   ar
    68    84    85   ar
    69    84    86   ar
    70   147   146    1
    71   147   148   ar
    72    22    23   ar
    73    22    20   ar
    74    73    72   ar
    75    69    68   ar
    76    23    21   ar
    77   111   113   ar
    78   146   143    1
    79   145   144    2
    80   112   114   ar
    81   143   144    1
    82   150   148   ar
    83    20    18   ar
    84    21    19   ar
    85    72    70   ar
    86    68    70   ar
    87    68    67    1
    88   113   115   ar
    89   114   115   ar
    90    18    19   ar
    91    18    17    1
    92    67    64    1
    93    65    66    2
    94    65    64    1
    95    17    14    1
    96    64    63    1
    97    52    53   ar
    98    52    50   ar
    99    53    51   ar
   100    13    14    1
   101    14    15    1
   102    63    56   am
   103     7     9   ar
   104     7     6   ar
   105     9    11   ar
   106    50    48   ar
   107    51    49   ar
   108     5     6    1
   109     5     2    1
   110     6     8   ar
   111    15    24   am
   112    15    16    2
   113    11    12    1
   114    11    10   ar
   115    28    29    1
   116    28    25    1
   117    57    56    2
   118    24    25    1
   119    56    55    1
   120    31    29   ar
   121     8    10   ar
   122    48    49   ar
   123    48    47    1
   124    29    30   ar
   125    25    26    1
   126     2     3    1
   127     2     1    1
   128    27    26    2
   129     3     4    2
   130    55    54    1
   131    55    58    1
   132    47    44    1
   133    46    45    2
   134    54    45   am
   135    45    44    1
   136    58    59    1
   137    44    43    1
   138    41    39   ar
   139    41    42   ar
   140    39    37   ar
   141    59    60    1
   142    42    40   ar
   143    37    36    1
   144    37    38   ar
   145    36    33    1
   146    60    61    1
   147    40    38   ar
   148    35    34    2
   149    32    33    1
   150    33    34    1
   151    61    62    1
