@<TRIPOS>MOLECULE
tmp/4qt7A00.pdb
 132 133 0 0 0
SMALL
GASTEIGER

@<TRIPOS>ATOM
      1  N          0.7100  -23.5450   -3.4430 N.3     9  TYR9       -0.1227
      2  CA        -0.6210  -24.1570   -3.3490 C.3     9  TYR9        0.1736
      3  C         -1.6840  -23.1100   -3.5830 C.2     9  TYR9        0.2595
      4  O         -1.4750  -21.9360   -3.2740 O.2     9  TYR9       -0.2718
      5  CB        -0.8800  -24.7750   -1.9720 C.3     9  TYR9        0.0548
      6  CG         0.2780  -25.5370   -1.4610 C.ar    9  TYR9       -0.0200
      7  CD1        1.0320  -25.0730   -0.4070 C.ar    9  TYR9       -0.0009
      8  CD2        0.6270  -26.7410   -2.0490 C.ar    9  TYR9       -0.0009
      9  CE1        2.1080  -25.7810    0.0400 C.ar    9  TYR9        0.0417
     10  CE2        1.7040  -27.4430   -1.6130 C.ar    9  TYR9        0.0417
     11  CZ         2.4390  -26.9670   -0.5740 C.ar    9  TYR9        0.1957
     12  OH         3.5420  -27.6820   -0.1460 O.3     9  TYR9       -0.2866
     13  N         -2.8390  -23.5270   -4.0770 N.am   10  ASP10      -0.1960
     14  CA        -3.9940  -22.6210   -4.1290 C.3    10  ASP10       0.1840
     15  C         -4.3860  -22.2280   -2.7090 C.2    10  ASP10       0.2622
     16  O         -4.3990  -23.0770   -1.8230 O.2    10  ASP10      -0.2715
     17  CB        -5.1920  -23.2740   -4.8040 C.3    10  ASP10       0.1450
     18  CG        -4.9620  -23.6120   -6.2670 C.2    10  ASP10       0.3671
     19  OD1       -4.0310  -23.1010   -6.9280 O.co2  10  ASP10      -0.2456
     20  OD2       -5.7560  -24.4290   -6.7620 O.co2  10  ASP10      -0.2456
     21  N         -4.6880  -20.9400   -2.5130 N.am   11  TYR11      -0.1974
     22  CA        -5.2150  -20.4370   -1.2530 C.3    11  TYR11       0.1639
     23  C         -6.4780  -19.6270   -1.4880 C.2    11  TYR11       0.2290
     24  O         -6.4720  -18.6340   -2.2180 O.2    11  TYR11      -0.2864
     25  CB        -4.2040  -19.5610   -0.4980 C.3    11  TYR11       0.0560
     26  CG        -4.7280  -19.1070    0.8470 C.ar   11  TYR11      -0.0198
     27  CD1       -4.9500  -20.0290    1.8690 C.ar   11  TYR11      -0.0009
     28  CD2       -4.9840  -17.7760    1.1050 C.ar   11  TYR11      -0.0009
     29  CE1       -5.4460  -19.6240    3.1060 C.ar   11  TYR11       0.0417
     30  CE2       -5.4690  -17.3650    2.3260 C.ar   11  TYR11       0.0417
     31  CZ        -5.6900  -18.2940    3.3230 C.ar   11  TYR11       0.1957
     32  OH        -6.1750  -17.8800    4.5450 O.3    11  TYR11      -0.2866
     33  N         -9.9480  -16.5770    3.7320 N.3    14  ARG14      -0.1231
     34  CA       -10.7550  -17.0330    4.8530 C.3    14  ARG14       0.1694
     35  C        -11.3710  -15.8880    5.6230 C.2    14  ARG14       0.2592
     36  O        -12.2270  -16.0860    6.4820 O.2    14  ARG14      -0.2718
     37  CB        -9.9040  -17.8680    5.7700 C.3    14  ARG14       0.0321
     38  CG        -9.4920  -19.1270    5.0800 C.3    14  ARG14       0.0489
     39  CD        -8.9610  -20.1160    6.0170 C.3    14  ARG14       0.2205
     40  NE        -8.4440  -21.2280    5.2540 N.pl3  14  ARG14      -0.0865
     41  CZ        -8.0870  -22.3960    5.7650 C.cat  14  ARG14       0.5346
     42  NH1       -8.2190  -22.6410    7.0630 N.pl3  14  ARG14       0.1354
     43  NH2       -7.5900  -23.3160    4.9510 N.pl3  14  ARG14       0.1354
     44  N        -10.8860  -14.6970    5.3230 N.am   15  THR15      -0.1953
     45  CA       -11.4640  -13.4720    5.8030 C.3    15  THR15       0.1897
     46  C        -11.1910  -12.4730    4.6810 C.2    15  THR15       0.2313
     47  O        -10.3160  -12.7190    3.8260 O.2    15  THR15      -0.2863
     48  CB       -10.8600  -13.0570    7.1450 C.3    15  THR15       0.1794
     49  OG1      -11.6030  -11.9650    7.6840 O.3    15  THR15      -0.2208
     50  CG2       -9.4210  -12.6630    6.9910 C.3    15  THR15       0.0378
     51  N         -9.7780   -9.6600    4.2540 N.3    17  THR17      -0.1203
     52  CA        -8.4700   -9.0040    4.1300 C.3    17  THR17       0.1994
     53  C         -7.3730   -9.9810    3.7130 C.2    17  THR17       0.2617
     54  O         -6.2370   -9.5690    3.5160 O.2    17  THR17      -0.2717
     55  CB        -8.0720   -8.3150    5.4450 C.3    17  THR17       0.1784
     56  OG1       -8.1780   -9.2430    6.5260 O.3    17  THR17      -0.2211
     57  CG2       -8.9960   -7.1370    5.6940 C.3    17  THR17       0.0376
     58  N         -7.7260  -11.2590    3.5570 N.am   18  ASP18      -0.1973
     59  CA        -6.8230  -12.2430    2.9460 C.3    18  ASP18       0.1709
     60  C         -6.7460  -11.9930    1.4510 C.2    18  ASP18       0.2293
     61  O         -7.6920  -11.4780    0.8620 O.2    18  ASP18      -0.2864
     62  CB        -7.3060  -13.6760    3.1360 C.3    18  ASP18       0.1436
     63  CG        -6.9980  -14.2620    4.4890 C.2    18  ASP18       0.3671
     64  OD1       -7.4240  -15.4290    4.6760 O.co2  18  ASP18      -0.2456
     65  OD2       -6.3230  -13.6180    5.3200 O.co2  18  ASP18      -0.2456
     66  N          3.5990  -14.5030   10.4300 N.3    36  ASP36      -0.1225
     67  CA         3.1050  -15.6020    9.6060 C.3    36  ASP36       0.1805
     68  C          2.1770  -15.1550    8.4850 C.2    36  ASP36       0.2597
     69  O          1.9200  -15.9280    7.5560 O.2    36  ASP36      -0.2718
     70  CB         2.3450  -16.6160   10.4630 C.3    36  ASP36       0.1424
     71  CG         3.1550  -17.1510   11.6220 C.2    36  ASP36       0.3668
     72  OD1        4.3860  -17.3670   11.4720 O.co2  36  ASP36      -0.2456
     73  OD2        2.5310  -17.3850   12.6910 O.co2  36  ASP36      -0.2456
     74  N          1.6350  -13.9440    8.6050 N.am   37  TRP37      -0.1976
     75  CA         0.7100  -13.3910    7.6070 C.3    37  TRP37       0.1640
     76  C          1.3750  -12.1790    7.0080 C.2    37  TRP37       0.2290
     77  O          1.6850  -11.2280    7.7120 O.2    37  TRP37      -0.2864
     78  CB        -0.6310  -13.0120    8.2170 C.3    37  TRP37       0.0576
     79  CG        -1.3720  -14.1880    8.7020 C.ar   37  TRP37       0.0006
     80  CD1       -1.4120  -14.6410    9.9800 C.ar   37  TRP37       0.0946
     81  CD2       -2.1860  -15.0840    7.9310 C.ar   37  TRP37       0.0152
     82  NE1       -2.1740  -15.7870   10.0570 N.ar   37  TRP37      -0.2442
     83  CE2       -2.6710  -16.0720    8.8150 C.ar   37  TRP37       0.0810
     84  CE3       -2.5440  -15.1530    6.5850 C.ar   37  TRP37       0.0012
     85  CZ2       -3.5090  -17.1030    8.3980 C.ar   37  TRP37       0.0191
     86  CZ3       -3.3780  -16.1820    6.1810 C.ar   37  TRP37       0.0001
     87  CH2       -3.8410  -17.1380    7.0780 C.ar   37  TRP37       0.0015
     88  N         -3.5370  -10.2780    2.7170 N.3    50  TYR50      -0.1241
     89  CA        -2.6400  -11.0970    3.5140 C.3    50  TYR50       0.1605
     90  C         -2.5300  -12.5150    2.9880 C.2    50  TYR50       0.2264
     91  O         -3.5290  -13.1090    2.5750 O.2    50  TYR50      -0.2867
     92  CB        -3.1010  -11.0960    4.9760 C.3    50  TYR50       0.0534
     93  CG        -2.7170   -9.8280    5.7030 C.ar   50  TYR50      -0.0201
     94  CD1       -1.4270   -9.6540    6.1600 C.ar   50  TYR50      -0.0009
     95  CD2       -3.6270   -8.8000    5.8980 C.ar   50  TYR50      -0.0009
     96  CE1       -1.0410   -8.5100    6.8110 C.ar   50  TYR50       0.0417
     97  CE2       -3.2420   -7.6300    6.5660 C.ar   50  TYR50       0.0417
     98  CZ        -1.9510   -7.5070    7.0090 C.ar   50  TYR50       0.1957
     99  OH        -1.5170   -6.3620    7.6450 O.3    50  TYR50      -0.2866
    100  N         -0.6450  -16.5010    3.7840 N.3    52  PRO52      -0.2102
    101  CA        -0.0380  -17.3530    4.8000 C.3    52  PRO52       0.1504
    102  C          1.3750  -17.7420    4.3750 C.2    52  PRO52       0.2576
    103  O          1.5620  -18.2140    3.2570 O.2    52  PRO52      -0.2718
    104  CB        -0.9860  -18.5570    4.8510 C.3    52  PRO52       0.0282
    105  CG        -1.5730  -18.6420    3.4770 C.3    52  PRO52       0.0208
    106  CD        -1.6450  -17.2210    2.9670 C.3    52  PRO52       0.0893
    107  N          2.3680  -17.4810    5.2220 N.am   53  SER53      -0.1938
    108  CA         3.7610  -17.6370    4.8140 C.3    53  SER53       0.2055
    109  C          4.1150  -19.0680    4.4310 C.2    53  SER53       0.2643
    110  O          5.0250  -19.2860    3.6270 O.2    53  SER53      -0.2714
    111  CB         4.7030  -17.1720    5.9250 C.3    53  SER53       0.2130
    112  OG         4.5410  -17.9760    7.0700 O.3    53  SER53      -0.2179
    113  N          3.3860  -20.0500    4.9550 N.am   54  ASN54      -0.1957
    114  CA         3.7400  -21.4310    4.6440 C.3    54  ASN54       0.1819
    115  C          3.2310  -21.8890    3.2720 C.2    54  ASN54       0.2621
    116  O          3.5450  -22.9880    2.8440 O.2    54  ASN54      -0.2715
    117  CB         3.2820  -22.3840    5.7530 C.3    54  ASN54       0.1195
    118  CG         1.8100  -22.3110    6.0550 C.2    54  ASN54       0.2630
    119  OD1        1.1370  -21.3340    5.7390 O.2    54  ASN54      -0.2716
    120  ND2        1.3120  -23.3350    6.7570 N.am   54  ASN54      -0.0877
    121  N          2.4690  -21.0410    2.5720 N.am   55  TYR55      -0.1974
    122  CA         1.9670  -21.3840    1.2470 C.3    55  TYR55       0.1639
    123  C          2.8760  -20.9220    0.1120 C.2    55  TYR55       0.2290
    124  O          2.5660  -21.1910   -1.0340 O.2    55  TYR55      -0.2864
    125  CB         0.5670  -20.7840    1.0450 C.3    55  TYR55       0.0560
    126  CG        -0.5360  -21.6810    1.5800 C.ar   55  TYR55      -0.0198
    127  CD1       -1.5350  -22.1810    0.7420 C.ar   55  TYR55      -0.0009
    128  CD2       -0.5610  -22.0530    2.9070 C.ar   55  TYR55      -0.0009
    129  CE1       -2.5240  -23.0220    1.2270 C.ar   55  TYR55       0.0417
    130  CE2       -1.5350  -22.9120    3.3850 C.ar   55  TYR55       0.0417
    131  CZ        -2.5250  -23.3700    2.5440 C.ar   55  TYR55       0.1957
    132  OH        -3.4830  -24.2320    3.0250 O.3    55  TYR55      -0.2866
@<TRIPOS>BOND
     1    19    18   ar
     2    20    18   ar
     3    18    17    1
     4    17    14    1
     5    14    13    1
     6    14    15    1
     7    13     3   am
     8     3     2    1
     9     3     4    2
    10     1     2    1
    11     2     5    1
    12    15    21   am
    13    15    16    2
    14    21    22    1
    15    24    23    2
    16     8    10   ar
    17     8     6   ar
    18     5     6    1
    19    10    11   ar
    20    23    22    1
    21     6     7   ar
    22    22    25    1
    23   124   123    2
    24    11    12    1
    25    11     9   ar
    26    25    26    1
    27     7     9   ar
    28   123   122    1
    29   127   129   ar
    30   127   126   ar
    31    26    28   ar
    32    26    27   ar
    33    61    60    2
    34   125   122    1
    35   125   126    1
    36    28    30   ar
    37   129   131   ar
    38   122   121    1
    39    60    59    1
    40   126   128   ar
    41    27    29   ar
    42    30    31   ar
    43   131   132    1
    44   131   130   ar
    45   121   115   am
    46    91    90    2
    47    88    89    1
    48   116   115    2
    49   128   130   ar
    50    59    62    1
    51    59    58    1
    52   106   105    1
    53   106   100    1
    54    90    89    1
    55    29    31   ar
    56    62    63    1
    57   103   102    2
    58   115   114    1
    59    31    32    1
    60   105   104    1
    61    89    92    1
    62    54    53    2
    63    58    53   am
    64   110   109    2
    65    53    52    1
    66    33    34    1
    67   100   101    1
    68    47    46    2
    69    52    51    1
    70    52    55    1
    71   102   101    1
    72   102   107   am
    73   109   108    1
    74   109   113   am
    75    63    64   ar
    76    63    65   ar
    77   114   113    1
    78   114   117    1
    79    46    45    1
    80   101   104    1
    81   108   107    1
    82   108   111    1
    83    34    35    1
    84    34    37    1
    85    43    41    1
    86    92    93    1
    87    38    37    1
    88    38    39    1
    89    40    41    2
    90    40    39    1
    91    44    35   am
    92    44    45    1
    93    55    57    1
    94    55    56    1
    95    35    36    2
    96    93    95   ar
    97    93    94   ar
    98   119   118    2
    99   117   118    1
   100    41    42    1
   101    45    48    1
   102    95    97   ar
   103   111   112    1
   104   118   120   am
   105    94    96   ar
   106    86    84   ar
   107    86    87   ar
   108    97    98   ar
   109    84    81   ar
   110    96    98   ar
   111    50    48    1
   112    76    75    1
   113    76    77    2
   114    98    99    1
   115    87    85   ar
   116    48    49    1
   117    69    68    2
   118    75    78    1
   119    75    74    1
   120    81    79   ar
   121    81    83   ar
   122    78    79    1
   123    85    83   ar
   124    68    74   am
   125    68    67    1
   126    79    80   ar
   127    83    82   ar
   128    67    66    1
   129    67    70    1
   130    80    82   ar
   131    70    71    1
   132    72    71   ar
   133    71    73   ar
