@<TRIPOS>MOLECULE
tmp/4qt8A00.pdb
 114 106 0 0 0
SMALL
GASTEIGER

@<TRIPOS>ATOM
      1  N        -60.4260   69.7520  -78.1580 N.3    11  ARG11      -0.1245
      2  CA       -60.3350   70.8660  -77.2300 C.3    11  ARG11       0.1563
      3  C        -58.9490   70.8430  -76.5910 C.2    11  ARG11       0.2260
      4  O        -58.4630   69.7900  -76.1630 O.2    11  ARG11      -0.2867
      5  CB       -61.4420   70.7890  -76.1500 C.3    11  ARG11       0.0307
      6  CG       -61.2140   69.7740  -75.0170 C.3    11  ARG11       0.0489
      7  CD       -62.4660   69.4730  -74.1860 C.3    11  ARG11       0.2205
      8  NE       -63.5600   68.9320  -75.0050 N.pl3  11  ARG11      -0.0865
      9  CZ       -64.6670   68.3450  -74.5370 C.cat  11  ARG11       0.5346
     10  NH1      -64.8600   68.1910  -73.2290 N.pl3  11  ARG11       0.1354
     11  NH2      -65.5890   67.8990  -75.3900 N.pl3  11  ARG11       0.1354
     12  N        -57.8990   73.6240  -73.8400 N.3    13  PHE13      -0.1227
     13  CA       -58.2790   74.8630  -73.1610 C.3    13  PHE13       0.1736
     14  C        -57.1180   75.5080  -72.4120 C.2    13  PHE13       0.2595
     15  O        -57.2850   76.5610  -71.8010 O.2    13  PHE13      -0.2718
     16  CB       -59.4300   74.6090  -72.1920 C.3    13  PHE13       0.0547
     17  CG       -60.7030   74.1550  -72.8520 C.ar   13  PHE13      -0.0202
     18  CD1      -61.1380   74.7160  -74.0510 C.ar   13  PHE13      -0.0042
     19  CD2      -61.4910   73.1840  -72.2550 C.ar   13  PHE13      -0.0042
     20  CE1      -62.3150   74.3010  -74.6430 C.ar   13  PHE13      -0.0003
     21  CE2      -62.6730   72.7730  -72.8390 C.ar   13  PHE13      -0.0003
     22  CZ       -63.0810   73.3320  -74.0360 C.ar   13  PHE13      -0.0000
     23  N        -55.9460   74.8740  -72.4610 N.am   14  ASP14      -0.1974
     24  CA       -54.7260   75.4500  -71.8930 C.3    14  ASP14       0.1709
     25  C        -54.1780   76.6240  -72.7080 C.2    14  ASP14       0.2293
     26  O        -53.2130   77.2690  -72.2800 O.2    14  ASP14      -0.2864
     27  CB       -53.6430   74.3740  -71.7490 C.3    14  ASP14       0.1436
     28  CG       -53.7160   73.5560  -70.5070 C.2    14  ASP14       0.3671
     29  OD1      -54.5230   73.8130  -69.6390 O.co2  14  ASP14      -0.2456
     30  OD2      -52.8280   72.6150  -70.4180 O.co2  14  ASP14      -0.2456
     31  N        -70.6570   70.2700  -65.7290 N.3   413  LEU413     -0.1245
     32  CA       -69.8770   71.3920  -65.2200 C.3   413  LEU413      0.1561
     33  C        -68.6880   70.8270  -64.4370 C.2   413  LEU413      0.2260
     34  O        -67.5290   71.0970  -64.7810 O.2   413  LEU413     -0.2867
     35  CB       -70.7260   72.3260  -64.3510 C.3   413  LEU413      0.0270
     36  CG       -71.4790   73.4030  -65.1310 C.3   413  LEU413      0.0019
     37  CD1      -72.3630   74.2120  -64.1900 C.3   413  LEU413      0.0001
     38  CD2      -70.5350   74.3240  -65.8860 C.3   413  LEU413      0.0001
     39  N        -66.2410   69.9800  -61.0490 N.3   415  PRO415     -0.2102
     40  CA       -65.8020   70.3300  -59.6860 C.3   415  PRO415      0.1504
     41  C        -65.5390   71.8070  -59.3820 C.2   415  PRO415      0.2575
     42  O        -65.7010   72.2150  -58.2280 O.2   415  PRO415     -0.2718
     43  CB       -64.4960   69.5620  -59.5490 C.3   415  PRO415      0.0282
     44  CG       -63.9270   69.6200  -60.9210 C.3   415  PRO415      0.0208
     45  CD       -65.1060   69.5130  -61.8670 C.3   415  PRO415      0.0893
     46  N        -65.1110   72.5910  -60.3740 N.am  416  VAL416     -0.1980
     47  CA       -64.7480   73.9950  -60.1200 C.3   416  VAL416      0.1595
     48  C        -65.9820   74.8940  -60.0790 C.2   416  VAL416      0.2287
     49  O        -66.6420   75.1220  -61.0970 O.2   416  VAL416     -0.2864
     50  CB       -63.7280   74.5280  -61.1410 C.3   416  VAL416      0.0276
     51  CG1      -63.5190   76.0240  -60.9700 C.3   416  VAL416      0.0022
     52  CG2      -62.3950   73.8100  -60.9780 C.3   416  VAL416      0.0022
     53  N        -65.6230   81.2010  -63.2710 N.3   436  THR436     -0.1218
     54  CA       -65.3090   80.2150  -62.2300 C.3   436  THR436      0.1862
     55  C        -64.4840   80.7700  -61.0850 C.2   436  THR436      0.2287
     56  O        -63.8610   81.8180  -61.1990 O.2   436  THR436     -0.2866
     57  CB       -64.3990   79.1310  -62.7930 C.3   436  THR436      0.1770
     58  OG1      -63.2640   79.7710  -63.3940 O.3   436  THR436     -0.2211
     59  CG2      -65.1370   78.2400  -63.8060 C.3   436  THR436      0.0375
     60  N        -61.6970   79.3280  -60.0600 N.3   438  ASP438     -0.1239
     61  CA       -60.2630   79.1440  -60.3230 C.3   438  ASP438      0.1674
     62  C        -59.7150   80.1390  -61.3230 C.2   438  ASP438      0.2266
     63  O        -58.5760   80.0030  -61.7560 O.2   438  ASP438     -0.2867
     64  CB       -59.9180   77.6940  -60.7490 C.3   438  ASP438      0.1410
     65  CG       -60.5310   77.2900  -62.0710 C.2   438  ASP438      0.3668
     66  OD1      -61.3680   78.0350  -62.6190 O.co2 438  ASP438     -0.2456
     67  OD2      -60.1780   76.2000  -62.5560 O.co2 438  ASP438     -0.2456
     68  N        -61.2590   81.7770  -64.4670 N.3   440  ARG440     -0.1245
     69  CA       -61.4430   81.2680  -65.8320 C.3   440  ARG440      0.1563
     70  C        -62.8330   81.5760  -66.3840 C.2   440  ARG440      0.2260
     71  O        -63.8090   81.7470  -65.6310 O.2   440  ARG440     -0.2867
     72  CB       -61.2930   79.7400  -65.8890 C.3   440  ARG440      0.0307
     73  CG       -60.0600   79.1410  -65.2430 C.3   440  ARG440      0.0489
     74  CD       -60.0090   77.6500  -65.5390 C.3   440  ARG440      0.2205
     75  NE       -59.8470   77.4300  -66.9760 N.pl3 440  ARG440     -0.0865
     76  CZ       -58.6880   77.5090  -67.6310 C.cat 440  ARG440      0.5346
     77  NH1      -57.5580   77.7810  -66.9810 N.pl3 440  ARG440      0.1354
     78  NH2      -58.6520   77.3140  -68.9490 N.pl3 440  ARG440      0.1354
     79  N        -65.9480   80.5950  -69.2170 N.3   442  LEU442     -0.1245
     80  CA       -66.5380   79.3940  -69.8160 C.3   442  LEU442      0.1561
     81  C        -67.6930   79.8120  -70.6750 C.2   442  LEU442      0.2260
     82  O        -68.8100   80.0250  -70.1950 O.2   442  LEU442     -0.2867
     83  CB       -67.0530   78.4540  -68.7450 C.3   442  LEU442      0.0270
     84  CG       -66.0540   78.0860  -67.6640 C.3   442  LEU442      0.0019
     85  CD1      -66.7370   77.1340  -66.6960 C.3   442  LEU442      0.0001
     86  CD2      -64.7970   77.4600  -68.2590 C.3   442  LEU442      0.0001
     87  N        -70.5560   69.1790  -72.9500 N.3   453  LEU453     -0.1245
     88  CA       -70.8130   70.6150  -73.1050 C.3   453  LEU453      0.1561
     89  C        -70.3740   71.0890  -74.4910 C.2   453  LEU453      0.2260
     90  O        -69.3300   70.6700  -74.9950 O.2   453  LEU453     -0.2867
     91  CB       -70.0510   71.3980  -72.0270 C.3   453  LEU453      0.0270
     92  CG       -70.4490   71.0570  -70.5880 C.3   453  LEU453      0.0019
     93  CD1      -69.3190   71.2780  -69.5850 C.3   453  LEU453      0.0001
     94  CD2      -71.6750   71.8600  -70.2060 C.3   453  LEU453      0.0001
     95  N        -68.6750   73.5470  -76.0660 N.3   455  TYR455     -0.1241
     96  CA       -67.7350   74.6130  -75.7630 C.3   455  TYR455      0.1605
     97  C        -67.5960   75.6270  -76.8710 C.2   455  TYR455      0.2264
     98  O        -67.5080   75.2600  -78.0390 O.2   455  TYR455     -0.2867
     99  CB       -66.3700   74.0140  -75.4800 C.3   455  TYR455      0.0534
    100  CG       -66.3210   73.3250  -74.1470 C.ar  455  TYR455     -0.0201
    101  CD1      -66.2360   74.0630  -72.9790 C.ar  455  TYR455     -0.0009
    102  CD2      -66.3640   71.9350  -74.0520 C.ar  455  TYR455     -0.0009
    103  CE1      -66.1820   73.4390  -71.7520 C.ar  455  TYR455      0.0417
    104  CE2      -66.3130   71.3020  -72.8250 C.ar  455  TYR455      0.0417
    105  CZ       -66.2190   72.0570  -71.6790 C.ar  455  TYR455      0.1957
    106  OH       -66.1590   71.4290  -70.4590 O.3   455  TYR455     -0.2866
    107  N        -63.1610   78.0690  -73.2040 N.3   458  ASN458     -0.1240
    108  CA       -62.7690   77.8960  -71.8190 C.3   458  ASN458      0.1653
    109  C        -61.3260   78.3800  -71.8140 C.2   458  ASN458      0.2266
    110  O        -60.4820   77.8180  -72.5180 O.2   458  ASN458     -0.2867
    111  CB       -62.9010   76.4180  -71.3930 C.3   458  ASN458      0.1155
    112  CG       -62.2940   76.1170  -70.0210 C.2   458  ASN458      0.2627
    113  OD1      -61.8090   77.0100  -69.3110 O.2   458  ASN458     -0.2716
    114  ND2      -62.3240   74.8440  -69.6330 N.am  458  ASN458     -0.0877
@<TRIPOS>BOND
     1     1     2    1
     2    98    97    2
     3     2     3    1
     4     2     5    1
     5    97    96    1
     6     3     4    2
     7     5     6    1
     8    95    96    1
     9    96    99    1
    10    99   100    1
    11    11     9    1
    12     6     7    1
    13     8     9    2
    14     8     7    1
    15    90    89    2
    16    20    18   ar
    17    20    22   ar
    18     9    10    1
    19    89    88    1
    20   100   102   ar
    21   100   101   ar
    22   102   104   ar
    23    18    17   ar
    24    22    21   ar
    25    12    13    1
    26   107   108    1
    27    13    14    1
    28    13    16    1
    29    88    87    1
    30    88    91    1
    31   101   103   ar
    32    17    19   ar
    33    17    16    1
    34    21    19   ar
    35   104   105   ar
    36    25    26    2
    37    25    24    1
    38   110   109    2
    39    23    14   am
    40    23    24    1
    41    14    15    2
    42    91    92    1
    43    24    27    1
    44   108   109    1
    45   108   111    1
    46   103   105   ar
    47    27    28    1
    48   105   106    1
    49   111   112    1
    50    81    82    2
    51    81    80    1
    52    92    94    1
    53    92    93    1
    54    28    30   ar
    55    28    29   ar
    56   112   114   am
    57   112   113    2
    58    80    79    1
    59    80    83    1
    60    78    76    1
    61    83    84    1
    62    86    84    1
    63    84    85    1
    64    76    77    1
    65    76    75    2
    66    75    74    1
    67    70    69    1
    68    70    71    2
    69    72    69    1
    70    72    73    1
    71    38    36    1
    72    69    68    1
    73    31    32    1
    74    74    73    1
    75    32    33    1
    76    32    35    1
    77    36    35    1
    78    36    37    1
    79    34    33    2
    80    59    57    1
    81    58    57    1
    82    53    54    1
    83    57    54    1
    84    66    65   ar
    85    67    65   ar
    86    54    55    1
    87    65    64    1
    88    45    39    1
    89    45    44    1
    90    63    62    2
    91    62    61    1
    92    56    55    2
    93    50    52    1
    94    50    51    1
    95    50    47    1
    96    49    48    2
    97    39    40    1
    98    44    43    1
    99    64    61    1
   100    46    47    1
   101    46    41   am
   102    61    60    1
   103    47    48    1
   104    40    43    1
   105    40    41    1
   106    41    42    2
