@<TRIPOS>MOLECULE
tmp/4qt8B00.pdb
 111 104 0 0 0
SMALL
GASTEIGER

@<TRIPOS>ATOM
      1  N       -101.8940   81.1470   -1.0470 N.3    13  PHE13      -0.1227
      2  CA      -101.4940   79.9150   -0.3730 C.3    13  PHE13       0.1736
      3  C       -102.6390   79.2900    0.3690 C.2    13  PHE13       0.2595
      4  O       -102.4820   78.2300    0.9730 O.2    13  PHE13      -0.2718
      5  CB      -100.3440   80.1820    0.6030 C.3    13  PHE13       0.0547
      6  CG       -99.0510   80.6410   -0.0620 C.ar   13  PHE13      -0.0202
      7  CD1      -98.6020   80.0680   -1.2640 C.ar   13  PHE13      -0.0042
      8  CD2      -98.2660   81.5860    0.5340 C.ar   13  PHE13      -0.0042
      9  CE1      -97.4160   80.4510   -1.8530 C.ar   13  PHE13      -0.0003
     10  CE2      -97.0770   81.9660   -0.0520 C.ar   13  PHE13      -0.0003
     11  CZ       -96.6570   81.4010   -1.2470 C.ar   13  PHE13      -0.0000
     12  N       -103.8050   79.9290    0.2990 N.am   14  ASP14      -0.1974
     13  CA      -105.0580   79.3720    0.8350 C.3    14  ASP14       0.1709
     14  C       -105.6160   78.2100   -0.0220 C.2    14  ASP14       0.2293
     15  O       -106.5790   77.5630    0.3780 O.2    14  ASP14      -0.2864
     16  CB      -106.1100   80.4930    1.0060 C.3    14  ASP14       0.1436
     17  CG      -105.9270   81.2900    2.3120 C.2    14  ASP14       0.3671
     18  OD1     -104.7850   81.3360    2.8870 O.co2  14  ASP14      -0.2456
     19  OD2     -106.9580   81.8550    2.7710 O.co2  14  ASP14      -0.2456
     20  N        -87.6590   86.8630    7.0930 N.3   412  LEU412     -0.1231
     21  CA       -88.8760   86.7970    6.2950 C.3   412  LEU412      0.1693
     22  C        -89.7440   85.6320    6.7330 C.2   412  LEU412      0.2591
     23  O        -90.9640   85.7510    6.7440 O.2   412  LEU412     -0.2718
     24  CB       -88.5650   86.6290    4.8090 C.3   412  LEU412      0.0284
     25  CG       -87.8960   87.7850    4.0760 C.3   412  LEU412      0.0019
     26  CD1      -87.4800   87.3370    2.6870 C.3   412  LEU412      0.0001
     27  CD2      -88.8190   88.9940    4.0120 C.3   412  LEU412      0.0001
     28  N        -89.1320   84.5030    7.0840 N.am  413  LEU413     -0.1980
     29  CA       -89.9100   83.3760    7.5870 C.3   413  LEU413      0.1596
     30  C        -91.1060   83.9120    8.3740 C.2   413  LEU413      0.2287
     31  O        -92.2680   83.6530    8.0280 O.2   413  LEU413     -0.2864
     32  CB       -89.0480   82.4460    8.4480 C.3   413  LEU413      0.0297
     33  CG       -88.2740   81.3710    7.6730 C.3   413  LEU413      0.0022
     34  CD1      -87.3910   80.5720    8.6090 C.3   413  LEU413      0.0001
     35  CD2      -89.2180   80.4450    6.9240 C.3   413  LEU413      0.0001
     36  N        -93.5670   84.7360   11.7770 N.3   415  PRO415     -0.2102
     37  CA       -93.9910   84.4110   13.1500 C.3   415  PRO415      0.1504
     38  C        -94.2620   82.9590   13.4480 C.2   415  PRO415      0.2575
     39  O        -94.0910   82.5410   14.6040 O.2   415  PRO415     -0.2718
     40  CB       -95.2930   85.1930   13.2990 C.3   415  PRO415      0.0282
     41  CG       -95.8680   85.1520   11.9280 C.3   415  PRO415      0.0208
     42  CD       -94.6940   85.2480   10.9770 C.3   415  PRO415      0.0893
     43  N        -94.6900   82.1860   12.4520 N.am  416  VAL416     -0.1980
     44  CA       -95.0400   80.7730   12.7050 C.3   416  VAL416      0.1595
     45  C        -93.8000   79.8630   12.7470 C.2   416  VAL416      0.2287
     46  O        -93.1280   79.6430   11.7210 O.2   416  VAL416     -0.2864
     47  CB       -96.0620   80.2410   11.6840 C.3   416  VAL416      0.0276
     48  CG1      -96.2580   78.7440   11.8590 C.3   416  VAL416      0.0022
     49  CG2      -97.3930   80.9540   11.8530 C.3   416  VAL416      0.0022
     50  N        -98.0730   75.4580   12.7740 N.3   438  ASP438     -0.1239
     51  CA       -99.5070   75.6320   12.4890 C.3   438  ASP438      0.1674
     52  C       -100.0390   74.6290   11.4670 C.2   438  ASP438      0.2266
     53  O       -101.1790   74.7590   11.0270 O.2   438  ASP438     -0.2867
     54  CB       -99.8610   77.0680   12.0640 C.3   438  ASP438      0.1410
     55  CG       -99.2490   77.4710   10.7390 C.2   438  ASP438      0.3668
     56  OD1      -98.4030   76.7300   10.1960 O.co2 438  ASP438     -0.2456
     57  OD2      -99.5920   78.5630   10.2510 O.co2 438  ASP438     -0.2456
     58  N        -98.4880   72.9830    8.3240 N.3   440  ARG440     -0.1245
     59  CA       -98.3150   73.4910    6.9620 C.3   440  ARG440      0.1563
     60  C        -96.9320   73.1940    6.4130 C.2   440  ARG440      0.2260
     61  O        -95.9560   73.0220    7.1670 O.2   440  ARG440     -0.2867
     62  CB       -98.4630   75.0140    6.9050 C.3   440  ARG440      0.0307
     63  CG       -99.6990   75.6200    7.5460 C.3   440  ARG440      0.0489
     64  CD       -99.7460   77.1170    7.2550 C.3   440  ARG440      0.2205
     65  NE       -99.9060   77.3450    5.8220 N.pl3 440  ARG440     -0.0865
     66  CZ      -101.0670   77.2680    5.1720 C.cat 440  ARG440      0.5346
     67  NH1     -102.1930   76.9820    5.8260 N.pl3 440  ARG440      0.1354
     68  NH2     -101.1090   77.4760    3.8570 N.pl3 440  ARG440      0.1354
     69  N        -93.8140   74.1820    3.5760 N.3   442  LEU442     -0.1245
     70  CA       -93.2290   75.3660    2.9860 C.3   442  LEU442      0.1561
     71  C        -92.0820   74.9440    2.1190 C.2   442  LEU442      0.2260
     72  O        -90.9650   74.7450    2.5970 O.2   442  LEU442     -0.2867
     73  CB       -92.7190   76.3080    4.0590 C.3   442  LEU442      0.0270
     74  CG       -93.7090   76.6750    5.1510 C.3   442  LEU442      0.0019
     75  CD1      -93.0320   77.6370    6.1190 C.3   442  LEU442      0.0001
     76  CD2      -94.9600   77.3090    4.5520 C.3   442  LEU442      0.0001
     77  N        -89.6780   76.0320   -0.6280 N.3   444  VAL444     -0.1245
     78  CA       -89.1480   77.3870   -0.8290 C.3   444  VAL444      0.1561
     79  C        -87.6980   77.2120   -1.2080 C.2   444  VAL444      0.2260
     80  O        -87.0000   76.4460   -0.5390 O.2   444  VAL444     -0.2867
     81  CB       -89.2310   78.1960    0.4870 C.3   444  VAL444      0.0252
     82  CG1      -88.1680   79.2840    0.5500 C.3   444  VAL444      0.0019
     83  CG2      -90.6210   78.7810    0.6690 C.3   444  VAL444      0.0019
     84  N        -89.1920   85.5720   -0.1390 N.3   453  LEU453     -0.1245
     85  CA       -88.9280   84.1360   -0.2880 C.3   453  LEU453      0.1561
     86  C        -89.3650   83.6360   -1.6810 C.2   453  LEU453      0.2260
     87  O        -90.4000   84.0580   -2.2020 O.2   453  LEU453     -0.2867
     88  CB       -89.6990   83.3730    0.7840 C.3   453  LEU453      0.0270
     89  CG       -89.3130   83.7260    2.2130 C.3   453  LEU453      0.0019
     90  CD1      -90.4420   83.5040    3.2150 C.3   453  LEU453      0.0001
     91  CD2      -88.0900   82.9180    2.5970 C.3   453  LEU453      0.0001
     92  N        -91.0660   81.2340   -3.2770 N.3   455  TYR455     -0.1241
     93  CA       -92.0150   80.1690   -2.9860 C.3   455  TYR455      0.1605
     94  C        -92.1290   79.1640   -4.1000 C.2   455  TYR455      0.2264
     95  O        -92.1910   79.5390   -5.2650 O.2   455  TYR455     -0.2867
     96  CB       -93.3690   80.7530   -2.7160 C.3   455  TYR455      0.0534
     97  CG       -93.4200   81.4240   -1.3760 C.ar  455  TYR455     -0.0201
     98  CD1      -93.5410   80.6880   -0.2180 C.ar  455  TYR455     -0.0009
     99  CD2      -93.3630   82.8150   -1.2670 C.ar  455  TYR455     -0.0009
    100  CE1      -93.6080   81.3150    1.0060 C.ar  455  TYR455      0.0417
    101  CE2      -93.4370   83.4450   -0.0410 C.ar  455  TYR455      0.0417
    102  CZ       -93.5540   82.6940    1.0900 C.ar  455  TYR455      0.1957
    103  OH       -93.5990   83.3150    2.3180 O.3   455  TYR455     -0.2866
    104  N        -96.6050   76.6910   -0.3940 N.3   458  ASN458     -0.1240
    105  CA       -96.9940   76.8820    0.9990 C.3   458  ASN458      0.1653
    106  C        -98.4500   76.4230    1.0200 C.2   458  ASN458      0.2266
    107  O        -99.2870   76.9810    0.2980 O.2   458  ASN458     -0.2867
    108  CB       -96.8470   78.3490    1.4310 C.3   458  ASN458      0.1155
    109  CG       -97.4890   78.6630    2.7990 C.2   458  ASN458      0.2627
    110  OD1      -97.9760   77.7680    3.5040 O.2   458  ASN458     -0.2716
    111  ND2      -97.4710   79.9920    3.1750 N.am  458  ASN458     -0.0877
@<TRIPOS>BOND
     1    95    94    2
     2    94    93    1
     3    92    93    1
     4    93    96    1
     5    96    97    1
     6    87    86    2
     7     9     7   ar
     8     9    11   ar
     9    86    85    1
    10    97    99   ar
    11    97    98   ar
    12    99   101   ar
    13     7     6   ar
    14    11    10   ar
    15    79    78    1
    16    79    80    2
    17     1     2    1
    18    78    77    1
    19    78    81    1
    20   104   105    1
    21     2     3    1
    22     2     5    1
    23    85    84    1
    24    85    88    1
    25    98   100   ar
    26     6     8   ar
    27     6     5    1
    28    10     8   ar
    29   101   102   ar
    30    14    15    2
    31    14    13    1
    32   107   106    2
    33    12     3   am
    34    12    13    1
    35     3     4    2
    36    81    82    1
    37    81    83    1
    38    88    89    1
    39    13    16    1
    40   105   106    1
    41   105   108    1
    42   100   102   ar
    43    16    17    1
    44   102   103    1
    45   108   109    1
    46    71    72    2
    47    71    70    1
    48    89    91    1
    49    89    90    1
    50    17    19   ar
    51    17    18   ar
    52    26    25    1
    53   109   111   am
    54   109   110    2
    55    70    69    1
    56    70    73    1
    57    68    66    1
    58    27    25    1
    59    73    74    1
    60    25    24    1
    61    76    74    1
    62    24    21    1
    63    74    75    1
    64    66    65    2
    65    66    67    1
    66    65    64    1
    67    21    22    1
    68    21    20    1
    69    60    59    1
    70    60    61    2
    71    22    23    2
    72    22    28   am
    73    62    59    1
    74    62    63    1
    75    35    33    1
    76    59    58    1
    77    28    29    1
    78    64    63    1
    79    29    30    1
    80    29    32    1
    81    33    32    1
    82    33    34    1
    83    31    30    2
    84    56    55   ar
    85    57    55   ar
    86    55    54    1
    87    42    36    1
    88    42    41    1
    89    53    52    2
    90    52    51    1
    91    47    49    1
    92    47    48    1
    93    47    44    1
    94    46    45    2
    95    36    37    1
    96    41    40    1
    97    54    51    1
    98    43    44    1
    99    43    38   am
   100    51    50    1
   101    44    45    1
   102    37    40    1
   103    37    38    1
   104    38    39    2
