@<TRIPOS>MOLECULE
tmp/4qt9B00.pdb
 136 131 0 0 0
SMALL
GASTEIGER

@<TRIPOS>ATOM
      1  N        116.6390   12.0030   88.6570 N.3    29  GLU29      -0.1245
      2  CA       115.5250   11.6930   89.5500 C.3    29  GLU29       0.1567
      3  C        115.8220   12.2330   90.9770 C.2    29  GLU29       0.2260
      4  O        114.9860   12.9200   91.5750 O.2    29  GLU29      -0.2867
      5  CB       115.2830   10.1690   89.5760 C.3    29  GLU29       0.0388
      6  CG       114.1790    9.7230   90.5450 C.3    29  GLU29       0.1160
      7  CD       112.7820   10.2610   90.2710 C.2    29  GLU29       0.3649
      8  OE1      112.3200   10.1570   89.1110 O.co2  29  GLU29      -0.2457
      9  OE2      112.1410   10.7750   91.2160 O.co2  29  GLU29      -0.2457
     10  N        108.9850    7.4780   81.8790 N.3    92  HIS92      -0.1241
     11  CA       109.2410    8.1340   83.1540 C.3    92  HIS92       0.1621
     12  C        110.7820    8.4320   83.3240 C.2    92  HIS92       0.2264
     13  O        111.1820    9.5490   83.6820 O.2    92  HIS92      -0.2867
     14  CB       108.7570    7.2000   84.2650 C.3    92  HIS92       0.0745
     15  CG       108.6570    7.8420   85.6090 C.ar   92  HIS92       0.0817
     16  ND1      107.5580    7.6360   86.4010 N.ar   92  HIS92      -0.2268
     17  CD2      109.5100    8.6690   86.2500 C.ar   92  HIS92       0.1154
     18  CE1      107.7610    8.3470   87.4900 C.ar   92  HIS92       0.1986
     19  NE2      108.9200    8.9820   87.4480 N.ar   92  HIS92      -0.2212
     20  N        110.4410    1.9040   85.0950 N.3   104  PHE104     -0.1241
     21  CA       110.1000    2.4590   86.4120 C.3   104  PHE104      0.1605
     22  C        109.4390    1.3930   87.3080 C.2   104  PHE104      0.2264
     23  O        109.3710    1.5630   88.5240 O.2   104  PHE104     -0.2867
     24  CB       109.2080    3.7070   86.2640 C.3   104  PHE104      0.0534
     25  CG       108.8090    4.3800   87.5610 C.ar  104  PHE104     -0.0203
     26  CD1      109.7540    5.0190   88.3530 C.ar  104  PHE104     -0.0042
     27  CD2      107.4820    4.4020   87.9720 C.ar  104  PHE104     -0.0042
     28  CE1      109.3890    5.6310   89.5570 C.ar  104  PHE104     -0.0003
     29  CE2      107.1080    5.0530   89.1520 C.ar  104  PHE104     -0.0003
     30  CZ       108.0670    5.6600   89.9380 C.ar  104  PHE104     -0.0000
     31  N        104.9570    6.9580   79.3610 N.3   112  ASP112     -0.1239
     32  CA       104.2690    7.4590   80.5680 C.3   112  ASP112      0.1674
     33  C        103.7130    8.8130   80.1480 C.2   112  ASP112      0.2266
     34  O        104.4960    9.7660   79.9690 O.2   112  ASP112     -0.2867
     35  CB       105.2870    7.5620   81.7450 C.3   112  ASP112      0.1410
     36  CG       104.6540    8.0330   83.0330 C.2   112  ASP112      0.3668
     37  OD1      103.7650    8.9430   82.9770 O.co2 112  ASP112     -0.2456
     38  OD2      105.0150    7.4920   84.0920 O.co2 112  ASP112     -0.2456
     39  N        101.6070   10.9780   81.5940 N.3   114  VAL114     -0.1231
     40  CA       101.5490   11.9950   82.6460 C.3   114  VAL114      0.1692
     41  C        102.8940   12.7070   82.7210 C.2   114  VAL114      0.2591
     42  O        102.9480   13.9240   82.7360 O.2   114  VAL114     -0.2718
     43  CB       101.1630   11.3460   83.9840 C.3   114  VAL114      0.0266
     44  CG1      101.2770   12.3390   85.1290 C.3   114  VAL114      0.0020
     45  CG2       99.7610   10.7680   83.9040 C.3   114  VAL114      0.0020
     46  N        103.9680   11.9470   82.7440 N.am  115  GLU115     -0.1979
     47  CA       105.3240   12.4660   82.7630 C.3   115  GLU115      0.1602
     48  C        105.6330   13.2530   81.4670 C.2   115  GLU115      0.2287
     49  O        106.2710   14.3090   81.5280 O.2   115  GLU115     -0.2864
     50  CB       106.2930   11.2970   82.9490 C.3   115  GLU115      0.0415
     51  CG       106.3390   10.8150   84.3880 C.3   115  GLU115      0.1163
     52  CD       107.2970   11.6150   85.2440 C.2   115  GLU115      0.3649
     53  OE1      108.5280   11.4200   85.1050 O.co2 115  GLU115     -0.2457
     54  OE2      106.8170   12.4650   86.0260 O.co2 115  GLU115     -0.2457
     55  N        104.0630   16.7690   81.7870 N.3   118  PHE118     -0.1241
     56  CA       104.8530   17.6620   82.6340 C.3   118  PHE118      0.1605
     57  C        106.0840   18.1690   81.8650 C.2   118  PHE118      0.2264
     58  O        106.4360   19.3440   81.9700 O.2   118  PHE118     -0.2867
     59  CB       105.2300   16.9940   83.9700 C.3   118  PHE118      0.0534
     60  CG       104.0110   16.7080   84.8470 C.ar  118  PHE118     -0.0203
     61  CD1      102.9870   17.6380   84.9720 C.ar  118  PHE118     -0.0042
     62  CD2      103.8760   15.4930   85.5020 C.ar  118  PHE118     -0.0042
     63  CE1      101.8550   17.3560   85.7420 C.ar  118  PHE118     -0.0003
     64  CE2      102.7400   15.2120   86.2750 C.ar  118  PHE118     -0.0003
     65  CZ       101.7360   16.1410   86.3850 C.ar  118  PHE118     -0.0000
     66  N         97.5100    6.0160   81.1990 N.3   165  TRP165     -0.1241
     67  CA        98.7680    6.5150   81.7160 C.3   165  TRP165      0.1605
     68  C         99.9640    5.9500   80.9370 C.2   165  TRP165      0.2264
     69  O        100.9040    6.6910   80.6030 O.2   165  TRP165     -0.2867
     70  CB        98.8720    6.1460   83.2160 C.3   165  TRP165      0.0550
     71  CG        99.8720    6.9480   83.9990 C.ar  165  TRP165      0.0003
     72  CD1      101.1880    7.1500   83.6950 C.ar  165  TRP165      0.0946
     73  CD2       99.6600    7.5480   85.2870 C.ar  165  TRP165      0.0152
     74  NE1      101.7890    7.8990   84.6730 N.ar  165  TRP165     -0.2442
     75  CE2      100.8880    8.1170   85.6890 C.ar  165  TRP165      0.0810
     76  CE3       98.5570    7.6350   86.1550 C.ar  165  TRP165      0.0012
     77  CZ2      101.0180    8.8430   86.8860 C.ar  165  TRP165      0.0191
     78  CZ3       98.6680    8.3800   87.3090 C.ar  165  TRP165      0.0001
     79  CH2       99.8860    8.9750   87.6710 C.ar  165  TRP165      0.0015
     80  N         96.7490   14.8470   90.1680 N.3   183  GLU183     -0.1245
     81  CA        97.7810   15.7660   89.6410 C.3   183  GLU183      0.1567
     82  C         97.8560   15.8480   88.0850 C.2   183  GLU183      0.2260
     83  O         98.6560   16.6440   87.5770 O.2   183  GLU183     -0.2867
     84  CB        99.1520   15.3220   90.1760 C.3   183  GLU183      0.0388
     85  CG        99.7020   14.0660   89.5130 C.3   183  GLU183      0.1160
     86  CD        99.3220   12.7230   90.1090 C.2   183  GLU183      0.3649
     87  OE1       98.1630   12.5530   90.5470 O.co2 183  GLU183     -0.2457
     88  OE2      100.1910   11.8230   90.1140 O.co2 183  GLU183     -0.2457
     89  N        101.0150   18.2890   96.2790 N.3   236  PHE236     -0.1241
     90  CA       101.5540   18.4520   94.9090 C.3   236  PHE236      0.1605
     91  C        100.4350   18.4020   93.8310 C.2   236  PHE236      0.2264
     92  O        100.6240   18.9330   92.7400 O.2   236  PHE236     -0.2867
     93  CB       102.6650   17.4470   94.5920 C.3   236  PHE236      0.0534
     94  CG       102.2510   16.0450   94.2080 C.ar  236  PHE236     -0.0203
     95  CD1      102.0810   15.0600   95.1800 C.ar  236  PHE236     -0.0042
     96  CD2      102.0390   15.7020   92.8690 C.ar  236  PHE236     -0.0042
     97  CE1      101.7400   13.7530   94.8150 C.ar  236  PHE236     -0.0003
     98  CE2      101.7230   14.3950   92.5090 C.ar  236  PHE236     -0.0003
     99  CZ       101.5540   13.4360   93.4800 C.ar  236  PHE236     -0.0000
    100  N        101.5290   20.7440   90.3250 N.3   240  TYR240     -0.1241
    101  CA       102.1530   20.2670   89.0610 C.3   240  TYR240      0.1605
    102  C        101.4300   20.7570   87.7830 C.2   240  TYR240      0.2264
    103  O        102.0930   21.2510   86.8620 O.2   240  TYR240     -0.2867
    104  CB       102.2260   18.7310   89.0210 C.3   240  TYR240      0.0534
    105  CG       103.2170   18.0350   89.9300 C.ar  240  TYR240     -0.0201
    106  CD1      103.9160   18.7390   90.9150 C.ar  240  TYR240     -0.0009
    107  CD2      103.4820   16.6720   89.7910 C.ar  240  TYR240     -0.0009
    108  CE1      104.8270   18.0990   91.7480 C.ar  240  TYR240      0.0417
    109  CE2      104.4280   16.0360   90.5910 C.ar  240  TYR240      0.0417
    110  CZ       105.0550   16.7400   91.6010 C.ar  240  TYR240      0.1957
    111  OH       105.9140   16.0810   92.4420 O.3   240  TYR240     -0.2866
    112  N        103.8030   13.8340   98.9020 N.3   291  ALA291     -0.1245
    113  CA       104.6450   12.6930   98.5160 C.3   291  ALA291      0.1562
    114  C        106.1400   13.1040   98.5050 C.2   291  ALA291      0.2260
    115  O        106.4780   14.1660   97.9750 O.2   291  ALA291     -0.2867
    116  CB       104.2290   12.1830   97.1390 C.3   291  ALA291      0.0290
    117  N        109.9660    6.0420  101.1370 N.3   298  TYR298     -0.1241
    118  CA       109.2350    7.0000  100.3080 C.3   298  TYR298      0.1605
    119  C        107.7810    6.8030  100.5850 C.2   298  TYR298      0.2264
    120  O        107.3480    5.6530  100.7030 O.2   298  TYR298     -0.2867
    121  CB       109.5500    6.8230   98.7990 C.3   298  TYR298      0.0534
    122  CG       108.9350    7.8950   97.9240 C.ar  298  TYR298     -0.0201
    123  CD1      107.6290    7.7770   97.4520 C.ar  298  TYR298     -0.0009
    124  CD2      109.6500    9.0350   97.5800 C.ar  298  TYR298     -0.0009
    125  CE1      107.0340    8.7930   96.6970 C.ar  298  TYR298      0.0417
    126  CE2      109.0850   10.0290   96.7730 C.ar  298  TYR298      0.0417
    127  CZ       107.7670    9.9150   96.3580 C.ar  298  TYR298      0.1957
    128  OH       107.2020   10.9000   95.5790 O.3   298  TYR298     -0.2866
    129  N        111.3840   16.3980   91.2460 N.3   364  ILE364     -0.1245
    130  CA       109.9370   16.7120   91.3010 C.3   364  ILE364      0.1561
    131  C        109.5480   17.5290   92.5600 C.2   364  ILE364      0.2260
    132  O        108.4620   18.0880   92.6130 O.2   364  ILE364     -0.2867
    133  CB       109.0290   15.4480   91.1440 C.3   364  ILE364      0.0252
    134  CG1      109.2380   14.4010   92.2740 C.3   364  ILE364      0.0019
    135  CG2      109.1640   14.8270   89.7270 C.3   364  ILE364      0.0019
    136  CD1      108.2650   13.1770   92.1970 C.3   364  ILE364      0.0001
@<TRIPOS>BOND
     1    31    32    1
     2    34    33    2
     3    33    32    1
     4    32    35    1
     5    69    68    2
     6    68    67    1
     7    66    67    1
     8    48    49    2
     9    48    47    1
    10    39    40    1
    11    67    70    1
    12    35    36    1
    13    55    56    1
    14    57    58    2
    15    57    56    1
    16    10    11    1
    17    56    59    1
    18    40    41    1
    19    40    43    1
    20    41    42    2
    21    41    46   am
    22    46    47    1
    23    47    50    1
    24    50    51    1
    25    37    36   ar
    26    36    38   ar
    27    11    12    1
    28    11    14    1
    29    70    71    1
    30    12    13    2
    31    72    71   ar
    32    72    74   ar
    33    45    43    1
    34    59    60    1
    35    43    44    1
    36    71    73   ar
    37    14    15    1
    38    51    52    1
    39    74    75   ar
    40    60    61   ar
    41    60    62   ar
    42    61    63   ar
    43    20    21    1
    44    53    52   ar
    45    52    54   ar
    46    73    75   ar
    47    73    76   ar
    48    62    64   ar
    49    15    17   ar
    50    15    16   ar
    51    75    77   ar
    52    63    65   ar
    53    76    78   ar
    54    17    19   ar
    55    24    21    1
    56    24    25    1
    57    64    65   ar
    58    16    18   ar
    59    21    22    1
    60   103   102    2
    61    77    79   ar
    62    22    23    2
    63    78    79   ar
    64    19    18   ar
    65    25    27   ar
    66    25    26   ar
    67    83    82    2
    68   102   101    1
    69    27    29   ar
    70    82    81    1
    71    26    28   ar
    72     1     2    1
    73   104   101    1
    74   104   105    1
    75   101   100    1
    76     8     7   ar
    77    29    30   ar
    78    85    86    1
    79    85    84    1
    80     2     5    1
    81     2     3    1
    82    28    30   ar
    83     5     6    1
    84    81    80    1
    85    81    84    1
    86   135   133    1
    87   107   105   ar
    88   107   109   ar
    89   105   106   ar
    90    86    88   ar
    91    86    87   ar
    92     7     6    1
    93     7     9   ar
    94   109   110   ar
    95   106   108   ar
    96     3     4    2
    97   133   130    1
    98   133   134    1
    99   129   130    1
   100   130   131    1
   101   110   108   ar
   102   110   111    1
   103   136   134    1
   104    98    96   ar
   105    98    99   ar
   106   131   132    2
   107    92    91    2
   108    96    94   ar
   109    99    97   ar
   110    91    90    1
   111    94    93    1
   112    94    95   ar
   113    93    90    1
   114    97    95   ar
   115    90    89    1
   116   128   127    1
   117   127   125   ar
   118   127   126   ar
   119   125   123   ar
   120   126   124   ar
   121   116   113    1
   122   123   122   ar
   123   124   122   ar
   124   122   121    1
   125   115   114    2
   126   114   113    1
   127   113   112    1
   128   121   118    1
   129   118   119    1
   130   118   117    1
   131   119   120    2
