@<TRIPOS>MOLECULE
tmp/4qtcA01.pdb
 206 196 0 0 0
SMALL
GASTEIGER

@<TRIPOS>ATOM
      1  N         57.5050   26.6590   12.6850 N.3    22  ILE22      -0.1231
      2  CA        58.1970   27.5400   13.6470 C.3    22  ILE22       0.1692
      3  C         58.7650   28.8100   13.0340 C.2    22  ILE22       0.2593
      4  O         59.2220   29.6900   13.7590 O.2    22  ILE22      -0.2718
      5  CB        59.3010   26.8080   14.4390 C.3    22  ILE22       0.0266
      6  CG1       60.4020   26.3030   13.5050 C.3    22  ILE22       0.0019
      7  CG2       58.7120   25.6840   15.2670 C.3    22  ILE22       0.0020
      8  CD1       61.6810   25.8860   14.2200 C.3    22  ILE22       0.0001
      9  N         58.8200   28.9390   11.7120 N.am   23  GLY23      -0.1942
     10  CA        59.4080   30.1190   11.1280 C.3    23  GLY23       0.2014
     11  C         59.1000   30.2330    9.6730 C.2    23  GLY23       0.2638
     12  O         58.5320   29.3010    9.0860 O.2    23  GLY23      -0.2714
     13  N         59.5090   31.3490    9.0840 N.am   24  GLU24      -0.1977
     14  CA        59.1730   31.6550    7.6900 C.3    24  GLU24       0.1602
     15  C         60.0090   32.7990    7.2340 C.2    24  GLU24       0.2287
     16  O         60.5990   33.5490    8.0640 O.2    24  GLU24      -0.2864
     17  CB        57.7040   32.0110    7.5080 C.3    24  GLU24       0.0415
     18  CG        57.3020   33.3350    8.1560 C.3    24  GLU24       0.1163
     19  CD        55.8690   33.6750    7.9590 C.2    24  GLU24       0.3649
     20  OE1       54.9960   32.8290    7.8580 O.co2  24  GLU24      -0.2457
     21  OE2       55.5930   34.9290    7.8860 O.co2  24  GLU24      -0.2457
     22  N         61.9060   33.2770    1.5700 N.3    27  PHE27      -0.1241
     23  CA        62.4230   32.0330    1.0530 C.3    27  PHE27       0.1605
     24  C         61.4730   30.8430    1.1310 C.2    27  PHE27       0.2264
     25  O         61.6620   29.8820    0.4170 O.2    27  PHE27      -0.2867
     26  CB        63.7000   31.5760    1.8500 C.3    27  PHE27       0.0534
     27  CG        63.4360   31.3290    3.3420 C.ar   27  PHE27      -0.0203
     28  CD1       62.8830   30.1330    3.7880 C.ar   27  PHE27      -0.0042
     29  CD2       63.8090   32.2710    4.3070 C.ar   27  PHE27      -0.0042
     30  CE1       62.5660   29.9350    5.1120 C.ar   27  PHE27      -0.0003
     31  CE2       63.5350   32.0580    5.6500 C.ar   27  PHE27      -0.0003
     32  CZ        62.9060   30.8800    6.0500 C.ar   27  PHE27      -0.0000
     33  N         59.7480   27.0810    7.6290 N.3    30  VAL30      -0.1245
     34  CA        60.5440   26.2940    8.5440 C.3    30  VAL30       0.1561
     35  C         59.6720   25.5310    9.4800 C.2    30  VAL30       0.2260
     36  O         58.8170   26.1250   10.1550 O.2    30  VAL30      -0.2867
     37  CB        61.5270   27.1720    9.3610 C.3    30  VAL30       0.0252
     38  CG1       62.4550   26.2850   10.1630 C.3    30  VAL30       0.0019
     39  CG2       62.3520   28.0380    8.4160 C.3    30  VAL30       0.0019
     40  N         64.9860   21.0060   12.6010 N.3    41  ALA41      -0.1245
     41  CA        64.3180   22.0890   11.9000 C.3    41  ALA41       0.1562
     42  C         64.4970   21.8990   10.4410 C.2    41  ALA41       0.2260
     43  O         65.6070   21.6570    9.9430 O.2    41  ALA41      -0.2867
     44  CB        64.9330   23.4070   12.3380 C.3    41  ALA41       0.0290
     45  N         63.9510   23.4610    6.6870 N.3    43  LYS43      -0.1245
     46  CA        63.7450   24.6760    5.8890 C.3    43  LYS43       0.1561
     47  C         63.4880   24.2670    4.4720 C.2    43  LYS43       0.2260
     48  O         64.2600   23.5160    3.8760 O.2    43  LYS43      -0.2867
     49  CB        64.9840   25.5600    5.9840 C.3    43  LYS43       0.0271
     50  CG        64.9170   26.8730    5.1970 C.3    43  LYS43       0.0035
     51  CD        66.1800   27.7340    5.3540 C.3    43  LYS43       0.0206
     52  CE        66.0050   29.0710    4.6950 C.3    43  LYS43       0.1093
     53  NZ        67.2840   29.8310    4.7470 N.3    43  LYS43      -0.1314
     54  N         74.7060   26.9590   13.1160 N.3    89  ILE89      -0.1245
     55  CA        73.6700   25.8670   13.1560 C.3    89  ILE89       0.1561
     56  C         74.1600   24.6100   12.4380 C.2    89  ILE89       0.2260
     57  O         74.7250   24.6630   11.3390 O.2    89  ILE89      -0.2867
     58  CB        72.3830   26.4200   12.5450 C.3    89  ILE89       0.0252
     59  CG1       71.1720   25.5240   12.8920 C.3    89  ILE89       0.0019
     60  CG2       72.4480   26.7080   11.0730 C.3    89  ILE89       0.0019
     61  CD1       70.7830   25.4430   14.3400 C.3    89  ILE89       0.0001
     62  N         49.7190   27.6050   12.1770 N.3   112  TYR112     -0.1227
     63  CA        50.5340   28.7620   12.4430 C.3   112  TYR112      0.1736
     64  C         49.8590   30.0930   11.9970 C.2   112  TYR112      0.2595
     65  O         49.9180   31.1230   12.7160 O.2   112  TYR112     -0.2718
     66  CB        51.9030   28.5600   11.7530 C.3   112  TYR112      0.0548
     67  CG        52.9420   29.6200   11.9750 C.ar  112  TYR112     -0.0200
     68  CD1       52.9190   30.8260   11.2930 C.ar  112  TYR112     -0.0009
     69  CD2       53.9980   29.3920   12.8440 C.ar  112  TYR112     -0.0009
     70  CE1       53.8880   31.8020   11.4940 C.ar  112  TYR112      0.0417
     71  CE2       54.9590   30.3340   13.0360 C.ar  112  TYR112      0.0417
     72  CZ        54.9340   31.5200   12.3510 C.ar  112  TYR112      0.1957
     73  OH        55.9250   32.4470   12.5720 O.3   112  TYR112     -0.2866
     74  N         49.2760   30.0830   10.8230 N.am  113  ASN113     -0.1974
     75  CA        48.6230   31.2910   10.3160 C.3   113  ASN113      0.1688
     76  C         47.5200   31.7300   11.2940 C.2   113  ASN113      0.2292
     77  O         47.3800   32.9290   11.5260 O.2   113  ASN113     -0.2864
     78  CB        48.0710   31.0590    8.9210 C.3   113  ASN113      0.1181
     79  CG        47.6520   32.3540    8.2210 C.2   113  ASN113      0.2629
     80  OD1       48.2900   33.3730    8.3440 O.2   113  ASN113     -0.2716
     81  ND2       46.6280   32.2530    7.4080 N.am  113  ASN113     -0.0877
     82  N         49.6470   32.6510   14.9880 N.3   116  LYS116     -0.1231
     83  CA        50.6950   33.6610   14.9480 C.3   116  LYS116      0.1693
     84  C         50.5770   34.6030   13.7770 C.2   116  LYS116      0.2593
     85  O         51.1500   35.6880   13.8100 O.2   116  LYS116     -0.2718
     86  CB        52.0670   32.9990   14.9070 C.3   116  LYS116      0.0285
     87  CG        52.1980   31.8860   15.9400 C.3   116  LYS116      0.0035
     88  CD        53.6360   31.6020   16.3180 C.3   116  LYS116      0.0206
     89  CE        53.7120   30.6940   17.5430 C.3   116  LYS116      0.1093
     90  NZ        54.8970   31.0150   18.3820 N.3   116  LYS116     -0.1314
     91  N         49.8590   34.1970   12.7340 N.am  117  GLY117     -0.1942
     92  CA        49.7540   35.0040   11.5290 C.3   117  GLY117      0.2014
     93  C         50.9780   34.7680   10.6370 C.2   117  GLY117      0.2640
     94  O         52.0420   34.4190   11.1250 O.2   117  GLY117     -0.2714
     95  N         50.8390   35.0120    9.3460 N.am  118  SER118     -0.1935
     96  CA        51.9400   34.7930    8.3970 C.3   118  SER118      0.2055
     97  C         51.9850   35.8890    7.3760 C.2   118  SER118      0.2642
     98  O         50.9120   36.3630    6.9500 O.2   118  SER118     -0.2714
     99  CB        51.7130   33.4570    7.6570 C.3   118  SER118      0.2130
    100  OG        52.7150   33.2670    6.6520 O.3   118  SER118     -0.2179
    101  N         53.1810   36.2390    6.9310 N.am  119  ALA119     -0.1977
    102  CA        53.4040   37.1490    5.8330 C.3   119  ALA119      0.1597
    103  C         53.4220   36.4510    4.4940 C.2   119  ALA119      0.2287
    104  O         53.5060   37.0930    3.4580 O.2   119  ALA119     -0.2864
    105  CB        54.6970   37.9160    6.0310 C.3   119  ALA119      0.0319
    106  N         68.2420   20.9780    9.6010 N.3   137  PHE137     -0.1227
    107  CA        69.1790   21.4930   10.5890 C.3   137  PHE137      0.1736
    108  C         68.9290   20.8640   11.9100 C.2   137  PHE137      0.2595
    109  O         67.8220   20.4400   12.2570 O.2   137  PHE137     -0.2718
    110  CB        68.9750   23.0030   10.7580 C.3   137  PHE137      0.0547
    111  CG        69.2970   23.8060    9.5150 C.ar  137  PHE137     -0.0202
    112  CD1       70.6140   24.1580    9.2420 C.ar  137  PHE137     -0.0042
    113  CD2       68.3200   24.2360    8.6480 C.ar  137  PHE137     -0.0042
    114  CE1       70.9170   24.9100    8.1440 C.ar  137  PHE137     -0.0003
    115  CE2       68.6300   24.9920    7.5220 C.ar  137  PHE137     -0.0003
    116  CZ        69.9280   25.3270    7.2830 C.ar  137  PHE137     -0.0000
    117  N         69.9610   20.8760   12.7510 N.am  138  GLU138     -0.1965
    118  CA        69.7200   20.7130   14.1860 C.3   138  GLU138      0.1733
    119  C         68.7210   21.7550   14.6600 C.2   138  GLU138      0.2616
    120  O         68.6300   22.8460   14.0730 O.2   138  GLU138     -0.2715
    121  CB        71.0010   20.8860   15.0060 C.3   138  GLU138      0.0429
    122  CG        71.6510   22.2150   14.9990 C.3   138  GLU138      0.1163
    123  CD        72.9250   22.2800   15.9010 C.2   138  GLU138      0.3649
    124  OE1       73.1840   21.3510   16.7140 O.co2 138  GLU138     -0.2457
    125  OE2       73.6370   23.2590   15.8070 O.co2 138  GLU138     -0.2457
    126  N         67.9260   21.4350   15.6710 N.am  139  PHE139     -0.1960
    127  CA        67.0650   22.4340   16.2670 C.3   139  PHE139      0.1771
    128  C         67.9260   23.3320   17.1520 C.2   139  PHE139      0.2620
    129  O         68.6000   22.8660   18.0330 O.2   139  PHE139     -0.2715
    130  CB        65.9640   21.7970   17.0580 C.3   139  PHE139      0.0574
    131  CG        65.0350   22.7950   17.7010 C.ar  139  PHE139     -0.0200
    132  CD1       64.3180   23.7090   16.9590 C.ar  139  PHE139     -0.0042
    133  CD2       65.0340   22.9020   19.0690 C.ar  139  PHE139     -0.0042
    134  CE1       63.5080   24.6590   17.5940 C.ar  139  PHE139     -0.0003
    135  CE2       64.1960   23.8080   19.6900 C.ar  139  PHE139     -0.0003
    136  CZ        63.4730   24.6770   18.9630 C.ar  139  PHE139     -0.0000
    137  N         67.8670   24.6210   16.8400 N.am  140  GLY140     -0.1940
    138  CA        68.7220   25.6310   17.5170 C.3   140  GLY140      0.2014
    139  C         68.0300   26.4140   18.5650 C.2   140  GLY140      0.2639
    140  O         68.7110   27.1960   19.2710 O.2   140  GLY140     -0.2714
    141  N         66.7330   26.2700   18.7380 N.am  141  GLY141     -0.1954
    142  CA        66.0120   27.1100   19.7000 C.3   141  GLY141      0.1869
    143  C         65.2860   28.2530   19.1010 C.2   141  GLY141      0.2309
    144  O         64.7410   28.1930   18.0180 O.2   141  GLY141     -0.2863
    145  N         64.9730   32.6700   18.6650 N.3   143  ASP143     -0.1239
    146  CA        65.8390   33.7970   18.3870 C.3   143  ASP143      0.1674
    147  C         65.8860   34.8210   19.5210 C.2   143  ASP143      0.2266
    148  O         64.9530   34.9390   20.3280 O.2   143  ASP143     -0.2867
    149  CB        65.4630   34.4530   17.0590 C.3   143  ASP143      0.1410
    150  CG        64.0440   34.8760   17.0290 C.2   143  ASP143      0.3668
    151  OD1       63.1910   33.9760   16.8740 O.co2 143  ASP143     -0.2456
    152  OD2       63.7720   36.0670   17.3020 O.co2 143  ASP143     -0.2456
    153  N         65.6450   38.0150   19.4730 N.3   145  GLU145     -0.1231
    154  CA        64.5420   38.9850   19.4540 C.3   145  GLU145      0.1699
    155  C         63.3260   38.4460   20.2140 C.2   145  GLU145      0.2592
    156  O         62.7360   39.1790   21.0680 O.2   145  GLU145     -0.2718
    157  CB        64.1920   39.3270   18.0160 C.3   145  GLU145      0.0402
    158  CG        63.0440   40.3190   17.9210 C.3   145  GLU145      0.1161
    159  CD        62.7540   40.7690   16.4940 C.2   145  GLU145      0.3649
    160  OE1       63.1370   40.0870   15.5000 O.co2 145  GLU145     -0.2457
    161  OE2       62.1120   41.8440   16.3700 O.co2 145  GLU145     -0.2457
    162  N         62.9270   37.2110   19.9480 N.am  146  GLN146     -0.1979
    163  CA        61.7970   36.6250   20.6700 C.3   146  GLN146      0.1601
    164  C         62.0620   36.4080   22.1290 C.2   146  GLN146      0.2287
    165  O         61.1050   36.3380   22.9300 O.2   146  GLN146     -0.2864
    166  CB        61.3550   35.3370   20.0400 C.3   146  GLN146      0.0394
    167  CG        60.7270   35.5460   18.6780 C.3   146  GLN146      0.0908
    168  CD        59.9540   34.3410   18.2030 C.2   146  GLN146      0.2608
    169  OE1       58.7830   34.1520   18.5970 O.2   146  GLN146     -0.2717
    170  NE2       60.5550   33.5520   17.3420 N.am  146  GLN146     -0.0878
    171  N         67.2640   38.4650   14.9940 N.3   185  GLY185     -0.1210
    172  CA        66.4880   37.3100   14.6050 C.3   185  GLY185      0.1956
    173  C         67.3240   36.0940   14.1860 C.2   185  GLY185      0.2611
    174  O         66.8210   34.9870   14.0620 O.2   185  GLY185     -0.2717
    175  N         68.6280   36.3110   13.9920 N.am  186  ASN186     -0.1974
    176  CA        69.5220   35.2940   13.4400 C.3   186  ASN186      0.1688
    177  C         70.4590   34.7100   14.4840 C.2   186  ASN186      0.2292
    178  O         71.4270   33.9980   14.1210 O.2   186  ASN186     -0.2864
    179  CB        70.2890   35.8660   12.2680 C.3   186  ASN186      0.1181
    180  CG        69.4290   35.9760   11.0300 C.2   186  ASN186      0.2629
    181  OD1       68.3880   35.2800   10.9430 O.2   186  ASN186     -0.2716
    182  ND2       69.8200   36.8470   10.0840 N.am  186  ASN186     -0.0877
    183  N         70.1290   32.2230   17.5240 N.3   188  LEU188     -0.1245
    184  CA        69.2510   31.2820   18.2130 C.3   188  LEU188      0.1561
    185  C         69.8140   30.8270   19.5200 C.2   188  LEU188      0.2260
    186  O         71.0460   30.6860   19.6870 O.2   188  LEU188     -0.2867
    187  CB        68.9650   30.0380   17.3660 C.3   188  LEU188      0.0270
    188  CG        68.3680   30.2420   16.0110 C.3   188  LEU188      0.0019
    189  CD1       68.1120   28.8550   15.4430 C.3   188  LEU188      0.0001
    190  CD2       67.0940   31.0580   16.0930 C.3   188  LEU188      0.0001
    191  N         72.3790   31.5800   12.4820 N.3   218  ILE218     -0.1231
    192  CA        71.6870   31.1590   11.2600 C.3   218  ILE218      0.1692
    193  C         71.7040   32.2500   10.2090 C.2   218  ILE218      0.2592
    194  O         72.0960   33.3790   10.4990 O.2   218  ILE218     -0.2718
    195  CB        70.2340   30.7250   11.5690 C.3   218  ILE218      0.0266
    196  CG1       69.3710   31.8760   12.1090 C.3   218  ILE218      0.0019
    197  CG2       70.2140   29.5740   12.5070 C.3   218  ILE218      0.0020
    198  CD1       67.8770   31.5420   12.0880 C.3   218  ILE218      0.0001
    199  N         71.1960   31.8950    9.0110 N.am  219  ASP219     -0.1974
    200  CA        70.8240   32.8260    7.8970 C.3   219  ASP219      0.1709
    201  C         72.0280   33.4130    7.1980 C.2   219  ASP219      0.2293
    202  O         72.5360   34.4810    7.5550 O.2   219  ASP219     -0.2864
    203  CB        69.8650   33.9340    8.3340 C.3   219  ASP219      0.1436
    204  CG        69.4130   34.8250    7.1600 C.2   219  ASP219      0.3671
    205  OD1       69.7010   34.4620    6.0080 O.co2 219  ASP219     -0.2456
    206  OD2       68.7970   35.8940    7.4330 O.co2 219  ASP219     -0.2456
@<TRIPOS>BOND
     1    25    24    2
     2    23    24    1
     3    23    22    1
     4    23    26    1
     5    26    27    1
     6    27    28   ar
     7    27    29   ar
     8   104   103    2
     9    28    30   ar
    10    48    47    2
    11    29    31   ar
    12    47    46    1
    13   103   102    1
    14    52    53    1
    15    52    51    1
    16    30    32   ar
    17    50    51    1
    18    50    49    1
    19    31    32   ar
    20   102   105    1
    21   102   101    1
    22    46    49    1
    23    46    45    1
    24   205   204   ar
    25   100    99    1
    26   101    97   am
    27    98    97    2
    28   204   206   ar
    29   204   203    1
    30   201   202    2
    31   201   200    1
    32    15    14    1
    33    15    16    2
    34   116   115   ar
    35   116   114   ar
    36    97    96    1
    37    81    79   am
    38    17    14    1
    39    17    18    1
    40   115   113   ar
    41    33    34    1
    42    99    96    1
    43    14    13    1
    44    20    19   ar
    45    21    19   ar
    46   200   203    1
    47   200   199    1
    48    19    18    1
    49   114   112   ar
    50    79    80    2
    51    79    78    1
    52    96    95    1
    53    39    37    1
    54    34    37    1
    55    34    35    1
    56   113   111   ar
    57    78    75    1
    58   199   193   am
    59    13    11   am
    60    12    11    2
    61   112   111   ar
    62    95    93   am
    63    37    38    1
    64    35    36    2
    65   111   110    1
    66   106   107    1
    67    11    10    1
    68    43    42    2
    69   182   180   am
    70   193   194    2
    71   193   192    1
    72    75    74    1
    73    75    76    1
    74    42    41    1
    75   107   110    1
    76   107   108    1
    77    93    94    2
    78    93    92    1
    79    74    64   am
    80   181   180    2
    81   180   179    1
    82    60    58    1
    83    10     9    1
    84   192   195    1
    85   192   191    1
    86    68    70   ar
    87    68    67   ar
    88    76    77    2
    89    57    56    2
    90    70    72   ar
    91    92    91    1
    92   195   196    1
    93   195   197    1
    94     9     3   am
    95    66    67    1
    96    66    63    1
    97    41    44    1
    98    41    40    1
    99   108   109    2
   100   108   117   am
   101    67    69   ar
   102    64    63    1
   103    64    65    2
   104   198   196    1
   105    62    63    1
   106   179   176    1
   107    72    73    1
   108    72    71   ar
   109    56    55    1
   110    58    59    1
   111    58    55    1
   112     1     2    1
   113    91    84   am
   114   117   118    1
   115    69    71   ar
   116    59    61    1
   117     3     2    1
   118     3     4    2
   119    54    55    1
   120   176   175    1
   121   176   177    1
   122     6     8    1
   123     6     5    1
   124     2     5    1
   125    84    85    2
   126    84    83    1
   127   175   173   am
   128   174   173    2
   129   120   119    2
   130   178   177    2
   131   118   119    1
   132   118   121    1
   133   173   172    1
   134     5     7    1
   135   172   171    1
   136   119   126   am
   137    86    83    1
   138    86    87    1
   139    83    82    1
   140   122   121    1
   141   122   123    1
   142   189   188    1
   143   160   159   ar
   144   126   127    1
   145   125   123   ar
   146   123   124   ar
   147    87    88    1
   148   188   190    1
   149   188   187    1
   150   127   130    1
   151   127   128    1
   152    88    89    1
   153   161   159   ar
   154   159   158    1
   155   137   128   am
   156   137   138    1
   157   151   150   ar
   158   132   134   ar
   159   132   131   ar
   160   150   149    1
   161   150   152   ar
   162   130   131    1
   163   149   146    1
   164   128   129    2
   165   170   168   am
   166   187   184    1
   167   138   139    1
   168   183   184    1
   169    89    90    1
   170   134   136   ar
   171   131   133   ar
   172   158   157    1
   173   157   154    1
   174   144   143    2
   175   168   169    2
   176   168   167    1
   177   184   185    1
   178   146   145    1
   179   146   147    1
   180   139   141   am
   181   139   140    2
   182   167   166    1
   183   141   142    1
   184   136   135   ar
   185   133   135   ar
   186   143   142    1
   187   154   153    1
   188   154   155    1
   189   185   186    2
   190   147   148    2
   191   162   155   am
   192   162   163    1
   193   166   163    1
   194   155   156    2
   195   163   164    1
   196   164   165    2
