@<TRIPOS>MOLECULE
tmp/4qtdA02.pdb
 103 98 0 0 0
SMALL
GASTEIGER

@<TRIPOS>ATOM
      1  N         27.9000   13.4000   32.9870 N.3    29  SER29      -0.1202
      2  CA        27.8930   14.7250   33.5010 C.3    29  SER29       0.2020
      3  C         27.7810   15.6650   32.3580 C.2    29  SER29       0.2619
      4  O         28.0700   15.3050   31.2070 O.2    29  SER29      -0.2717
      5  CB        29.1570   15.0420   34.3330 C.3    29  SER29       0.2103
      6  OG        30.3430   14.8940   33.5760 O.3    29  SER29      -0.2182
      7  N         27.3160   16.8520   32.6700 N.am   30  GLY30      -0.1942
      8  CA        27.0920   17.8570   31.6440 C.3    30  GLY30       0.2014
      9  C         26.9620   19.1790   32.3270 C.2    30  GLY30       0.2639
     10  O         27.1490   19.2800   33.5380 O.2    30  GLY30      -0.2714
     11  N         26.6370   20.1960   31.5470 N.am   31  ALA31      -0.1963
     12  CA        26.4610   21.5450   32.0410 C.3    31  ALA31       0.1728
     13  C         25.5420   21.6220   33.2230 C.2    31  ALA31       0.2616
     14  O         25.7520   22.4390   34.1240 O.2    31  ALA31      -0.2715
     15  CB        25.9410   22.4420   30.9110 C.3    31  ALA31       0.0334
     16  N         24.5380   20.7490   33.2490 N.am   32  GLN32      -0.1963
     17  CA        23.5090   20.8180   34.2710 C.3    32  GLN32       0.1733
     18  C         23.8620   20.0870   35.5700 C.2    32  GLN32       0.2616
     19  O         23.2910   20.3870   36.6310 O.2    32  GLN32      -0.2715
     20  CB        22.2030   20.2690   33.7280 C.3    32  GLN32       0.0408
     21  CG        21.0300   20.6680   34.5850 C.3    32  GLN32       0.0908
     22  CD        19.7560   19.9870   34.1920 C.2    32  GLN32       0.2608
     23  OE1       19.7710   18.8610   33.6620 O.2    32  GLN32      -0.2717
     24  NE2       18.6270   20.6470   34.4670 N.am   32  GLN32      -0.0878
     25  N         24.8000   19.1550   35.5110 N.am   33  GLY33      -0.1955
     26  CA        25.2480   18.4610   36.7200 C.3    33  GLY33       0.1869
     27  C         25.6840   17.0430   36.4410 C.2    33  GLY33       0.2309
     28  O         25.6860   16.6020   35.2880 O.2    33  GLY33      -0.2863
     29  N         15.5110   26.1370   33.3410 N.3    64  ARG64      -0.1245
     30  CA        15.5700   24.7370   32.9560 C.3    64  ARG64       0.1563
     31  C         15.2880   23.8470   34.1430 C.2    64  ARG64       0.2260
     32  O         14.5090   22.9240   34.0480 O.2    64  ARG64      -0.2867
     33  CB        16.8980   24.3490   32.3050 C.3    64  ARG64       0.0307
     34  CG        16.9560   22.8580   31.9790 C.3    64  ARG64       0.0489
     35  CD        18.1990   22.4270   31.2220 C.3    64  ARG64       0.2205
     36  NE        18.2430   22.9560   29.8510 N.pl3  64  ARG64      -0.0865
     37  CZ        17.7590   22.3550   28.7520 C.cat  64  ARG64       0.5346
     38  NH1       17.1640   21.1620   28.7970 N.pl3  64  ARG64       0.1354
     39  NH2       17.8970   22.9630   27.5910 N.pl3  64  ARG64       0.1354
     40  N         18.6030   15.4080   20.8950 N.3   148  LYS148     -0.1245
     41  CA        19.9250   14.9580   20.4860 C.3   148  LYS148      0.1561
     42  C         20.2360   13.6200   21.1300 C.2   148  LYS148      0.2260
     43  O         19.6800   13.3080   22.1690 O.2   148  LYS148     -0.2867
     44  CB        20.9640   16.0190   20.8590 C.3   148  LYS148      0.0271
     45  CG        21.1860   16.2280   22.3360 C.3   148  LYS148      0.0035
     46  CD        22.0280   17.4970   22.6230 C.3   148  LYS148      0.0206
     47  CE        21.1560   18.7470   22.5310 C.3   148  LYS148      0.1093
     48  NZ        21.8820   20.0420   22.7640 N.3   148  LYS148     -0.1314
     49  N         22.6250   12.4040   22.8870 N.3   150  SER150     -0.1202
     50  CA        23.1680   12.3410   24.2360 C.3   150  SER150      0.2020
     51  C         22.1140   12.4480   25.2660 C.2   150  SER150      0.2618
     52  O         22.3460   12.0810   26.4340 O.2   150  SER150     -0.2717
     53  CB        24.2150   13.4340   24.5040 C.3   150  SER150      0.2103
     54  OG        23.7050   14.7290   24.2550 O.3   150  SER150     -0.2182
     55  N         20.9500   12.9920   24.9150 N.am  151  ASN151     -0.1974
     56  CA        19.9110   13.1240   25.8950 C.3   151  ASN151      0.1688
     57  C         18.7170   12.1430   25.6120 C.2   151  ASN151      0.2292
     58  O         17.5310   12.4010   25.9020 O.2   151  ASN151     -0.2864
     59  CB        19.5260   14.6130   26.0230 C.3   151  ASN151      0.1181
     60  CG        20.6520   15.5320   26.6620 C.2   151  ASN151      0.2629
     61  OD1       21.8690   15.1760   26.9130 O.2   151  ASN151     -0.2716
     62  ND2       20.2080   16.7650   26.9490 N.am  151  ASN151     -0.0877
     63  N         15.1280   15.0950   28.4140 N.3   164  ASP164     -0.1239
     64  CA        14.9810   16.5350   28.6540 C.3   164  ASP164      0.1674
     65  C         13.7930   17.0700   27.8900 C.2   164  ASP164      0.2266
     66  O         13.2040   16.3710   27.0390 O.2   164  ASP164     -0.2867
     67  CB        16.2750   17.2920   28.2790 C.3   164  ASP164      0.1410
     68  CG        16.4590   17.4590   26.7920 C.2   164  ASP164      0.3668
     69  OD1       16.2900   16.4550   26.0150 O.co2 164  ASP164     -0.2456
     70  OD2       16.8400   18.5830   26.3930 O.co2 164  ASP164     -0.2456
     71  N         31.6620   23.7640   29.3690 N.3   177  TYR177     -0.1227
     72  CA        30.7270   22.9200   28.6450 C.3   177  TYR177      0.1736
     73  C         30.2640   23.5750   27.3480 C.2   177  TYR177      0.2595
     74  O         30.1480   24.7920   27.2520 O.2   177  TYR177     -0.2718
     75  CB        29.5640   22.5210   29.5490 C.3   177  TYR177      0.0548
     76  CG        29.9900   21.4710   30.5500 C.ar  177  TYR177     -0.0200
     77  CD1       30.2440   20.1690   30.1330 C.ar  177  TYR177     -0.0009
     78  CD2       30.1980   21.7860   31.8950 C.ar  177  TYR177     -0.0009
     79  CE1       30.6580   19.1980   31.0190 C.ar  177  TYR177      0.0417
     80  CE2       30.6090   20.8150   32.7980 C.ar  177  TYR177      0.0417
     81  CZ        30.8380   19.5190   32.3470 C.ar  177  TYR177      0.1957
     82  OH        31.2390   18.5190   33.2010 O.3   177  TYR177     -0.2866
     83  N         30.0910   22.7500   26.3260 N.am  178  VAL178     -0.1966
     84  CA        29.7500   23.2310   25.0000 C.3   178  VAL178      0.1727
     85  C         28.3790   22.6640   24.6340 C.2   178  VAL178      0.2616
     86  O         28.0780   21.5120   24.9420 O.2   178  VAL178     -0.2715
     87  CB        30.8280   22.8130   23.9820 C.3   178  VAL178      0.0290
     88  CG1       30.3790   23.1180   22.5520 C.3   178  VAL178      0.0023
     89  CG2       32.1440   23.5250   24.3090 C.3   178  VAL178      0.0023
     90  N         27.5370   23.5010   24.0370 N.am  179  VAL179     -0.1963
     91  CA        26.2050   23.0790   23.6390 C.3   179  VAL179      0.1727
     92  C         26.3490   22.3350   22.3370 C.2   179  VAL179      0.2616
     93  O         27.0410   22.7870   21.4380 O.2   179  VAL179     -0.2715
     94  CB        25.2430   24.2660   23.3980 C.3   179  VAL179      0.0290
     95  CG1       23.8350   23.7460   23.0800 C.3   179  VAL179      0.0023
     96  CG2       25.2140   25.2150   24.6010 C.3   179  VAL179      0.0023
     97  N         25.7230   21.1700   22.2530 N.am  180  THR180     -0.1951
     98  CA        25.7410   20.4130   20.9780 C.3   180  THR180      0.1897
     99  C         24.6350   20.9550   20.0670 C.2   180  THR180      0.2313
    100  O         23.4750   20.8660   20.4030 O.2   180  THR180     -0.2863
    101  CB        25.5290   18.9360   21.2690 C.3   180  THR180      0.1794
    102  OG1       26.6240   18.4350   22.0580 O.3   180  THR180     -0.2208
    103  CG2       25.4410   18.1520   19.9840 C.3   180  THR180      0.0378
@<TRIPOS>BOND
     1   103   101    1
     2    99   100    2
     3    99    98    1
     4    41    44    1
     5    41    40    1
     6    41    42    1
     7    44    45    1
     8    98   101    1
     9    98    97    1
    10    42    43    2
    11   101   102    1
    12    93    92    2
    13    97    92   am
    14    45    46    1
    15    92    91    1
    16    47    46    1
    17    47    48    1
    18    88    87    1
    19    49    50    1
    20    95    94    1
    21    94    91    1
    22    94    96    1
    23    91    90    1
    24    87    89    1
    25    87    84    1
    26    90    85   am
    27    50    53    1
    28    50    51    1
    29    54    53    1
    30    85    86    2
    31    85    84    1
    32    55    51   am
    33    55    56    1
    34    84    83    1
    35    51    52    2
    36    57    56    1
    37    57    58    2
    38    56    59    1
    39    69    68   ar
    40    59    60    1
    41    83    73   am
    42    70    68   ar
    43    60    61    2
    44    60    62   am
    45    68    67    1
    46    66    65    2
    47    74    73    2
    48    73    72    1
    49    39    37    1
    50    65    64    1
    51    67    64    1
    52    63    64    1
    53    72    71    1
    54    72    75    1
    55    37    38    1
    56    37    36    2
    57    75    76    1
    58    36    35    1
    59    77    76   ar
    60    77    79   ar
    61    76    78   ar
    62    15    12    1
    63    79    81   ar
    64     4     3    2
    65    35    34    1
    66    11    12    1
    67    11     9   am
    68     8     9    1
    69     8     7    1
    70    78    80   ar
    71    34    33    1
    72    12    13    1
    73    33    30    1
    74     9    10    2
    75    81    80   ar
    76    81    82    1
    77     3     7   am
    78     3     2    1
    79    30    29    1
    80    30    31    1
    81     1     2    1
    82    13    16   am
    83    13    14    2
    84    16    17    1
    85     2     5    1
    86     6     5    1
    87    23    22    2
    88    20    17    1
    89    20    21    1
    90    32    31    2
    91    22    24   am
    92    22    21    1
    93    17    18    1
    94    28    27    2
    95    25    18   am
    96    25    26    1
    97    18    19    2
    98    27    26    1
