@<TRIPOS>MOLECULE
tmp/4qtdA00.pdb
 87 84 0 0 0
SMALL
GASTEIGER

@<TRIPOS>ATOM
      1  N          7.6580   25.5860   13.9800 N.3   195  LYS195     -0.1231
      2  CA         6.4540   24.8920   14.3700 C.3   195  LYS195      0.1693
      3  C          6.8480   23.4810   14.8650 C.2   195  LYS195      0.2592
      4  O          8.0310   23.2040   15.0730 O.2   195  LYS195     -0.2718
      5  CB         5.4500   24.8470   13.2310 C.3   195  LYS195      0.0285
      6  CG         4.9080   26.2360   12.8970 C.3   195  LYS195      0.0035
      7  CD         4.0490   26.2130   11.6280 C.3   195  LYS195      0.0206
      8  CE         3.2330   27.4870   11.4600 C.3   195  LYS195      0.1093
      9  NZ         2.2630   27.3530   10.3180 N.3   195  LYS195     -0.1314
     10  N          5.8570   22.6470   15.1030 N.am  196  GLU196     -0.1966
     11  CA         6.0610   21.3240   15.7350 C.3   196  GLU196      0.1733
     12  C          7.0900   20.4830   15.0040 C.2   196  GLU196      0.2616
     13  O          7.9130   19.7940   15.6180 O.2   196  GLU196     -0.2715
     14  CB         4.7090   20.5650   15.8250 C.3   196  GLU196      0.0429
     15  CG         3.8770   20.9930   17.0300 C.3   196  GLU196      0.1163
     16  CD         3.0860   22.2380   16.8280 C.2   196  GLU196      0.3649
     17  OE1        3.2290   22.9530   15.7980 O.co2 196  GLU196     -0.2457
     18  OE2        2.2910   22.5320   17.7820 O.co2 196  GLU196     -0.2457
     19  N          7.0660   20.5330   13.6810 N.am  197  ASN197     -0.1972
     20  CA         7.9990   19.6960   12.9210 C.3   197  ASN197      0.1688
     21  C          9.4560   20.1210   12.8820 C.2   197  ASN197      0.2292
     22  O         10.2760   19.4510   12.2590 O.2   197  ASN197     -0.2864
     23  CB         7.4620   19.3700   11.5310 C.3   197  ASN197      0.1181
     24  CG         7.6090   20.4990   10.5640 C.2   197  ASN197      0.2629
     25  OD1        7.9800   21.6060   10.8960 O.2   197  ASN197     -0.2716
     26  ND2        7.2850   20.2030    9.3260 N.am  197  ASN197     -0.0877
     27  N         10.7310   23.6820    6.2570 N.3   298  ALA298     -0.1231
     28  CA         9.8440   23.0210    7.1970 C.3   298  ALA298      0.1694
     29  C          8.4430   22.8900    6.6930 C.2   298  ALA298      0.2593
     30  O          7.7520   21.9390    7.0350 O.2   298  ALA298     -0.2718
     31  CB         9.8600   23.7260    8.5260 C.3   298  ALA298      0.0304
     32  N          8.0370   23.7810    5.7880 N.am  299  SER299     -0.1938
     33  CA         6.6930   23.6330    5.2250 C.3   299  SER299      0.2055
     34  C          6.5130   22.3440    4.4450 C.2   299  SER299      0.2643
     35  O          5.3680   21.8740    4.3130 O.2   299  SER299     -0.2714
     36  CB         6.2950   24.8490    4.3950 C.3   299  SER299      0.2130
     37  OG         6.9320   24.8520    3.1700 O.3   299  SER299     -0.2179
     38  N          7.6050   21.7580    3.9600 N.am  300  LYS300     -0.1963
     39  CA         7.5960   20.5350    3.1840 C.3   300  LYS300      0.1728
     40  C          8.0690   19.2920    3.9360 C.2   300  LYS300      0.2616
     41  O          8.1210   18.2010    3.3590 O.2   300  LYS300     -0.2715
     42  CB         8.4290   20.7230    1.9090 C.3   300  LYS300      0.0311
     43  CG         7.8540   21.8420    1.0800 C.3   300  LYS300      0.0038
     44  CD         8.6600   22.1310   -0.1620 C.3   300  LYS300      0.0206
     45  CE         8.1780   23.4400   -0.7810 C.3   300  LYS300      0.1093
     46  NZ         8.9870   23.7910   -1.9790 N.3   300  LYS300     -0.1314
     47  N          8.4490   19.4780    5.1870 N.am  301  ARG301     -0.1963
     48  CA         8.9680   18.3900    6.0080 C.3   301  ARG301      0.1729
     49  C          7.8370   17.6320    6.7090 C.2   301  ARG301      0.2616
     50  O          6.8110   18.1970    7.0770 O.2   301  ARG301     -0.2715
     51  CB         9.8760   18.9960    7.0600 C.3   301  ARG301      0.0348
     52  CG        10.6610   17.9670    7.8940 C.3   301  ARG301      0.0492
     53  CD        11.4000   18.6680    9.0040 C.3   301  ARG301      0.2205
     54  NE        12.2870   19.7400    8.5580 N.pl3 301  ARG301     -0.0865
     55  CZ        12.4640   20.9150    9.1650 C.cat 301  ARG301      0.5346
     56  NH1       11.9290   21.1570   10.3580 N.pl3 301  ARG301      0.1354
     57  NH2       13.2070   21.8370    8.5930 N.pl3 301  ARG301      0.1354
     58  N          8.0650   16.3290    6.8630 N.am  302  ILE302     -0.1963
     59  CA         7.1350   15.4190    7.5020 C.3   302  ILE302      0.1727
     60  C          6.7220   15.9190    8.8900 C.2   302  ILE302      0.2617
     61  O          7.5340   16.5170    9.6170 O.2   302  ILE302     -0.2715
     62  CB         7.7490   13.9950    7.5210 C.3   302  ILE302      0.0290
     63  CG1        6.7090   12.9230    7.7500 C.3   302  ILE302      0.0022
     64  CG2        8.8760   13.8660    8.5330 C.3   302  ILE302      0.0023
     65  CD1        7.2480   11.5340    7.4900 C.3   302  ILE302      0.0001
     66  N          5.4650   15.6740    9.2360 N.am  303  SER303     -0.1936
     67  CA         4.9590   15.9090   10.6090 C.3   303  SER303      0.2055
     68  C          5.1530   14.6910   11.4860 C.2   303  SER303      0.2642
     69  O          5.4170   13.5630   11.0000 O.2   303  SER303     -0.2714
     70  CB         3.5010   16.2340   10.6000 C.3   303  SER303      0.2130
     71  OG         2.7480   15.1180   10.1790 O.3   303  SER303     -0.2179
     72  N          4.9950   14.8530   12.8030 N.am  304  VAL304     -0.1977
     73  CA         5.1030   13.6820   13.6960 C.3   304  VAL304      0.1596
     74  C          4.0670   12.6180   13.3770 C.2   304  VAL304      0.2287
     75  O          4.3720   11.4430   13.4230 O.2   304  VAL304     -0.2864
     76  CB         5.0140   14.0180   15.2140 C.3   304  VAL304      0.0276
     77  CG1        5.9380   15.1410   15.5830 C.3   304  VAL304      0.0022
     78  CG2        3.6010   14.2570   15.7160 C.3   304  VAL304      0.0022
     79  N          2.4610   12.1240   10.4370 N.3   306  GLU306     -0.1245
     80  CA         2.8070   11.4320    9.2020 C.3   306  GLU306      0.1567
     81  C          3.9460   10.4360    9.4010 C.2   306  GLU306      0.2260
     82  O          3.9300    9.3150    8.8240 O.2   306  GLU306     -0.2867
     83  CB         3.2200   12.4600    8.1480 C.3   306  GLU306      0.0388
     84  CG         2.0930   13.3130    7.5860 C.3   306  GLU306      0.1160
     85  CD         2.5990   14.5310    6.8280 C.2   306  GLU306      0.3649
     86  OE1        3.8280   14.7980    6.7460 O.co2 306  GLU306     -0.2457
     87  OE2        1.7150   15.1660    6.1870 O.co2 306  GLU306     -0.2457
@<TRIPOS>BOND
     1    46    45    1
     2    45    44    1
     3    44    43    1
     4    43    42    1
     5    42    39    1
     6    37    36    1
     7    39    40    1
     8    39    38    1
     9    41    40    2
    10    40    47   am
    11    38    34   am
    12    35    34    2
    13    36    33    1
    14    34    33    1
    15    47    48    1
    16    33    32    1
    17    32    29   am
    18    48    49    1
    19    48    51    1
    20    87    85   ar
    21    27    28    1
    22    29    30    2
    23    29    28    1
    24    49    58   am
    25    49    50    2
    26    86    85   ar
    27    85    84    1
    28    58    59    1
    29    51    52    1
    30    28    31    1
    31    65    63    1
    32    59    62    1
    33    59    60    1
    34    62    63    1
    35    62    64    1
    36    84    83    1
    37    52    53    1
    38    83    80    1
    39    54    53    1
    40    54    55    2
    41    57    55    1
    42    82    81    2
    43    60    66   am
    44    60    61    2
    45    55    56    1
    46    80    81    1
    47    80    79    1
    48    66    67    1
    49    26    24   am
    50    71    70    1
    51     9     8    1
    52    24    25    2
    53    24    23    1
    54    70    67    1
    55    67    68    1
    56    69    68    2
    57     8     7    1
    58    68    72   am
    59    23    20    1
    60     7     6    1
    61    22    21    2
    62    72    73    1
    63    21    20    1
    64     6     5    1
    65    20    19    1
    66     5     2    1
    67    74    75    2
    68    74    73    1
    69    19    12   am
    70    73    76    1
    71     1     2    1
    72     2     3    1
    73     3     4    2
    74     3    10   am
    75    12    13    2
    76    12    11    1
    77    10    11    1
    78    76    77    1
    79    76    78    1
    80    11    14    1
    81    17    16   ar
    82    14    15    1
    83    16    15    1
    84    16    18   ar
