@<TRIPOS>MOLECULE
tmp/4qtdA01.pdb
 171 159 0 0 0
SMALL
GASTEIGER

@<TRIPOS>ATOM
      1  N         27.7120    8.1210   36.0410 N.3    27  ILE27      -0.1231
      2  CA        27.4030    7.6120   34.6940 C.3    27  ILE27       0.1692
      3  C         27.3520    8.7030   33.6440 C.2    27  ILE27       0.2593
      4  O         27.3400    8.3770   32.4630 O.2    27  ILE27      -0.2718
      5  CB        26.1140    6.7640   34.6540 C.3    27  ILE27       0.0266
      6  CG1       24.9270    7.5880   35.1140 C.3    27  ILE27       0.0019
      7  CG2       26.2320    5.5180   35.5290 C.3    27  ILE27       0.0020
      8  CD1       23.6100    6.8300   35.0770 C.3    27  ILE27       0.0001
      9  N         27.3430    9.9750   34.0260 N.am   28  GLY28      -0.1942
     10  CA        27.3730   11.0600   33.0460 C.3    28  GLY28       0.2014
     11  C         27.4520   12.3940   33.7270 C.2    28  GLY28       0.2640
     12  O         27.1930   12.5140   34.9170 O.2    28  GLY28      -0.2714
     13  N         27.9000   13.4000   32.9870 N.am   29  SER29      -0.1935
     14  CA        27.8930   14.7250   33.5010 C.3    29  SER29       0.2055
     15  C         27.7810   15.6650   32.3580 C.2    29  SER29       0.2643
     16  O         28.0700   15.3050   31.2070 O.2    29  SER29      -0.2714
     17  CB        29.1570   15.0420   34.3330 C.3    29  SER29       0.2130
     18  OG        30.3430   14.8940   33.5760 O.3    29  SER29      -0.2179
     19  N         27.3160   16.8520   32.6700 N.am   30  GLY30      -0.1954
     20  CA        27.0920   17.8570   31.6440 C.3    30  GLY30       0.1869
     21  C         26.9620   19.1790   32.3270 C.2    30  GLY30       0.2309
     22  O         27.1490   19.2800   33.5380 O.2    30  GLY30      -0.2863
     23  N         24.5380   20.7490   33.2490 N.3    32  GLN32      -0.1231
     24  CA        23.5090   20.8180   34.2710 C.3    32  GLN32       0.1698
     25  C         23.8620   20.0870   35.5700 C.2    32  GLN32       0.2592
     26  O         23.2910   20.3870   36.6310 O.2    32  GLN32      -0.2718
     27  CB        22.2030   20.2690   33.7280 C.3    32  GLN32       0.0381
     28  CG        21.0300   20.6680   34.5850 C.3    32  GLN32       0.0905
     29  CD        19.7560   19.9870   34.1920 C.2    32  GLN32       0.2608
     30  OE1       19.7710   18.8610   33.6620 O.2    32  GLN32      -0.2717
     31  NE2       18.6270   20.6470   34.4670 N.am   32  GLN32      -0.0878
     32  N         24.8000   19.1550   35.5110 N.am   33  GLY33      -0.1957
     33  CA        25.2480   18.4610   36.7200 C.3    33  GLY33       0.1869
     34  C         25.6840   17.0430   36.4410 C.2    33  GLY33       0.2309
     35  O         25.6860   16.6020   35.2880 O.2    33  GLY33      -0.2863
     36  N         25.3780   12.9280   37.0170 N.3    35  VAL35      -0.1245
     37  CA        24.3420   11.9020   37.2120 C.3    35  VAL35       0.1561
     38  C         25.0600   10.6230   37.6670 C.2    35  VAL35       0.2260
     39  O         26.0740   10.2060   37.0830 O.2    35  VAL35      -0.2867
     40  CB        23.5520   11.6260   35.9400 C.3    35  VAL35       0.0252
     41  CG1       22.4780   10.5690   36.1570 C.3    35  VAL35       0.0019
     42  CG2       22.9570   12.9100   35.3870 C.3    35  VAL35       0.0019
     43  N         18.7470    6.3080   38.7750 N.3    48  ALA48      -0.1245
     44  CA        19.7030    7.3780   38.4200 C.3    48  ALA48       0.1562
     45  C         19.4380    8.6230   39.2650 C.2    48  ALA48       0.2260
     46  O         18.2820    8.9330   39.4930 O.2    48  ALA48      -0.2867
     47  CB        19.5660    7.7540   36.9350 C.3    48  ALA48       0.0290
     48  N         20.4940   12.6660   39.6670 N.3    50  LYS50      -0.1245
     49  CA        21.1470   13.8700   39.1410 C.3    50  LYS50       0.1561
     50  C         21.2220   14.9090   40.2380 C.2    50  LYS50       0.2260
     51  O         20.2020   15.2380   40.8440 O.2    50  LYS50      -0.2867
     52  CB        20.3500   14.4120   37.9870 C.3    50  LYS50       0.0271
     53  CG        20.9610   15.6690   37.3500 C.3    50  LYS50       0.0035
     54  CD        20.3560   15.9600   35.9950 C.3    50  LYS50       0.0206
     55  CE        18.8770   16.2780   36.1030 C.3    50  LYS50       0.1093
     56  NZ        18.2230   16.7900   34.8420 N.3    50  LYS50      -0.1314
     57  N         11.5630   10.3210   30.3580 N.3    81  ILE81      -0.1245
     58  CA        12.1360    9.9020   31.6390 C.3    81  ILE81       0.1561
     59  C         11.2360   10.3320   32.7870 C.2    81  ILE81       0.2260
     60  O         10.7040   11.4300   32.8420 O.2    81  ILE81      -0.2867
     61  CB        13.5730   10.4470   31.8300 C.3    81  ILE81       0.0252
     62  CG1       14.3110    9.6320   32.9250 C.3    81  ILE81       0.0019
     63  CG2       13.5600   11.9310   32.0200 C.3    81  ILE81       0.0019
     64  CD1       14.6700    8.2470   32.5490 C.3    81  ILE81       0.0001
     65  N         15.5020    9.2380   39.0840 N.3   103  MET103     -0.1230
     66  CA        14.8580    8.7650   37.8580 C.3   103  MET103      0.1702
     67  C         15.1080    7.3170   37.6470 C.2   103  MET103      0.2592
     68  O         16.0050    6.7500   38.2400 O.2   103  MET103     -0.2718
     69  CB        15.4680    9.5050   36.6240 C.3   103  MET103      0.0401
     70  CG        15.2090   10.9330   36.6350 C.3   103  MET103      0.0596
     71  SD        16.3240   11.8430   35.5200 S.3   103  MET103     -0.1393
     72  CE        17.8160   12.0500   36.4460 C.3   103  MET103      0.0692
     73  N         14.3370    6.7190   36.7220 N.am  104  GLU104     -0.1966
     74  CA        14.5810    5.4050   36.2230 C.3   104  GLU104      0.1733
     75  C         16.0140    5.3040   35.6900 C.2   104  GLU104      0.2616
     76  O         16.5160    6.2640   35.0640 O.2   104  GLU104     -0.2715
     77  CB        13.5550    5.1220   35.0740 C.3   104  GLU104      0.0429
     78  CG        12.0740    5.2950   35.4920 C.3   104  GLU104      0.1163
     79  CD        11.1410    6.0150   34.4810 C.2   104  GLU104      0.3649
     80  OE1       10.1460    6.6200   34.9370 O.co2 104  GLU104     -0.2457
     81  OE2       11.3660    6.0300   33.2550 O.co2 104  GLU104     -0.2457
     82  N         16.6610    4.1760   35.9470 N.am  105  LEU105     -0.1963
     83  CA        18.0060    3.8930   35.4020 C.3   105  LEU105      0.1728
     84  C         17.8280    3.0750   34.1350 C.2   105  LEU105      0.2616
     85  O         17.2450    1.9970   34.1470 O.2   105  LEU105     -0.2715
     86  CB        18.8930    3.1510   36.4020 C.3   105  LEU105      0.0311
     87  CG        20.3520    2.9530   35.9540 C.3   105  LEU105      0.0022
     88  CD1       21.1280    4.2600   35.8100 C.3   105  LEU105      0.0001
     89  CD2       21.0050    1.9570   36.9020 C.3   105  LEU105      0.0001
     90  N         18.3950    3.5860   33.0580 N.am  106  MET106     -0.1963
     91  CA        18.4230    2.8760   31.7700 C.3   106  MET106      0.1736
     92  C         19.7550    2.1310   31.5990 C.2   106  MET106      0.2616
     93  O         20.5280    1.9690   32.5610 O.2   106  MET106     -0.2715
     94  CB        18.0820    3.8510   30.6340 C.3   106  MET106      0.0427
     95  CG        16.7010    4.4590   30.8450 C.3   106  MET106      0.0599
     96  SD        15.3070    3.3890   30.6910 S.3   106  MET106     -0.1393
     97  CE        15.0400    3.5420   28.8890 C.3   106  MET106      0.0692
     98  N         20.0190    1.5560   30.4410 N.am  107  ASP107     -0.1957
     99  CA        21.2480    0.7570   30.2690 C.3   107  ASP107      0.1840
    100  C         22.3310    1.4540   29.4640 C.2   107  ASP107      0.2622
    101  O         23.5080    1.1190   29.5940 O.2   107  ASP107     -0.2715
    102  CB        20.9390   -0.5940   29.6360 C.3   107  ASP107      0.1450
    103  CG        20.0530   -1.4530   30.4800 C.2   107  ASP107      0.3671
    104  OD1       20.2780   -1.5070   31.7060 O.co2 107  ASP107     -0.2456
    105  OD2       19.1680   -2.1360   29.9510 O.co2 107  ASP107     -0.2456
    106  N         21.9420    2.3700   28.5690 N.am  108  ALA108     -0.1963
    107  CA        22.8950    3.0450   27.6960 C.3   108  ALA108      0.1728
    108  C         22.3250    4.3410   27.1880 C.2   108  ALA108      0.2616
    109  O         21.1360    4.5830   27.1780 O.2   108  ALA108     -0.2715
    110  CB        23.2310    2.1610   26.4820 C.3   108  ALA108      0.0334
    111  N         23.2320    5.1580   26.7310 N.am  109  ASN109     -0.1972
    112  CA        22.9440    6.3450   26.0410 C.3   109  ASN109      0.1688
    113  C         22.7920    6.1000   24.5380 C.2   109  ASN109      0.2292
    114  O         23.4390    5.2070   24.0000 O.2   109  ASN109     -0.2864
    115  CB        24.1510    7.2900   26.2850 C.3   109  ASN109      0.1181
    116  CG        23.8970    8.6630   25.8180 C.2   109  ASN109      0.2629
    117  OD1       24.0900    8.9890   24.6510 O.2   109  ASN109     -0.2716
    118  ND2       23.4120    9.5140   26.7210 N.am  109  ASN109     -0.0877
    119  N         24.0380    7.5980   22.1070 N.3   111  CYS111     -0.1221
    120  CA        25.3460    7.7260   21.4660 C.3   111  CYS111      0.1808
    121  C         26.0710    6.3890   21.3990 C.2   111  CYS111      0.2601
    122  O         26.8040    6.1180   20.4330 O.2   111  CYS111     -0.2717
    123  CB        26.2530    8.7200   22.1750 C.3   111  CYS111      0.0970
    124  SG        25.6130   10.4170   22.1860 S.3   111  CYS111     -0.0800
    125  N         25.8600    5.5020   22.3870 N.am  112  GLN112     -0.1979
    126  CA        26.4680    4.1840   22.3100 C.3   112  GLN112      0.1601
    127  C         25.7600    3.3190   21.2920 C.2   112  GLN112      0.2287
    128  O         26.4240    2.5510   20.5660 O.2   112  GLN112     -0.2864
    129  CB        26.4810    3.4920   23.6820 C.3   112  GLN112      0.0394
    130  CG        26.9980    2.0530   23.6130 C.3   112  GLN112      0.0908
    131  CD        27.2920    1.4810   24.9660 C.2   112  GLN112      0.2608
    132  OE1       26.8090    1.9850   25.9600 O.2   112  GLN112     -0.2717
    133  NE2       28.0470    0.4140   25.0030 N.am  112  GLN112     -0.0878
    134  N         26.8600    3.5790   17.6520 N.3   115  GLN115     -0.1245
    135  CA        28.1050    2.9120   17.2710 C.3   115  GLN115      0.1566
    136  C         27.8590    1.4390   16.9180 C.2   115  GLN115      0.2260
    137  O         28.8130    0.6910   16.6970 O.2   115  GLN115     -0.2867
    138  CB        29.1120    3.0340   18.4010 C.3   115  GLN115      0.0367
    139  CG        29.5660    4.4920   18.6110 C.3   115  GLN115      0.0905
    140  CD        30.1490    5.1270   17.3330 C.2   115  GLN115      0.2608
    141  OE1       31.0660    4.5630   16.7020 O.2   115  GLN115     -0.2717
    142  NE2       29.6120    6.3010   16.9340 N.am  115  GLN115     -0.0878
    143  N         22.6250   12.4040   22.8870 N.3   150  SER150     -0.1202
    144  CA        23.1680   12.3410   24.2360 C.3   150  SER150      0.2020
    145  C         22.1140   12.4480   25.2660 C.2   150  SER150      0.2618
    146  O         22.3460   12.0810   26.4340 O.2   150  SER150     -0.2717
    147  CB        24.2150   13.4340   24.5040 C.3   150  SER150      0.2103
    148  OG        23.7050   14.7290   24.2550 O.3   150  SER150     -0.2182
    149  N         20.9500   12.9920   24.9150 N.am  151  ASN151     -0.1974
    150  CA        19.9110   13.1240   25.8950 C.3   151  ASN151      0.1688
    151  C         18.7170   12.1430   25.6120 C.2   151  ASN151      0.2292
    152  O         17.5310   12.4010   25.9020 O.2   151  ASN151     -0.2864
    153  CB        19.5260   14.6130   26.0230 C.3   151  ASN151      0.1181
    154  CG        20.6520   15.5320   26.6620 C.2   151  ASN151      0.2629
    155  OD1       21.8690   15.1760   26.9130 O.2   151  ASN151     -0.2716
    156  ND2       20.2080   16.7650   26.9490 N.am  151  ASN151     -0.0877
    157  N         18.0450    7.8410   26.1550 N.3   153  VAL153     -0.1245
    158  CA        18.6020    6.6470   26.7800 C.3   153  VAL153      0.1561
    159  C         17.7460    5.4530   26.4330 C.2   153  VAL153      0.2260
    160  O         16.5640    5.5670   26.0820 O.2   153  VAL153     -0.2867
    161  CB        18.7340    6.8170   28.2950 C.3   153  VAL153      0.0252
    162  CG1       19.8880    7.7780   28.6090 C.3   153  VAL153      0.0019
    163  CG2       17.4130    7.2960   28.8910 C.3   153  VAL153      0.0019
    164  N         15.3500   12.2940   27.7470 N.3   163  LEU163     -0.1245
    165  CA        15.7440   12.7950   29.0820 C.3   163  LEU163      0.1561
    166  C         15.3720   14.2440   29.3980 C.2   163  LEU163      0.2260
    167  O         15.4410   14.6230   30.5950 O.2   163  LEU163     -0.2867
    168  CB        17.2460   12.6900   29.2580 C.3   163  LEU163      0.0270
    169  CG        17.8890   11.3260   29.3880 C.3   163  LEU163      0.0019
    170  CD1       19.4010   11.5130   29.5220 C.3   163  LEU163      0.0001
    171  CD2       17.3000   10.5780   30.5590 C.3   163  LEU163      0.0001
@<TRIPOS>BOND
     1   137   136    2
     2   141   140    2
     3   136   135    1
     4   142   140   am
     5   135   134    1
     6   135   138    1
     7   140   139    1
     8   138   139    1
     9   122   121    2
    10   128   127    2
    11   127   126    1
    12   121   120    1
    13   121   125   am
    14   120   119    1
    15   120   123    1
    16   123   124    1
    17   126   125    1
    18   126   129    1
    19   143   144    1
    20   130   129    1
    21   130   131    1
    22   114   113    2
    23   144   147    1
    24   144   145    1
    25   148   147    1
    26   113   112    1
    27   117   116    2
    28   149   145   am
    29   149   150    1
    30   131   133   am
    31   131   132    2
    32   145   146    2
    33   151   150    1
    34   151   152    2
    35   116   115    1
    36   116   118   am
    37   150   153    1
    38   153   154    1
    39   112   115    1
    40   112   111    1
    41   160   159    2
    42   157   158    1
    43   159   158    1
    44   110   107    1
    45   154   155    2
    46   154   156   am
    47   111   108   am
    48   158   161    1
    49   109   108    2
    50   108   107    1
    51   107   106    1
    52   164   165    1
    53   161   162    1
    54   161   163    1
    55   106   100   am
    56    97    96    1
    57   165   168    1
    58   165   166    1
    59   168   169    1
    60   169   170    1
    61   169   171    1
    62   166   167    2
    63   100   101    2
    64   100    99    1
    65   102    99    1
    66   102   103    1
    67   105   103   ar
    68    99    98    1
    69    57    58    1
    70    98    92   am
    71   103   104   ar
    72    94    95    1
    73    94    91    1
    74    96    95    1
    75    16    15    2
    76    92    91    1
    77    92    93    2
    78    58    61    1
    79    58    59    1
    80    20    21    1
    81    20    19    1
    82    91    90    1
    83    61    63    1
    84    61    62    1
    85    21    22    2
    86    15    19   am
    87    15    14    1
    88     4     3    2
    89    64    62    1
    90    59    60    2
    91    13    14    1
    92    13    11   am
    93    10    11    1
    94    10     9    1
    95    90    84   am
    96    23    24    1
    97    81    79   ar
    98    14    17    1
    99    18    17    1
   100     3     9   am
   101     3     2    1
   102    30    29    2
   103    11    12    2
   104    27    24    1
   105    27    28    1
   106    84    85    2
   107    84    83    1
   108    29    31   am
   109    29    28    1
   110    24    25    1
   111    79    80   ar
   112    79    78    1
   113     5     2    1
   114     5     6    1
   115     5     7    1
   116     2     1    1
   117    56    55    1
   118    76    75    2
   119    77    78    1
   120    77    74    1
   121     8     6    1
   122    35    34    2
   123    42    40    1
   124    83    82    1
   125    83    86    1
   126    32    25   am
   127    32    33    1
   128    71    72    1
   129    71    70    1
   130    25    26    2
   131    75    82   am
   132    75    74    1
   133    88    87    1
   134    40    41    1
   135    40    37    1
   136    87    86    1
   137    87    89    1
   138    54    55    1
   139    54    53    1
   140    74    73    1
   141    34    33    1
   142    69    70    1
   143    69    66    1
   144    73    67   am
   145    47    44    1
   146    36    37    1
   147    39    38    2
   148    37    38    1
   149    53    52    1
   150    67    66    1
   151    67    68    2
   152    66    65    1
   153    52    49    1
   154    44    43    1
   155    44    45    1
   156    49    48    1
   157    49    50    1
   158    45    46    2
   159    50    51    2
