@<TRIPOS>MOLECULE
tmp/4qtfA01.pdb
 153 150 0 0 0
SMALL
GASTEIGER

@<TRIPOS>ATOM
      1  N         30.2780   18.1560   40.6320 N.3   245  MET245     -0.1245
      2  CA        29.7170   19.4780   40.4250 C.3   245  MET245      0.1570
      3  C         30.7000   20.5180   40.9120 C.2   245  MET245      0.2261
      4  O         31.1110   20.4900   42.0460 O.2   245  MET245     -0.2867
      5  CB        28.3750   19.5800   41.1250 C.3   245  MET245      0.0387
      6  CG        27.5670   18.3340   40.8870 C.3   245  MET245      0.0595
      7  SD        25.8980   18.3680   41.4750 S.3   245  MET245     -0.1393
      8  CE        25.0400   17.7720   40.0760 C.3   245  MET245      0.0692
      9  N         31.8120   27.8570   36.0780 N.3   250  TYR250     -0.1241
     10  CA        31.2530   29.1800   35.6920 C.3   250  TYR250      0.1605
     11  C         32.3740   30.1720   35.7510 C.2   250  TYR250      0.2264
     12  O         32.8900   30.6090   34.7210 O.2   250  TYR250     -0.2867
     13  CB        30.0630   29.6580   36.5330 C.3   250  TYR250      0.0534
     14  CG        29.5390   28.6770   37.5290 C.ar  250  TYR250     -0.0201
     15  CD1       29.3940   27.3360   37.2060 C.ar  250  TYR250     -0.0009
     16  CD2       29.1780   29.0950   38.8210 C.ar  250  TYR250     -0.0009
     17  CE1       28.9400   26.4360   38.1290 C.ar  250  TYR250      0.0417
     18  CE2       28.6900   28.1930   39.7490 C.ar  250  TYR250      0.0417
     19  CZ        28.5740   26.8600   39.3760 C.ar  250  TYR250      0.1957
     20  OH        28.1080   25.9300   40.2440 O.3   250  TYR250     -0.2866
     21  N         33.1360   25.2690   45.6890 N.3   260  TYR260     -0.1241
     22  CA        32.9330   23.8340   46.0200 C.3   260  TYR260      0.1605
     23  C         33.3480   22.9550   44.8310 C.2   260  TYR260      0.2264
     24  O         33.2840   23.3710   43.6800 O.2   260  TYR260     -0.2867
     25  CB        31.4630   23.5160   46.3940 C.3   260  TYR260      0.0534
     26  CG        30.4440   23.8300   45.2980 C.ar  260  TYR260     -0.0201
     27  CD1       30.3490   23.0350   44.1620 C.ar  260  TYR260     -0.0009
     28  CD2       29.5840   24.9410   45.4070 C.ar  260  TYR260     -0.0009
     29  CE1       29.4250   23.3330   43.1510 C.ar  260  TYR260      0.0417
     30  CE2       28.6570   25.2570   44.4110 C.ar  260  TYR260      0.0417
     31  CZ        28.5830   24.4440   43.2830 C.ar  260  TYR260      0.1957
     32  OH        27.7010   24.7080   42.2580 O.3   260  TYR260     -0.2866
     33  N         32.0490   19.1390   44.4190 N.3   262  THR262     -0.1218
     34  CA        31.2350   18.1520   45.1260 C.3   262  THR262      0.1862
     35  C         31.1100   16.8160   44.3220 C.2   262  THR262      0.2287
     36  O         30.6820   16.7760   43.1850 O.2   262  THR262     -0.2866
     37  CB        29.8780   18.7790   45.4960 C.3   262  THR262      0.1770
     38  OG1       30.1220   20.0240   46.1870 O.3   262  THR262     -0.2211
     39  CG2       29.0960   17.8920   46.4400 C.3   262  THR262      0.0375
     40  N         29.1000   13.5900   43.8490 N.3   264  VAL264     -0.1245
     41  CA        27.6830   13.2340   44.0910 C.3   264  VAL264      0.1561
     42  C         27.3340   11.8810   43.4170 C.2   264  VAL264      0.2260
     43  O         27.7360   11.6110   42.2940 O.2   264  VAL264     -0.2867
     44  CB        26.7200   14.3690   43.6310 C.3   264  VAL264      0.0252
     45  CG1       25.2840   13.8930   43.5120 C.3   264  VAL264      0.0019
     46  CG2       26.8160   15.5660   44.6100 C.3   264  VAL264      0.0019
     47  N         18.8190   13.8200   36.9220 N.3   269  GLN269     -0.1245
     48  CA        18.6230   15.2350   36.6130 C.3   269  GLN269      0.1566
     49  C         17.1680   15.5460   36.2910 C.2   269  GLN269      0.2260
     50  O         16.5570   14.7910   35.5480 O.2   269  GLN269     -0.2867
     51  CB        19.4640   15.5830   35.4060 C.3   269  GLN269      0.0367
     52  CG        19.0650   16.8660   34.6640 C.3   269  GLN269      0.0905
     53  CD        20.2740   17.7380   34.3720 C.2   269  GLN269      0.2608
     54  OE1       20.2190   18.9870   34.4580 O.2   269  GLN269     -0.2717
     55  NE2       21.4120   17.0790   34.0850 N.am  269  GLN269     -0.0878
     56  N         17.1740   21.5400   33.3530 N.3   272  TYR272     -0.1227
     57  CA        18.4250   22.0250   32.7710 C.3   272  TYR272      0.1736
     58  C         19.0760   23.0240   33.6910 C.2   272  TYR272      0.2596
     59  O         20.2670   23.1690   33.6120 O.2   272  TYR272     -0.2718
     60  CB        18.2450   22.7030   31.4290 C.3   272  TYR272      0.0548
     61  CG        18.0310   21.8270   30.2570 C.ar  272  TYR272     -0.0200
     62  CD1       17.5170   20.5590   30.3920 C.ar  272  TYR272     -0.0009
     63  CD2       18.2610   22.3220   28.9680 C.ar  272  TYR272     -0.0009
     64  CE1       17.2820   19.7700   29.2830 C.ar  272  TYR272      0.0417
     65  CE2       18.0060   21.5380   27.8530 C.ar  272  TYR272      0.0417
     66  CZ        17.5260   20.2690   28.0320 C.ar  272  TYR272      0.1957
     67  OH        17.3080   19.5140   26.9430 O.3   272  TYR272     -0.2866
     68  N         18.3040   23.7460   34.5190 N.am  273  SER273     -0.1938
     69  CA        18.8630   24.6970   35.4870 C.3   273  SER273      0.2055
     70  C         19.7720   24.0370   36.5500 C.2   273  SER273      0.2644
     71  O         20.5930   24.7300   37.1430 O.2   273  SER273     -0.2714
     72  CB        17.7810   25.5830   36.1100 C.3   273  SER273      0.2130
     73  OG        16.8940   24.7810   36.8780 O.3   273  SER273     -0.2179
     74  N         19.6780   22.7120   36.7360 N.am  274  GLY274     -0.1939
     75  CA        20.5750   21.9900   37.6420 C.3   274  GLY274      0.2014
     76  C         19.9290   21.3130   38.8280 C.2   274  GLY274      0.2639
     77  O         20.5960   20.9190   39.7640 O.2   274  GLY274     -0.2714
     78  N         18.6180   21.1950   38.8490 N.am  275  VAL275     -0.1963
     79  CA        18.0020   20.4310   39.9080 C.3   275  VAL275      0.1727
     80  C         18.1990   18.9300   39.6110 C.2   275  VAL275      0.2616
     81  O         17.9160   18.4200   38.5080 O.2   275  VAL275     -0.2715
     82  CB        16.5510   20.8670   40.0890 C.3   275  VAL275      0.0290
     83  CG1       15.8850   20.0760   41.2030 C.3   275  VAL275      0.0023
     84  CG2       16.5210   22.3700   40.4310 C.3   275  VAL275      0.0023
     85  N         18.7590   18.2500   40.5970 N.am  276  PHE276     -0.1974
     86  CA        18.8310   16.8060   40.6190 C.3   276  PHE276      0.1639
     87  C         18.2200   16.2260   41.8970 C.2   276  PHE276      0.2290
     88  O         18.2020   16.8760   42.9550 O.2   276  PHE276     -0.2864
     89  CB        20.2810   16.3240   40.6490 C.3   276  PHE276      0.0560
     90  CG        21.0790   16.6060   39.4350 C.ar  276  PHE276     -0.0200
     91  CD1       21.7040   17.8200   39.2730 C.ar  276  PHE276     -0.0042
     92  CD2       21.3530   15.6050   38.5320 C.ar  276  PHE276     -0.0042
     93  CE1       22.5090   18.0510   38.1860 C.ar  276  PHE276     -0.0003
     94  CE2       22.1430   15.8550   37.4210 C.ar  276  PHE276     -0.0003
     95  CZ        22.7260   17.0660   37.2570 C.ar  276  PHE276     -0.0000
     96  N         19.4490   13.5380   44.2060 N.3   278  HIS278     -0.1241
     97  CA        20.6940   12.7700   44.4270 C.3   278  HIS278      0.1621
     98  C         20.9130   12.3750   45.8770 C.2   278  HIS278      0.2264
     99  O         20.1930   12.8450   46.7930 O.2   278  HIS278     -0.2867
    100  CB        21.9160   13.5310   43.9100 C.3   278  HIS278      0.0745
    101  CG        22.1830   14.8050   44.6380 C.ar  278  HIS278      0.0817
    102  ND1       23.0270   14.8830   45.7250 N.ar  278  HIS278     -0.2268
    103  CD2       21.7020   16.0570   44.4340 C.ar  278  HIS278      0.1154
    104  CE1       23.0470   16.1330   46.1660 C.ar  278  HIS278      0.1986
    105  NE2       22.2730   16.8680   45.3790 N.ar  278  HIS278     -0.2212
    106  N         25.2360   13.7610   53.8390 N.3   282  TRP282     -0.1241
    107  CA        25.5170   14.8220   54.7910 C.3   282  TRP282      0.1605
    108  C         24.2860   15.5290   55.3830 C.2   282  TRP282      0.2264
    109  O         24.4340   16.3420   56.3340 O.2   282  TRP282     -0.2867
    110  CB        26.4450   15.8710   54.1570 C.3   282  TRP282      0.0550
    111  CG        25.9680   16.3860   52.8300 C.ar  282  TRP282      0.0003
    112  CD1       25.1630   17.4540   52.6220 C.ar  282  TRP282      0.0946
    113  CD2       26.2590   15.8320   51.5140 C.ar  282  TRP282      0.0152
    114  NE1       24.9320   17.6070   51.2780 N.ar  282  TRP282     -0.2442
    115  CE2       25.6030   16.6340   50.5770 C.ar  282  TRP282      0.0810
    116  CE3       27.0340   14.7640   51.0610 C.ar  282  TRP282      0.0012
    117  CZ2       25.6830   16.4030   49.1990 C.ar  282  TRP282      0.0191
    118  CZ3       27.1100   14.5190   49.6810 C.ar  282  TRP282      0.0001
    119  CH2       26.4270   15.3290   48.7730 C.ar  282  TRP282      0.0015
    120  N         19.5570   22.5370   50.9520 N.3   293  SER293     -0.1202
    121  CA        20.3320   22.4190   49.7190 C.3   293  SER293      0.2020
    122  C         20.3580   23.7120   48.9440 C.2   293  SER293      0.2619
    123  O         19.7610   24.7170   49.3470 O.2   293  SER293     -0.2717
    124  CB        19.7790   21.2950   48.8470 C.3   293  SER293      0.2103
    125  OG        18.7260   21.7190   47.9990 O.3   293  SER293     -0.2182
    126  N         21.0420   23.6470   47.8130 N.am  294  HIS294     -0.1961
    127  CA        21.0520   24.7000   46.8670 C.3   294  HIS294      0.1787
    128  C         19.9030   24.6290   45.8540 C.2   294  HIS294      0.2621
    129  O         19.8320   25.4430   44.9640 O.2   294  HIS294     -0.2715
    130  CB        22.3910   24.7310   46.1600 C.3   294  HIS294      0.0785
    131  CG        23.5530   24.8980   47.0810 C.ar  294  HIS294      0.0821
    132  ND1       24.3090   26.0490   47.1260 N.ar  294  HIS294     -0.2267
    133  CD2       24.1110   24.0490   47.9750 C.ar  294  HIS294      0.1154
    134  CE1       25.2660   25.9140   48.0220 C.ar  294  HIS294      0.1986
    135  NE2       25.1660   24.7100   48.5520 N.ar  294  HIS294     -0.2212
    136  N         19.0220   23.6790   46.0510 N.am  295  GLY295     -0.1940
    137  CA        17.8200   23.5640   45.2820 C.3   295  GLY295      0.2014
    138  C         17.6450   22.2150   44.6440 C.2   295  GLY295      0.2639
    139  O         16.5390   21.8040   44.4200 O.2   295  GLY295     -0.2714
    140  N         18.5280   21.1440   44.8690 N.am  296  CYS296     -0.1967
    141  CA        18.4270   19.7380   44.5940 C.3   296  CYS296      0.1712
    142  C         17.5600   19.0580   45.6210 C.2   296  CYS296      0.2296
    143  O         17.3140   19.6510   46.6350 O.2   296  CYS296     -0.2864
    144  CB        19.7690   19.0460   44.4920 C.3   296  CYS296      0.0983
    145  SG        20.8860   19.7330   43.3790 S.3   296  CYS296     -0.0798
    146  N         17.5460   16.5350   47.9790 N.3   298  ASN298     -0.1240
    147  CA        18.5620   15.6970   48.6500 C.3   298  ASN298      0.1653
    148  C         17.8310   14.5480   49.2760 C.2   298  ASN298      0.2266
    149  O         16.8620   14.7750   50.0060 O.2   298  ASN298     -0.2867
    150  CB        19.2530   16.4220   49.8110 C.3   298  ASN298      0.1155
    151  CG        20.4150   17.3040   49.3930 C.2   298  ASN298      0.2627
    152  OD1       20.7430   17.4840   48.2090 O.2   298  ASN298     -0.2716
    153  ND2       21.0370   17.8910   50.3960 N.am  298  ASN298     -0.0877
@<TRIPOS>BOND
     1    67    66    1
     2    65    66   ar
     3    65    63   ar
     4    66    64   ar
     5    63    61   ar
     6    64    62   ar
     7    61    62   ar
     8    61    60    1
     9    60    57    1
    10    57    56    1
    11    57    58    1
    12    59    58    2
    13    58    68   am
    14    55    53   am
    15    53    54    2
    16    53    52    1
    17    68    69    1
    18    52    51    1
    19    12    11    2
    20    51    48    1
    21    69    72    1
    22    69    70    1
    23    50    49    2
    24    10    11    1
    25    10     9    1
    26    10    13    1
    27    72    73    1
    28    49    48    1
    29    13    14    1
    30    70    74   am
    31    70    71    2
    32    48    47    1
    33    74    75    1
    34    15    14   ar
    35    15    17   ar
    36    95    94   ar
    37    95    93   ar
    38    94    92   ar
    39    14    16   ar
    40    75    76    1
    41    17    19   ar
    42    93    91   ar
    43    81    80    2
    44    92    90   ar
    45    16    18   ar
    46    76    78   am
    47    76    77    2
    48    78    79    1
    49    91    90   ar
    50    19    18   ar
    51    19    20    1
    52    90    89    1
    53    80    79    1
    54    80    85   am
    55    79    82    1
    56     8     7    1
    57    82    84    1
    58    82    83    1
    59     2     1    1
    60     2     3    1
    61     2     5    1
    62    85    86    1
    63    86    89    1
    64    86    87    1
    65     6     5    1
    66     6     7    1
    67     3     4    2
    68    87    88    2
    69    32    31    1
    70    43    42    2
    71    29    31   ar
    72    29    27   ar
    73    36    35    2
    74    31    30   ar
    75   145   144    1
    76    42    41    1
    77    45    44    1
    78    44    41    1
    79    44    46    1
    80    24    23    2
    81    40    41    1
    82   100    97    1
    83   100   101    1
    84    27    26   ar
    85    96    97    1
    86    35    34    1
    87    30    28   ar
    88    33    34    1
    89   139   138    2
    90    97    98    1
    91   103   101   ar
    92   103   105   ar
    93   144   141    1
    94   141   140    1
    95   141   142    1
    96   101   102   ar
    97   138   140   am
    98   138   137    1
    99    23    22    1
   100   129   128    2
   101    34    37    1
   102   137   136    1
   103    26    28   ar
   104    26    25    1
   105   105   104   ar
   106    37    38    1
   107    37    39    1
   108   142   143    2
   109    21    22    1
   110   102   104   ar
   111   128   136   am
   112   128   127    1
   113    98    99    2
   114    22    25    1
   115   130   127    1
   116   130   131    1
   117   127   126    1
   118   131   132   ar
   119   131   133   ar
   120   132   134   ar
   121   126   122   am
   122   133   135   ar
   123   146   147    1
   124   125   124    1
   125   134   135   ar
   126   152   151    2
   127   147   148    1
   128   147   150    1
   129   119   117   ar
   130   119   118   ar
   131   124   121    1
   132   122   123    2
   133   122   121    1
   134   117   115   ar
   135   148   149    2
   136   151   150    1
   137   151   153   am
   138   118   116   ar
   139   121   120    1
   140   115   114   ar
   141   115   113   ar
   142   116   113   ar
   143   114   112   ar
   144   113   111   ar
   145   112   111   ar
   146   111   110    1
   147   106   107    1
   148   110   107    1
   149   107   108    1
   150   108   109    2
