@<TRIPOS>MOLECULE
tmp/4qtfA00.pdb
 118 113 0 0 0
SMALL
GASTEIGER

@<TRIPOS>ATOM
      1  N         -0.0720    9.4670  -23.7250 N.3     3  LYS3       -0.1231
      2  CA         0.0280   10.8130  -23.0970 C.3     3  LYS3        0.1693
      3  C          1.0010   10.6430  -21.9700 C.2     3  LYS3        0.2592
      4  O          0.7850    9.7890  -21.1230 O.2     3  LYS3       -0.2718
      5  CB        -1.2960   11.2680  -22.4690 C.3     3  LYS3        0.0285
      6  CG        -2.0400   12.3540  -23.2230 C.3     3  LYS3        0.0035
      7  CD        -2.5210   11.8430  -24.5680 C.3     3  LYS3        0.0206
      8  CE        -2.8910   13.0020  -25.4800 C.3     3  LYS3        0.1093
      9  NZ        -2.7450   12.6030  -26.9040 N.3     3  LYS3       -0.1314
     10  N          2.0560   11.4450  -21.9660 N.am    4  LEU4       -0.1966
     11  CA         3.0450   11.4060  -20.8980 C.3     4  LEU4        0.1728
     12  C          2.8320   12.5680  -19.9520 C.2     4  LEU4        0.2617
     13  O          2.6960   13.6880  -20.4330 O.2     4  LEU4       -0.2715
     14  CB         4.4420   11.4450  -21.5150 C.3     4  LEU4        0.0311
     15  CG         4.8190   10.0820  -22.1380 C.3     4  LEU4        0.0022
     16  CD1        6.0840   10.0880  -22.9860 C.3     4  LEU4        0.0001
     17  CD2        4.9660    9.0900  -21.0080 C.3     4  LEU4        0.0001
     18  N          2.8030   12.3230  -18.6450 N.am    5  THR5       -0.1937
     19  CA         2.8750   13.4600  -17.7160 C.3     5  THR5        0.2028
     20  C          4.0050   13.2840  -16.7100 C.2     5  THR5        0.2642
     21  O          4.3690   12.1550  -16.3190 O.2     5  THR5       -0.2714
     22  CB         1.5140   13.6830  -16.9740 C.3     5  THR5        0.1808
     23  OG1        1.3640   12.7180  -15.9430 O.3     5  THR5       -0.2208
     24  CG2        0.3500   13.5440  -17.8820 C.3     5  THR5        0.0379
     25  N          4.5370   14.4010  -16.2310 N.am    6  ALA6       -0.1963
     26  CA         5.5520   14.3580  -15.1590 C.3     6  ALA6        0.1728
     27  C          5.2350   15.2890  -13.9920 C.2     6  ALA6        0.2617
     28  O          4.5270   16.2580  -14.1880 O.2     6  ALA6       -0.2715
     29  CB         6.8970   14.6870  -15.7550 C.3     6  ALA6        0.0334
     30  N          5.7290   14.9770  -12.7890 N.am    7  SER7       -0.1936
     31  CA         5.5220   15.7810  -11.5890 C.3     7  SER7        0.2055
     32  C          6.3990   17.0550  -11.5830 C.2     7  SER7        0.2643
     33  O          6.3460   17.8450  -10.6270 O.2     7  SER7       -0.2714
     34  CB         5.7710   14.9480  -10.3180 C.3     7  SER7        0.2130
     35  OG         7.1610   14.5670  -10.1690 O.3     7  SER7       -0.2179
     36  N          7.1750   17.2630  -12.6390 N.am    8  VAL8       -0.1963
     37  CA         8.0410   18.4430  -12.7820 C.3     8  VAL8        0.1727
     38  C          7.8130   18.9360  -14.1600 C.2     8  VAL8        0.2617
     39  O          7.4320   18.1490  -15.0460 O.2     8  VAL8       -0.2715
     40  CB         9.5500   18.1040  -12.6940 C.3     8  VAL8        0.0290
     41  CG1        9.9350   17.8210  -11.2970 C.3     8  VAL8        0.0023
     42  CG2        9.9390   16.9210  -13.5950 C.3     8  VAL8        0.0023
     43  N          8.1290   20.2140  -14.3720 N.am    9  THR9       -0.1937
     44  CA         7.9190   20.8840  -15.6480 C.3     9  THR9        0.2028
     45  C          9.2350   21.2230  -16.3030 C.2     9  THR9        0.2642
     46  O         10.1540   21.6050  -15.6270 O.2     9  THR9       -0.2714
     47  CB         7.2520   22.2310  -15.3710 C.3     9  THR9        0.1808
     48  OG1        5.9590   21.9930  -14.8350 O.3     9  THR9       -0.2208
     49  CG2        7.1280   23.0890  -16.6260 C.3     9  THR9        0.0379
     50  N          9.2700   21.1290  -17.6140 N.am   10  ASP10      -0.1971
     51  CA        10.4460   21.3710  -18.3940 C.3    10  ASP10       0.1709
     52  C         10.9440   22.7850  -18.1730 C.2    10  ASP10       0.2293
     53  O         10.1370   23.7090  -18.1240 O.2    10  ASP10      -0.2864
     54  CB        10.1640   21.1650  -19.8870 C.3    10  ASP10       0.1436
     55  CG        11.4240   21.2530  -20.6980 C.2    10  ASP10       0.3671
     56  OD1       12.4610   20.8520  -20.1640 O.co2  10  ASP10      -0.2456
     57  OD2       11.4260   21.7230  -21.8370 O.co2  10  ASP10      -0.2456
     58  N          8.1080   11.7390  -10.5520 N.3    22  SER22      -0.1202
     59  CA         7.3210   10.6780  -11.1420 C.3    22  SER22       0.2020
     60  C          6.8890   10.9930  -12.5540 C.2    22  SER22       0.2619
     61  O          6.7520   12.1810  -12.9540 O.2    22  SER22      -0.2717
     62  CB         6.1430   10.3620  -10.1800 C.3    22  SER22       0.2103
     63  OG         5.1070   11.3350  -10.2480 O.3    22  SER22      -0.2182
     64  N          6.6250    9.9260  -13.3160 N.am   23  VAL23      -0.1965
     65  CA         6.1670    9.9900  -14.6930 C.3    23  VAL23       0.1727
     66  C          5.0230    8.9570  -14.8330 C.2    23  VAL23       0.2616
     67  O          5.0500    7.9170  -14.2190 O.2    23  VAL23      -0.2715
     68  CB         7.2790    9.6270  -15.6580 C.3    23  VAL23       0.0290
     69  CG1        6.7350    9.5010  -17.0890 C.3    23  VAL23       0.0023
     70  CG2        8.3790   10.6740  -15.5840 C.3    23  VAL23       0.0023
     71  N          4.0160    9.3060  -15.6140 N.am   24  THR24      -0.1951
     72  CA         2.7500    8.5270  -15.7640 C.3    24  THR24       0.1897
     73  C          2.5200    8.3890  -17.2430 C.2    24  THR24       0.2313
     74  O          2.7940    9.3480  -17.9950 O.2    24  THR24      -0.2863
     75  CB         1.6330    9.4570  -15.1350 C.3    24  THR24       0.1794
     76  OG1        1.4650    9.0740  -13.7520 O.3    24  THR24      -0.2208
     77  CG2        0.4360    9.5040  -15.8110 C.3    24  THR24       0.0378
     78  N         15.3320   14.0980  -17.9350 N.3    68  LEU68      -0.1245
     79  CA        14.3480   13.0260  -17.8760 C.3    68  LEU68       0.1561
     80  C         13.9080   12.5780  -19.2470 C.2    68  LEU68       0.2260
     81  O         13.4080   13.3450  -19.9970 O.2    68  LEU68      -0.2867
     82  CB        13.1280   13.4990  -17.1050 C.3    68  LEU68       0.0270
     83  CG        11.9820   12.5490  -16.8360 C.3    68  LEU68       0.0019
     84  CD1       12.4630   11.2900  -16.1530 C.3    68  LEU68       0.0001
     85  CD2       10.8530   13.2090  -16.0720 C.3    68  LEU68       0.0001
     86  N         11.6610    9.6820  -21.4080 N.3    70  ALA70      -0.1245
     87  CA        10.5900    8.6930  -21.2770 C.3    70  ALA70       0.1562
     88  C         10.0700    8.2830  -22.6330 C.2    70  ALA70       0.2260
     89  O          9.8620    9.1610  -23.5260 O.2    70  ALA70      -0.2867
     90  CB         9.4270    9.2620  -20.5020 C.3    70  ALA70       0.0290
     91  N          9.5150   11.6190  -24.9380 N.3    81  ARG81      -0.1231
     92  CA         9.5900   12.9930  -24.5160 C.3    81  ARG81       0.1694
     93  C         10.7940   13.1340  -23.6000 C.2    81  ARG81       0.2592
     94  O         11.3030   12.1420  -23.0280 O.2    81  ARG81      -0.2718
     95  CB         8.3130   13.4040  -23.7650 C.3    81  ARG81       0.0321
     96  CG         6.9730   13.1010  -24.4760 C.3    81  ARG81       0.0489
     97  CD         6.7020   13.9860  -25.6670 C.3    81  ARG81       0.2205
     98  NE         5.4100   13.6560  -26.2970 N.pl3  81  ARG81      -0.0865
     99  CZ         5.2380   13.1300  -27.5120 C.cat  81  ARG81       0.5346
    100  NH1        6.2750   12.8790  -28.3310 N.pl3  81  ARG81       0.1354
    101  NH2        4.0040   12.8540  -27.9190 N.pl3  81  ARG81       0.1354
    102  N         11.2060   14.3780  -23.4220 N.am   82  GLN82      -0.1966
    103  CA        12.3810   14.7310  -22.6880 C.3    82  GLN82       0.1733
    104  C         12.0810   16.0560  -22.0170 C.2    82  GLN82       0.2616
    105  O         11.4120   16.9320  -22.6030 O.2    82  GLN82      -0.2715
    106  CB        13.6120   14.9190  -23.5850 C.3    82  GLN82       0.0408
    107  CG        14.8280   15.4260  -22.8090 C.3    82  GLN82       0.0908
    108  CD        16.1370   15.5490  -23.6140 C.2    82  GLN82       0.2608
    109  OE1       16.6910   16.6100  -23.7640 O.2    82  GLN82      -0.2717
    110  NE2       16.6380   14.4530  -24.0880 N.am   82  GLN82      -0.0878
    111  N         12.5840   16.2190  -20.8100 N.am   83  LEU83      -0.1977
    112  CA        12.5400   17.5210  -20.0990 C.3    83  LEU83       0.1596
    113  C         13.7980   17.6180  -19.2140 C.2    83  LEU83       0.2287
    114  O         14.4540   16.5760  -18.9220 O.2    83  LEU83      -0.2864
    115  CB        11.1970   17.6610  -19.2940 C.3    83  LEU83       0.0297
    116  CG        10.8820   16.8180  -18.0280 C.3    83  LEU83       0.0022
    117  CD1       11.6980   17.3120  -16.8480 C.3    83  LEU83       0.0001
    118  CD2        9.3890   16.8520  -17.6070 C.3    83  LEU83       0.0001
@<TRIPOS>BOND
     1   100    99    1
     2   101    99    1
     3    99    98    2
     4     9     8    1
     5    98    97    1
     6    97    96    1
     7     8     7    1
     8    91    92    1
     9     7     6    1
    10    92    95    1
    11    92    93    1
    12    96    95    1
    13   110   108   am
    14   109   108    2
    15     1     2    1
    16   108   107    1
    17    93   102   am
    18    93    94    2
    19   106   107    1
    20   106   103    1
    21    89    88    2
    22   102   103    1
    23     6     5    1
    24     2     5    1
    25     2     3    1
    26    16    15    1
    27   103   104    1
    28    88    87    1
    29   105   104    2
    30    15    14    1
    31    15    17    1
    32   104   111   am
    33     3    10   am
    34     3     4    2
    35    10    11    1
    36    57    55   ar
    37    14    11    1
    38    86    87    1
    39    87    90    1
    40    11    12    1
    41   111   112    1
    42    55    56   ar
    43    55    54    1
    44    13    12    2
    45   112   115    1
    46   112   113    1
    47    81    80    2
    48    12    18   am
    49    54    51    1
    50   115   116    1
    51    80    79    1
    52   113   114    2
    53    18    19    1
    54    51    52    1
    55    51    50    1
    56    52    53    2
    57   116   118    1
    58   116   117    1
    59    74    73    2
    60    78    79    1
    61    24    22    1
    62    79    82    1
    63    19    22    1
    64    19    20    1
    65    50    45   am
    66    73    72    1
    67    82    83    1
    68    69    68    1
    69    22    23    1
    70    83    84    1
    71    83    85    1
    72    20    21    2
    73    20    25   am
    74    49    47    1
    75    45    44    1
    76    45    46    2
    77    25    26    1
    78    77    75    1
    79    72    71    1
    80    72    75    1
    81    29    26    1
    82    68    70    1
    83    68    65    1
    84    44    47    1
    85    44    43    1
    86    71    66   am
    87    47    48    1
    88    26    27    1
    89    75    76    1
    90    39    38    2
    91    66    65    1
    92    66    67    2
    93    65    64    1
    94    43    38   am
    95    28    27    2
    96    38    37    1
    97    27    30   am
    98    42    40    1
    99    64    60   am
   100    61    60    2
   101    30    31    1
   102    37    40    1
   103    37    36    1
   104    40    41    1
   105    36    32   am
   106    60    59    1
   107    31    32    1
   108    31    34    1
   109    32    33    2
   110    59    58    1
   111    59    62    1
   112    34    35    1
   113    63    62    1
