@<TRIPOS>MOLECULE
tmp/4qtnC01.pdb
 101 96 0 0 0
SMALL
GASTEIGER

@<TRIPOS>ATOM
      1  N         54.2870   42.5060   67.6760 N.3    10  LEU10      -0.1231
      2  CA        53.7090   42.8920   66.3840 C.3    10  LEU10       0.1693
      3  C         52.9740   44.2130   66.4220 C.2    10  LEU10       0.2592
      4  O         52.9070   44.9140   65.4190 O.2    10  LEU10      -0.2718
      5  CB        52.7490   41.8190   65.8700 C.3    10  LEU10       0.0284
      6  CG        53.2500   40.4660   65.3660 C.3    10  LEU10       0.0019
      7  CD1       52.1130   39.8240   64.5990 C.3    10  LEU10       0.0001
      8  CD2       54.4880   40.5920   64.4810 C.3    10  LEU10       0.0001
      9  N         52.3690   44.5280   67.5510 N.am   11  PHE11      -0.1976
     10  CA        51.4430   45.6480   67.5980 C.3    11  PHE11       0.1639
     11  C         51.8390   46.7000   68.6310 C.2    11  PHE11       0.2290
     12  O         51.2340   47.7740   68.6960 O.2    11  PHE11      -0.2864
     13  CB        50.0000   45.1530   67.8250 C.3    11  PHE11       0.0560
     14  CG        49.4870   44.2360   66.7260 C.ar   11  PHE11      -0.0200
     15  CD1       48.9790   44.7610   65.5390 C.ar   11  PHE11      -0.0042
     16  CD2       49.5300   42.8500   66.8760 C.ar   11  PHE11      -0.0042
     17  CE1       48.5260   43.9230   64.5290 C.ar   11  PHE11      -0.0003
     18  CE2       49.0910   42.0120   65.8640 C.ar   11  PHE11      -0.0003
     19  CZ        48.5850   42.5500   64.6940 C.ar   11  PHE11      -0.0000
     20  N         53.7770   49.5580   70.6610 N.3    13  GLY13      -0.1210
     21  CA        54.6980   50.6810   70.7590 C.3    13  GLY13       0.1956
     22  C         55.1730   51.2390   69.4360 C.2    13  GLY13       0.2611
     23  O         56.3000   51.7150   69.3400 O.2    13  GLY13      -0.2717
     24  N         54.3150   51.1830   68.4080 N.am   14  TRP14      -0.1976
     25  CA        54.5230   51.9840   67.1820 C.3    14  TRP14       0.1640
     26  C         53.9870   53.3760   67.3700 C.2    14  TRP14       0.2290
     27  O         52.8780   53.5560   67.9090 O.2    14  TRP14      -0.2864
     28  CB        53.8260   51.3700   65.9650 C.3    14  TRP14       0.0576
     29  CG        54.1730   49.9770   65.6870 C.ar   14  TRP14       0.0006
     30  CD1       53.5020   48.8750   66.1080 C.ar   14  TRP14       0.0946
     31  CD2       55.2500   49.5100   64.8830 C.ar   14  TRP14       0.0152
     32  NE1       54.1020   47.7410   65.6300 N.ar   14  TRP14      -0.2442
     33  CE2       55.1800   48.1010   64.8720 C.ar   14  TRP14       0.0810
     34  CE3       56.2790   50.1380   64.1890 C.ar   14  TRP14       0.0012
     35  CZ2       56.1010   47.3090   64.1920 C.ar   14  TRP14       0.0191
     36  CZ3       57.1940   49.3540   63.5120 C.ar   14  TRP14       0.0001
     37  CH2       57.0960   47.9460   63.5190 C.ar   14  TRP14       0.0015
     38  N         53.5680   53.6720   61.8740 N.3    19  ALA19      -0.1245
     39  CA        52.4590   52.8260   61.4340 C.3    19  ALA19       0.1562
     40  C         52.0390   53.1560   60.0030 C.2    19  ALA19       0.2260
     41  O         51.9490   52.2610   59.1630 O.2    19  ALA19      -0.2867
     42  CB        51.2750   52.9300   62.3920 C.3    19  ALA19       0.0290
     43  N         54.7270   51.9640   57.3280 N.3    22  LEU22      -0.1231
     44  CA        54.7570   50.5120   57.2160 C.3    22  LEU22       0.1693
     45  C         53.5260   49.9850   56.4680 C.2    22  LEU22       0.2591
     46  O         53.6520   49.1680   55.5500 O.2    22  LEU22      -0.2718
     47  CB        54.8480   49.8650   58.5870 C.3    22  LEU22       0.0284
     48  CG        54.9090   48.3460   58.5390 C.3    22  LEU22       0.0019
     49  CD1       56.2020   47.8810   57.8780 C.3    22  LEU22       0.0001
     50  CD2       54.7710   47.7900   59.9440 C.3    22  LEU22       0.0001
     51  N         52.3420   50.4650   56.8620 N.am   23  LEU23      -0.1980
     52  CA        51.1000   50.0870   56.1970 C.3    23  LEU23       0.1596
     53  C         51.0930   50.4860   54.7260 C.2    23  LEU23       0.2287
     54  O         50.7260   49.6880   53.8710 O.2    23  LEU23      -0.2864
     55  CB        49.8770   50.6500   56.9360 C.3    23  LEU23       0.0297
     56  CG        49.6760   50.0840   58.3500 C.3    23  LEU23       0.0022
     57  CD1       48.4660   50.6860   59.0440 C.3    23  LEU23       0.0001
     58  CD2       49.5620   48.5720   58.2810 C.3    23  LEU23       0.0001
     59  N         53.4150   48.0390   52.7700 N.3    25  LEU25      -0.1245
     60  CA        52.7700   46.7550   52.5130 C.3    25  LEU25       0.1561
     61  C         51.6680   46.9040   51.4780 C.2    25  LEU25       0.2260
     62  O         51.4570   46.0140   50.6640 O.2    25  LEU25      -0.2867
     63  CB        52.2060   46.1690   53.8040 C.3    25  LEU25       0.0270
     64  CG        53.2390   46.0170   54.9140 C.3    25  LEU25       0.0019
     65  CD1       52.5970   45.5570   56.2160 C.3    25  LEU25       0.0001
     66  CD2       54.3570   45.0800   54.4780 C.3    25  LEU25       0.0001
     67  N         58.9610   44.1680   56.4860 N.3    50  LEU50      -0.1245
     68  CA        58.8060   43.9320   57.9080 C.3    50  LEU50       0.1561
     69  C         60.1440   43.6740   58.6250 C.2    50  LEU50       0.2260
     70  O         60.3660   44.2040   59.7170 O.2    50  LEU50      -0.2867
     71  CB        57.7860   42.8230   58.1930 C.3    50  LEU50       0.0270
     72  CG        56.3480   43.3540   58.1960 C.3    50  LEU50       0.0019
     73  CD1       55.6180   42.9290   56.9380 C.3    50  LEU50       0.0001
     74  CD2       55.5790   42.9340   59.4390 C.3    50  LEU50       0.0001
     75  N         61.4190   46.4510   61.4670 N.3    54  PHE54      -0.1241
     76  CA        61.6070   45.9330   62.8340 C.3    54  PHE54       0.1605
     77  C         63.0340   46.1350   63.3890 C.2    54  PHE54       0.2264
     78  O         63.1980   46.4300   64.5830 O.2    54  PHE54      -0.2867
     79  CB        61.2150   44.4570   62.9110 C.3    54  PHE54       0.0534
     80  CG        59.7440   44.2290   62.9880 C.ar   54  PHE54      -0.0203
     81  CD1       58.8930   44.7890   62.0590 C.ar   54  PHE54      -0.0042
     82  CD2       59.2050   43.4480   63.9910 C.ar   54  PHE54      -0.0042
     83  CE1       57.5220   44.5740   62.1260 C.ar   54  PHE54      -0.0003
     84  CE2       57.8380   43.2310   64.0690 C.ar   54  PHE54      -0.0003
     85  CZ        56.9960   43.7950   63.1320 C.ar   54  PHE54      -0.0000
     86  N         56.9380   53.5270   76.5080 N.3   109  THR109     -0.1218
     87  CA        55.5560   53.0350   76.6820 C.3   109  THR109      0.1862
     88  C         55.5450   51.7270   77.4720 C.2   109  THR109      0.2287
     89  O         54.5690   51.4010   78.1650 O.2   109  THR109     -0.2866
     90  CB        54.8680   52.7800   75.3170 C.3   109  THR109      0.1770
     91  OG1       55.7720   52.0830   74.4360 O.3   109  THR109     -0.2211
     92  CG2       54.4280   54.1050   74.6660 C.3   109  THR109      0.0375
     93  N         55.3400   48.8740   75.9910 N.3   111  GLU111     -0.1245
     94  CA        54.3860   47.9920   75.2940 C.3   111  GLU111      0.1567
     95  C         55.1270   46.9500   74.4560 C.2   111  GLU111      0.2260
     96  O         54.5020   46.1060   73.7920 O.2   111  GLU111     -0.2867
     97  CB        53.4700   48.7920   74.3710 C.3   111  GLU111      0.0388
     98  CG        52.5250   49.7580   75.0470 C.3   111  GLU111      0.1160
     99  CD        51.6570   50.5080   74.0400 C.2   111  GLU111      0.3649
    100  OE1       52.0310   50.5580   72.8400 O.co2 111  GLU111     -0.2457
    101  OE2       50.6030   51.0500   74.4450 O.co2 111  GLU111     -0.2457
@<TRIPOS>BOND
     1    62    61    2
     2    61    60    1
     3    60    59    1
     4    60    63    1
     5    63    64    1
     6    54    53    2
     7    66    64    1
     8    53    52    1
     9    64    65    1
    10    46    45    2
    11    52    51    1
    12    52    55    1
    13    45    51   am
    14    45    44    1
    15    67    68    1
    16    55    56    1
    17    73    72    1
    18    44    43    1
    19    44    47    1
    20    49    48    1
    21    68    71    1
    22    68    69    1
    23    71    72    1
    24    72    74    1
    25    58    56    1
    26    56    57    1
    27    48    47    1
    28    48    50    1
    29    69    70    2
    30    41    40    2
    31    40    39    1
    32    39    38    1
    33    39    42    1
    34    75    76    1
    35    81    83   ar
    36    81    80   ar
    37    83    85   ar
    38    76    79    1
    39    76    77    1
    40    79    80    1
    41    80    82   ar
    42    85    84   ar
    43    77    78    2
    44    36    37   ar
    45    36    34   ar
    46    37    35   ar
    47    82    84   ar
    48    34    31   ar
    49    35    33   ar
    50     8     6    1
    51    17    19   ar
    52    17    15   ar
    53     7     6    1
    54    19    18   ar
    55    33    31   ar
    56    33    32   ar
    57    31    29   ar
    58     6     5    1
    59     4     3    2
    60    15    14   ar
    61    32    30   ar
    62    29    28    1
    63    29    30   ar
    64    18    16   ar
    65     5     2    1
    66    28    25    1
    67     2     3    1
    68     2     1    1
    69     3     9   am
    70    14    16   ar
    71    14    13    1
    72    25    26    1
    73    25    24    1
    74    26    27    2
    75     9    10    1
    76    10    13    1
    77    10    11    1
    78    24    22   am
    79    11    12    2
    80    23    22    2
    81    22    21    1
    82    20    21    1
    83   100    99   ar
    84    96    95    2
    85    99   101   ar
    86    99    98    1
    87    97    98    1
    88    97    94    1
    89    91    90    1
    90    95    94    1
    91    92    90    1
    92    94    93    1
    93    90    87    1
    94    86    87    1
    95    87    88    1
    96    88    89    2
