@<TRIPOS>MOLECULE
tmp/4qtnC00.pdb
 185 178 0 0 0
SMALL
GASTEIGER

@<TRIPOS>ATOM
      1  N         61.0480   42.9010   58.0030 N.3    51  CYS51      -0.1221
      2  CA        62.3430   42.6450   58.6390 C.3    51  CYS51       0.1808
      3  C         63.0310   43.9520   58.9970 C.2    51  CYS51       0.2601
      4  O         63.2570   44.2330   60.1690 O.2    51  CYS51      -0.2717
      5  CB        63.2530   41.7870   57.7810 C.3    51  CYS51       0.0970
      6  SG        64.8670   41.4520   58.5630 S.3    51  CYS51      -0.0800
      7  N         63.3190   44.7690   57.9950 N.am   52  VAL52      -0.1979
      8  CA        64.0910   45.9940   58.2160 C.3    52  VAL52       0.1595
      9  C         63.3600   47.0800   59.0230 C.2    52  VAL52       0.2287
     10  O         63.9830   47.8160   59.7790 O.2    52  VAL52      -0.2864
     11  CB        64.6170   46.5850   56.9100 C.3    52  VAL52       0.0276
     12  CG1       65.5260   45.5710   56.2100 C.3    52  VAL52       0.0022
     13  CG2       63.4540   47.0130   56.0220 C.3    52  VAL52       0.0022
     14  N         64.0600   45.9610   62.5370 N.3    55  VAL55      -0.1245
     15  CA        65.4450   46.3260   62.9190 C.3    55  VAL55       0.1561
     16  C         65.5310   47.8220   63.2900 C.2    55  VAL55       0.2260
     17  O         66.0930   48.1880   64.3280 O.2    55  VAL55      -0.2867
     18  CB        66.4800   45.9800   61.8110 C.3    55  VAL55       0.0252
     19  CG1       67.8080   46.6690   62.0750 C.3    55  VAL55       0.0019
     20  CG2       66.6830   44.4880   61.7280 C.3    55  VAL55       0.0019
     21  N         62.3700   40.7260   64.3870 N.3    62  ASN62      -0.1225
     22  CA        62.8420   40.9760   63.0400 C.3    62  ASN62       0.1785
     23  C         63.4420   39.7110   62.4540 C.2    62  ASN62       0.2597
     24  O         63.2790   39.4380   61.2730 O.2    62  ASN62      -0.2718
     25  CB        63.8660   42.1300   63.0060 C.3    62  ASN62       0.1169
     26  CG        65.3050   41.6430   63.0920 C.2    62  ASN62       0.2627
     27  OD1       65.9240   41.2870   62.0740 O.2    62  ASN62      -0.2716
     28  ND2       65.8540   41.6370   64.3060 N.am   62  ASN62      -0.0877
     29  N         64.0780   38.9080   63.3060 N.am   63  TYR63      -0.1976
     30  CA        64.9130   37.7980   62.8400 C.3    63  TYR63       0.1639
     31  C         64.1380   36.6640   62.1800 C.2    63  TYR63       0.2290
     32  O         64.6130   36.0680   61.2040 O.2    63  TYR63      -0.2864
     33  CB        65.7890   37.2640   63.9610 C.3    63  TYR63       0.0560
     34  CG        66.9320   38.1820   64.3130 C.ar   63  TYR63      -0.0198
     35  CD1       67.9400   38.4510   63.3960 C.ar   63  TYR63      -0.0009
     36  CD2       67.0030   38.7790   65.5650 C.ar   63  TYR63      -0.0009
     37  CE1       68.9850   39.2890   63.7170 C.ar   63  TYR63       0.0417
     38  CE2       68.0480   39.6140   65.8980 C.ar   63  TYR63       0.0417
     39  CZ        69.0370   39.8670   64.9740 C.ar   63  TYR63       0.1957
     40  OH        70.0790   40.7130   65.3030 O.3    63  TYR63      -0.2866
     41  N         63.2880   37.9850   58.8090 N.3    66  GLY66      -0.1225
     42  CA        64.5200   38.0070   58.0320 C.3    66  GLY66       0.1811
     43  C         64.8430   36.6520   57.4500 C.2    66  GLY66       0.2280
     44  O         65.2100   36.5390   56.2680 O.2    66  GLY66      -0.2866
     45  N         62.6320   35.9860   54.5010 N.3    69  SER69      -0.1202
     46  CA        62.8520   36.9650   53.4770 C.3    69  SER69       0.2020
     47  C         64.1280   36.7220   52.6990 C.2    69  SER69       0.2618
     48  O         64.0900   36.6470   51.4640 O.2    69  SER69      -0.2717
     49  CB        62.8650   38.3570   54.0710 C.3    69  SER69       0.2103
     50  OG        63.3340   39.2890   53.1110 O.3    69  SER69      -0.2182
     51  N         65.2640   36.6220   53.4090 N.am   70  VAL70      -0.1979
     52  CA        66.5790   36.4780   52.7390 C.3    70  VAL70       0.1595
     53  C         66.7000   35.1830   51.9220 C.2    70  VAL70       0.2287
     54  O         67.4250   35.1380   50.9230 O.2    70  VAL70      -0.2864
     55  CB        67.7990   36.6200   53.7090 C.3    70  VAL70       0.0276
     56  CG1       67.9600   38.0600   54.1720 C.3    70  VAL70       0.0022
     57  CG2       67.7060   35.6520   54.8910 C.3    70  VAL70       0.0022
     58  N         72.9950   36.3840   50.5630 N.3    87  ASN87      -0.1240
     59  CA        71.8330   36.0370   51.3820 C.3    87  ASN87       0.1653
     60  C         71.8650   34.6010   51.8880 C.2    87  ASN87       0.2266
     61  O         71.6320   34.3540   53.0760 O.2    87  ASN87      -0.2867
     62  CB        70.5250   36.3110   50.6400 C.3    87  ASN87       0.1155
     63  CG        70.2130   37.7940   50.5350 C.2    87  ASN87       0.2627
     64  OD1       69.3190   38.3120   51.2150 O.2    87  ASN87      -0.2716
     65  ND2       70.9460   38.4870   49.6760 N.am   87  ASN87      -0.0877
     66  N         73.5820   35.7940   55.3710 N.3    91  TYR91      -0.1241
     67  CA        72.3970   36.2770   56.1000 C.3    91  TYR91       0.1605
     68  C         71.6050   35.1490   56.7810 C.2    91  TYR91       0.2264
     69  O         71.0690   35.3440   57.8670 O.2    91  TYR91      -0.2867
     70  CB        71.4650   37.1080   55.2010 C.3    91  TYR91       0.0534
     71  CG        72.0010   38.4630   54.7800 C.ar   91  TYR91      -0.0201
     72  CD1       73.1020   39.0480   55.4280 C.ar   91  TYR91      -0.0009
     73  CD2       71.3800   39.1870   53.7550 C.ar   91  TYR91      -0.0009
     74  CE1       73.5890   40.3040   55.0360 C.ar   91  TYR91       0.0417
     75  CE2       71.8560   40.4390   53.3530 C.ar   91  TYR91       0.0417
     76  CZ        72.9580   40.9960   53.9930 C.ar   91  TYR91       0.1957
     77  OH        73.4280   42.2320   53.5950 O.3    91  TYR91      -0.2866
     78  N         70.9070   35.1380   60.8920 N.3    95  GLN95      -0.1245
     79  CA        69.5840   35.3300   61.4900 C.3    95  GLN95       0.1566
     80  C         69.5020   34.7150   62.8920 C.2    95  GLN95       0.2260
     81  O         68.9650   35.3360   63.8190 O.2    95  GLN95      -0.2867
     82  CB        68.4790   34.7580   60.5910 C.3    95  GLN95       0.0367
     83  CG        68.1860   35.5880   59.3530 C.3    95  GLN95       0.0905
     84  CD        67.9980   37.0670   59.6640 C.2    95  GLN95       0.2608
     85  OE1       67.0950   37.4500   60.4100 O.2    95  GLN95      -0.2717
     86  NE2       68.8570   37.9060   59.0910 N.am   95  GLN95      -0.0878
     87  N         75.9390   44.0290   58.2680 N.3   165  GLN165     -0.1245
     88  CA        75.2610   42.9410   58.9880 C.3   165  GLN165      0.1566
     89  C         75.9390   42.6580   60.3160 C.2   165  GLN165      0.2260
     90  O         75.2910   42.2300   61.2870 O.2   165  GLN165     -0.2867
     91  CB        75.2290   41.6690   58.1420 C.3   165  GLN165      0.0367
     92  CG        74.3320   40.5800   58.7020 C.3   165  GLN165      0.0905
     93  CD        72.9050   41.0580   58.9280 C.2   165  GLN165      0.2608
     94  OE1       72.3440   41.7840   58.1180 O.2   165  GLN165     -0.2717
     95  NE2       72.3160   40.6430   60.0260 N.am  165  GLN165     -0.0878
     96  N         75.7280   51.0530   61.8040 N.3   174  GLN174     -0.1231
     97  CA        75.2970   50.1410   60.7630 C.3   174  GLN174      0.1698
     98  C         74.4670   50.8910   59.7080 C.2   174  GLN174      0.2592
     99  O         74.6750   50.7180   58.5140 O.2   174  GLN174     -0.2718
    100  CB        74.4790   49.0050   61.3710 C.3   174  GLN174      0.0381
    101  CG        73.2600   49.4910   62.1600 C.3   174  GLN174      0.0905
    102  CD        72.2110   48.4190   62.3450 C.2   174  GLN174      0.2608
    103  OE1       71.7420   47.8210   61.3770 O.2   174  GLN174     -0.2717
    104  NE2       71.8370   48.1650   63.5950 N.am  174  GLN174     -0.0878
    105  N         73.5610   51.7570   60.1690 N.am  175  TRP175     -0.1976
    106  CA        72.7090   52.5510   59.2750 C.3   175  TRP175      0.1640
    107  C         73.4290   53.4480   58.2620 C.2   175  TRP175      0.2290
    108  O         72.9360   53.6460   57.1580 O.2   175  TRP175     -0.2864
    109  CB        71.6720   53.3440   60.0660 C.3   175  TRP175      0.0576
    110  CG        70.7990   52.4580   60.8740 C.ar  175  TRP175      0.0006
    111  CD1       70.8780   52.2480   62.2060 C.ar  175  TRP175      0.0946
    112  CD2       69.7470   51.6000   60.3940 C.ar  175  TRP175      0.0152
    113  NE1       69.9280   51.3450   62.6050 N.ar  175  TRP175     -0.2442
    114  CE2       69.2190   50.9300   61.5090 C.ar  175  TRP175      0.0810
    115  CE3       69.1890   51.3550   59.1360 C.ar  175  TRP175      0.0012
    116  CZ2       68.1670   50.0150   61.4080 C.ar  175  TRP175      0.0191
    117  CZ3       68.1470   50.4460   59.0390 C.ar  175  TRP175      0.0001
    118  CH2       67.6590   49.7790   60.1670 C.ar  175  TRP175      0.0015
    119  N         74.1450   50.6470   55.7970 N.3   178  TRP178     -0.1241
    120  CA        72.8510   50.3190   55.1400 C.3   178  TRP178      0.1605
    121  C         72.4220   51.3320   54.0700 C.2   178  TRP178      0.2264
    122  O         71.8880   50.9380   53.0410 O.2   178  TRP178     -0.2867
    123  CB        71.7200   50.1750   56.1490 C.3   178  TRP178      0.0550
    124  CG        71.8520   49.0450   57.0780 C.ar  178  TRP178      0.0003
    125  CD1       71.7110   49.0870   58.4370 C.ar  178  TRP178      0.0946
    126  CD2       72.1480   47.6870   56.7450 C.ar  178  TRP178      0.0152
    127  NE1       71.9070   47.8360   58.9700 N.ar  178  TRP178     -0.2442
    128  CE2       72.1720   46.9580   57.9510 C.ar  178  TRP178      0.0810
    129  CE3       72.4090   47.0160   55.5500 C.ar  178  TRP178      0.0012
    130  CZ2       72.4240   45.5910   57.9890 C.ar  178  TRP178      0.0191
    131  CZ3       72.6660   45.6500   55.5970 C.ar  178  TRP178      0.0001
    132  CH2       72.6690   44.9600   56.8030 C.ar  178  TRP178      0.0015
    133  N         74.4660   50.3570   51.0910 N.3   181  VAL181     -0.1231
    134  CA        74.0130   49.0960   50.4680 C.3   181  VAL181      0.1692
    135  C         72.6730   49.2270   49.7960 C.2   181  VAL181      0.2592
    136  O         72.3840   48.4890   48.8780 O.2   181  VAL181     -0.2718
    137  CB        74.0020   47.8510   51.4040 C.3   181  VAL181      0.0266
    138  CG1       74.9330   48.0320   52.5850 C.3   181  VAL181      0.0020
    139  CG2       72.5820   47.5060   51.8380 C.3   181  VAL181      0.0020
    140  N         71.8550   50.1760   50.2250 N.am  182  ASN182     -0.1974
    141  CA        70.5350   50.3310   49.5870 C.3   182  ASN182      0.1688
    142  C         70.5540   51.1330   48.2640 C.2   182  ASN182      0.2292
    143  O         69.9740   50.7010   47.2700 O.2   182  ASN182     -0.2864
    144  CB        69.4540   50.8210   50.5820 C.3   182  ASN182      0.1181
    145  CG        69.1230   49.7690   51.6620 C.2   182  ASN182      0.2629
    146  OD1       68.5960   50.1030   52.7370 O.2   182  ASN182     -0.2716
    147  ND2       69.4700   48.4980   51.3900 N.am  182  ASN182     -0.0877
    148  N         63.7520   47.5610   47.5800 N.3   206  TYR206     -0.1241
    149  CA        64.9810   48.2980   47.8970 C.3   206  TYR206      0.1605
    150  C         64.8380   49.8030   47.9400 C.2   206  TYR206      0.2264
    151  O         65.6330   50.4700   48.5940 O.2   206  TYR206     -0.2867
    152  CB        66.1510   47.8800   47.0080 C.3   206  TYR206      0.0534
    153  CG        66.8730   46.7330   47.5890 C.ar  206  TYR206     -0.0201
    154  CD1       67.8740   46.9280   48.5230 C.ar  206  TYR206     -0.0009
    155  CD2       66.4750   45.4350   47.3110 C.ar  206  TYR206     -0.0009
    156  CE1       68.4980   45.8590   49.1330 C.ar  206  TYR206      0.0417
    157  CE2       67.0970   44.3520   47.9050 C.ar  206  TYR206      0.0417
    158  CZ        68.1040   44.5680   48.8230 C.ar  206  TYR206      0.1957
    159  OH        68.7260   43.4980   49.4270 O.3   206  TYR206     -0.2866
    160  N         63.4050   50.0970   51.3760 N.3   208  TYR208     -0.1241
    161  CA        64.5680   49.8900   52.2340 C.3   208  TYR208      0.1605
    162  C         65.3530   51.1730   52.4740 C.2   208  TYR208      0.2264
    163  O         65.7670   51.4370   53.5960 O.2   208  TYR208     -0.2867
    164  CB        65.5010   48.8370   51.6390 C.3   208  TYR208      0.0534
    165  CG        65.1660   47.4370   52.0400 C.ar  208  TYR208     -0.0201
    166  CD1       63.9040   47.1250   52.5570 C.ar  208  TYR208     -0.0009
    167  CD2       66.0970   46.3950   51.8760 C.ar  208  TYR208     -0.0009
    168  CE1       63.5790   45.8260   52.9160 C.ar  208  TYR208      0.0417
    169  CE2       65.7800   45.0850   52.2290 C.ar  208  TYR208      0.0417
    170  CZ        64.5170   44.8070   52.7530 C.ar  208  TYR208      0.1957
    171  OH        64.1860   43.5200   53.1150 O.3   208  TYR208     -0.2866
    172  N         63.4990   53.6280   54.8380 N.3   211  ASN211     -0.1225
    173  CA        63.5630   53.0720   56.1810 C.3   211  ASN211      0.1785
    174  C         64.9640   53.1320   56.7860 C.2   211  ASN211      0.2597
    175  O         65.1160   53.3500   57.9850 O.2   211  ASN211     -0.2718
    176  CB        63.0310   51.6400   56.1690 C.3   211  ASN211      0.1169
    177  CG        63.4160   50.8520   57.4130 C.2   211  ASN211      0.2627
    178  OD1       62.7750   50.9830   58.4770 O.2   211  ASN211     -0.2716
    179  ND2       64.4660   49.9940   57.2850 N.am  211  ASN211     -0.0877
    180  N         65.9870   52.9400   55.9590 N.am  212  SER212     -0.1952
    181  CA        67.3530   52.9880   56.4590 C.3   212  SER212      0.1924
    182  C         67.7490   54.4020   56.9130 C.2   212  SER212      0.2314
    183  O         68.6330   54.5490   57.7540 O.2   212  SER212     -0.2863
    184  CB        68.3560   52.4030   55.4450 C.3   212  SER212      0.2116
    185  OG        68.6570   53.3260   54.4140 O.3   212  SER212     -0.2180
@<TRIPOS>BOND
     1   152   153    1
     2   152   149    1
     3   143   142    2
     4   155   153   ar
     5   155   157   ar
     6   148   149    1
     7   153   154   ar
     8   149   150    1
     9   157   158   ar
    10   150   151    2
    11   142   141    1
    12   154   156   ar
    13   158   156   ar
    14   158   159    1
    15   136   135    2
    16   141   140    1
    17   141   144    1
    18    65    63   am
    19   135   140   am
    20   135   134    1
    21   134   133    1
    22   134   137    1
    23    63    62    1
    24    63    64    2
    25    58    59    1
    26   144   145    1
    27    62    59    1
    28    54    53    2
    29   160   161    1
    30    59    60    1
    31   147   145   am
    32   137   139    1
    33   137   138    1
    34    48    47    2
    35   164   165    1
    36   164   161    1
    37   145   146    2
    38   167   165   ar
    39   167   169   ar
    40    60    61    2
    41    53    52    1
    42   165   166   ar
    43   169   170   ar
    44   161   162    1
    45   162   163    2
    46   166   168   ar
    47    47    51   am
    48    47    46    1
    49    52    51    1
    50    52    55    1
    51   170   168   ar
    52   170   171    1
    53   122   121    2
    54    50    49    1
    55    75    73   ar
    56    75    76   ar
    57    46    49    1
    58    46    45    1
    59    77    76    1
    60    55    56    1
    61    55    57    1
    62    73    71   ar
    63    76    74   ar
    64   121   120    1
    65   185   184    1
    66    71    70    1
    67    71    72   ar
    68   172   173    1
    69    74    72   ar
    70   120   119    1
    71   120   123    1
    72    70    67    1
    73    66    67    1
    74   184   181    1
    75   129   131   ar
    76   129   126   ar
    77   131   132   ar
    78   180   181    1
    79   180   174   am
    80    13    11    1
    81    67    68    1
    82   123   124    1
    83   176   173    1
    84   176   177    1
    85   173   174    1
    86    12    11    1
    87    44    43    2
    88   181   182    1
    89   126   124   ar
    90   126   128   ar
    91    68    69    2
    92   174   175    2
    93   132   130   ar
    94    11     8    1
    95   182   183    2
    96   124   125   ar
    97   108   107    2
    98   179   177   am
    99   177   178    2
   100    43    42    1
   101     5     6    1
   102     5     2    1
   103   128   130   ar
   104   128   127   ar
   105     7     8    1
   106     7     3   am
   107     1     2    1
   108    42    41    1
   109    94    93    2
   110    91    92    1
   111    91    88    1
   112     8     9    1
   113   107   106    1
   114    87    88    1
   115   125   127   ar
   116    99    98    2
   117     2     3    1
   118    92    93    1
   119    93    95   am
   120    88    89    1
   121     3     4    2
   122     9    10    2
   123   117   115   ar
   124   117   118   ar
   125    86    84   am
   126   115   112   ar
   127   106   109    1
   128   106   105    1
   129    83    84    1
   130    83    82    1
   131    84    85    2
   132    98   105   am
   133    98    97    1
   134   109   110    1
   135   118   116   ar
   136    89    90    2
   137   112   110   ar
   138   112   114   ar
   139    82    79    1
   140    97   100    1
   141    97    96    1
   142   110   111   ar
   143    78    79    1
   144    32    31    2
   145    24    23    2
   146   100   101    1
   147   103   102    2
   148   116   114   ar
   149    79    80    1
   150   114   113   ar
   151    20    18    1
   152    18    19    1
   153    18    15    1
   154    27    26    2
   155   101   102    1
   156    31    30    1
   157   111   113   ar
   158   102   104   am
   159    23    22    1
   160    23    29   am
   161    14    15    1
   162    30    29    1
   163    30    33    1
   164    80    81    2
   165    15    16    1
   166    25    22    1
   167    25    26    1
   168    22    21    1
   169    26    28   am
   170    16    17    2
   171    35    37   ar
   172    35    34   ar
   173    37    39   ar
   174    33    34    1
   175    34    36   ar
   176    39    40    1
   177    39    38   ar
   178    36    38   ar
