@<TRIPOS>MOLECULE
tmp/4qtoB02.pdb
 91 90 0 0 0
SMALL
GASTEIGER

@<TRIPOS>ATOM
      1  N        259.9640   32.8610   28.0680 N.3   156  PRO156     -0.2102
      2  CA       259.3570   32.0810   27.0100 C.3   156  PRO156      0.1504
      3  C        259.4000   30.5880   27.2870 C.2   156  PRO156      0.2576
      4  O        260.0510   30.1070   28.2230 O.2   156  PRO156     -0.2718
      5  CB       260.2400   32.4140   25.8090 C.3   156  PRO156      0.0282
      6  CG       261.5880   32.4760   26.4050 C.3   156  PRO156      0.0208
      7  CD       261.3880   33.1440   27.7440 C.3   156  PRO156      0.0893
      8  N        258.7020   29.8530   26.4370 N.am  157  TRP157     -0.1963
      9  CA       258.5810   28.4230   26.6000 C.3   157  TRP157      0.1771
     10  C        259.7160   27.5900   26.0110 C.2   157  TRP157      0.2619
     11  O        259.8200   26.4090   26.3170 O.2   157  TRP157     -0.2715
     12  CB       257.2410   27.9170   26.0260 C.3   157  TRP157      0.0590
     13  CG       256.9250   28.3980   24.6330 C.ar  157  TRP157      0.0006
     14  CD1      256.0510   29.3890   24.2730 C.ar  157  TRP157      0.0946
     15  CD2      257.4930   27.8940   23.4110 C.ar  157  TRP157      0.0152
     16  NE1      256.0380   29.5410   22.8910 N.ar  157  TRP157     -0.2442
     17  CE2      256.9070   28.6190   22.3460 C.ar  157  TRP157      0.0810
     18  CE3      258.4150   26.8680   23.1220 C.ar  157  TRP157      0.0012
     19  CZ2      257.2240   28.3680   21.0190 C.ar  157  TRP157      0.0191
     20  CZ3      258.6970   26.5880   21.7880 C.ar  157  TRP157      0.0001
     21  CH2      258.1330   27.3590   20.7620 C.ar  157  TRP157      0.0015
     22  N        260.5660   28.1840   25.1850 N.am  158  ASN158     -0.1972
     23  CA       261.5860   27.3570   24.5350 C.3   158  ASN158      0.1688
     24  C        262.7380   26.8970   25.4250 C.2   158  ASN158      0.2292
     25  O        263.0740   25.6940   25.4410 O.2   158  ASN158     -0.2864
     26  CB       262.0420   27.9630   23.2080 C.3   158  ASN158      0.1181
     27  CG       262.6620   29.3380   23.3330 C.2   158  ASN158      0.2629
     28  OD1      262.6370   29.9910   24.3780 O.2   158  ASN158     -0.2716
     29  ND2      263.2640   29.7740   22.2420 N.am  158  ASN158     -0.0877
     30  N        259.8520   36.8700   24.2800 N.3   234  GLY234     -0.1210
     31  CA       258.7410   36.1620   23.6900 C.3   234  GLY234      0.1956
     32  C        258.4140   36.6550   22.2910 C.2   234  GLY234      0.2612
     33  O        259.2790   37.1740   21.6070 O.2   234  GLY234     -0.2717
     34  N        257.1610   36.5010   21.8850 N.am  235  GLY235     -0.1956
     35  CA       256.7450   36.8520   20.5410 C.3   235  GLY235      0.1869
     36  C        256.6330   38.3380   20.2890 C.2   235  GLY235      0.2309
     37  O        256.3390   39.1030   21.2060 O.2   235  GLY235     -0.2863
     38  N        262.7460   39.5280   21.1630 N.3   257  LEU257     -0.1245
     39  CA       261.6160   39.0550   20.3780 C.3   257  LEU257      0.1561
     40  C        261.8670   38.1000   19.2200 C.2   257  LEU257      0.2260
     41  O        260.9910   37.9190   18.3760 O.2   257  LEU257     -0.2867
     42  CB       260.8690   40.2670   19.8470 C.3   257  LEU257      0.0270
     43  CG       260.5200   41.3510   20.8770 C.3   257  LEU257      0.0019
     44  CD1      259.8170   42.5220   20.2070 C.3   257  LEU257      0.0001
     45  CD2      259.6670   40.7870   22.0040 C.3   257  LEU257      0.0001
     46  N        251.1500   25.7590   18.4760 N.3   336  HIS336     -0.1241
     47  CA       252.3850   26.1020   17.7690 C.3   336  HIS336      0.1621
     48  C        252.5500   25.2240   16.5220 C.2   336  HIS336      0.2264
     49  O        252.9540   25.7060   15.4540 O.2   336  HIS336     -0.2867
     50  CB       253.6200   26.0030   18.6660 C.3   336  HIS336      0.0745
     51  CG       254.8200   26.6550   18.0670 C.ar  336  HIS336      0.0817
     52  ND1      254.8100   27.9750   17.6710 N.ar  336  HIS336     -0.2268
     53  CD2      256.0490   26.1770   17.7500 C.ar  336  HIS336      0.1154
     54  CE1      255.9830   28.2850   17.1460 C.ar  336  HIS336      0.1986
     55  NE2      256.7510   27.2140   17.1810 N.ar  336  HIS336     -0.2212
     56  N        250.4360   26.5210   13.8410 N.3   339  LYS339     -0.1245
     57  CA       250.9840   27.7500   13.2450 C.3   339  LYS339      0.1561
     58  C        252.0550   27.3960   12.2030 C.2   339  LYS339      0.2260
     59  O        252.0780   27.9460   11.0830 O.2   339  LYS339     -0.2867
     60  CB       251.5810   28.6440   14.3080 C.3   339  LYS339      0.0271
     61  CG       251.9490   30.0220   13.7800 C.3   339  LYS339      0.0035
     62  CD       252.8170   30.8130   14.7550 C.3   339  LYS339      0.0206
     63  CE       252.2250   30.9170   16.1530 C.3   339  LYS339      0.1093
     64  NZ       250.9130   31.6170   16.1850 N.3   339  LYS339     -0.1314
     65  N        258.9970   34.9820   10.9180 N.3   390  GLU390     -0.1231
     66  CA       259.6020   33.9770   11.8170 C.3   390  GLU390      0.1699
     67  C        258.6020   32.8480   12.0730 C.2   390  GLU390      0.2592
     68  O        257.5940   33.0450   12.7120 O.2   390  GLU390     -0.2718
     69  CB       260.0270   34.5800   13.1790 C.3   390  GLU390      0.0402
     70  CG       260.7150   33.6100   14.1630 C.3   390  GLU390      0.1161
     71  CD       260.8890   34.1720   15.5930 C.2   390  GLU390      0.3649
     72  OE1      259.8820   34.5990   16.1940 O.co2 390  GLU390     -0.2457
     73  OE2      262.0110   34.0640   16.1550 O.co2 390  GLU390     -0.2457
     74  N        258.9410   31.6600   11.6200 N.am  391  VAL391     -0.1966
     75  CA       258.0940   30.4710   11.7950 C.3   391  VAL391      0.1727
     76  C        258.3630   29.8280   13.1780 C.2   391  VAL391      0.2616
     77  O        257.4560   29.2680   13.7950 O.2   391  VAL391     -0.2715
     78  CB       258.3920   29.4580   10.6410 C.3   391  VAL391      0.0290
     79  CG1      257.6320   28.1810   10.8090 C.3   391  VAL391      0.0023
     80  CG2      258.0850   30.0860    9.2610 C.3   391  VAL391      0.0023
     81  N        259.6270   29.8460   13.6090 N.am  392  PHE392     -0.1974
     82  CA       260.0390   29.2760   14.9040 C.3   392  PHE392      0.1639
     83  C        259.7420   27.7700   14.9750 C.2   392  PHE392      0.2290
     84  O        259.2420   27.2440   15.9720 O.2   392  PHE392     -0.2864
     85  CB       259.2770   29.9900   15.9830 C.3   392  PHE392      0.0560
     86  CG       260.0160   30.1690   17.2220 C.ar  392  PHE392     -0.0200
     87  CD1      261.0240   31.1100   17.2800 C.ar  392  PHE392     -0.0042
     88  CD2      259.6530   29.4870   18.3840 C.ar  392  PHE392     -0.0042
     89  CE1      261.7020   31.3210   18.4640 C.ar  392  PHE392     -0.0003
     90  CE2      260.3260   29.7200   19.5740 C.ar  392  PHE392     -0.0003
     91  CZ       261.3430   30.6350   19.6130 C.ar  392  PHE392     -0.0000
@<TRIPOS>BOND
     1    80    78    1
     2    78    79    1
     3    78    75    1
     4    65    66    1
     5    59    58    2
     6    74    75    1
     7    74    67   am
     8    75    76    1
     9    66    67    1
    10    66    69    1
    11    67    68    2
    12    58    57    1
    13    76    81   am
    14    76    77    2
    15    69    70    1
    16    57    56    1
    17    57    60    1
    18    81    82    1
    19    61    60    1
    20    61    62    1
    21    70    71    1
    22    62    63    1
    23    82    83    1
    24    82    85    1
    25    83    84    2
    26    49    48    2
    27    71    73   ar
    28    71    72   ar
    29    85    86    1
    30    63    64    1
    31    48    47    1
    32    54    55   ar
    33    54    52   ar
    34    55    53   ar
    35    86    87   ar
    36    86    88   ar
    37    87    89   ar
    38    52    51   ar
    39    53    51   ar
    40    47    46    1
    41    47    50    1
    42    51    50    1
    43    41    40    2
    44    88    90   ar
    45    89    91   ar
    46    40    39    1
    47    90    91   ar
    48    42    39    1
    49    42    43    1
    50    44    43    1
    51    36    35    1
    52    36    37    2
    53    39    38    1
    54    35    34    1
    55    21    19   ar
    56    21    20   ar
    57    43    45    1
    58    19    17   ar
    59    33    32    2
    60    20    18   ar
    61    34    32   am
    62    29    27   am
    63    32    31    1
    64    17    16   ar
    65    17    15   ar
    66    16    14   ar
    67    18    15   ar
    68    26    27    1
    69    26    23    1
    70    27    28    2
    71    15    13   ar
    72    31    30    1
    73    14    13   ar
    74    23    22    1
    75    23    24    1
    76    13    12    1
    77    22    10   am
    78    24    25    2
    79     5     6    1
    80     5     2    1
    81    10    11    2
    82    10     9    1
    83    12     9    1
    84     6     7    1
    85     8     9    1
    86     8     3   am
    87     2     3    1
    88     2     1    1
    89     3     4    2
    90     7     1    1
