@<TRIPOS>MOLECULE
tmp/4qtuB00.pdb
 197 188 0 0 0
SMALL
GASTEIGER

@<TRIPOS>ATOM
      1  N         16.0070  -19.6360   43.3890 N.3     3  TYR3       -0.1241
      2  CA        16.7070  -19.1410   44.5730 C.3     3  TYR3        0.1605
      3  C         15.7950  -19.1370   45.8020 C.2     3  TYR3        0.2264
      4  O         14.5770  -19.2850   45.6900 O.2     3  TYR3       -0.2867
      5  CB        17.2620  -17.7260   44.3240 C.3     3  TYR3        0.0534
      6  CG        18.5300  -17.7040   43.4770 C.ar    3  TYR3       -0.0201
      7  CD1       19.7580  -18.0830   44.0190 C.ar    3  TYR3       -0.0009
      8  CD2       18.4960  -17.3120   42.1360 C.ar    3  TYR3       -0.0009
      9  CE1       20.9210  -18.0750   43.2530 C.ar    3  TYR3        0.0417
     10  CE2       19.6560  -17.2960   41.3600 C.ar    3  TYR3        0.0417
     11  CZ        20.8610  -17.6810   41.9240 C.ar    3  TYR3        0.1957
     12  OH        22.0090  -17.6710   41.1630 O.3     3  TYR3       -0.2866
     13  N         25.4450  -17.4400   47.6430 N.3    11  TYR11      -0.1241
     14  CA        25.9720  -16.9480   46.3680 C.3    11  TYR11       0.1605
     15  C         26.6690  -15.5800   46.5400 C.2    11  TYR11       0.2264
     16  O         27.8500  -15.4290   46.2150 O.2    11  TYR11      -0.2867
     17  CB        24.8390  -16.8590   45.3360 C.3    11  TYR11       0.0534
     18  CG        25.1970  -16.1560   44.0330 C.ar   11  TYR11      -0.0201
     19  CD1       25.6580  -16.8720   42.9290 C.ar   11  TYR11      -0.0009
     20  CD2       25.0600  -14.7730   43.9070 C.ar   11  TYR11      -0.0009
     21  CE1       25.9660  -16.2270   41.7400 C.ar   11  TYR11       0.0417
     22  CE2       25.3760  -14.1200   42.7360 C.ar   11  TYR11       0.0417
     23  CZ        25.8290  -14.8460   41.6560 C.ar   11  TYR11       0.1957
     24  OH        26.1350  -14.1790   40.4870 O.3    11  TYR11      -0.2866
     25  N         32.2190  -12.6950   39.0280 N.3    21  GLN21      -0.1245
     26  CA        31.2040  -11.7600   38.5680 C.3    21  GLN21       0.1566
     27  C         31.8390  -10.3800   38.3370 C.2    21  GLN21       0.2260
     28  O         31.5290   -9.7050   37.3560 O.2    21  GLN21      -0.2867
     29  CB        30.0560  -11.6650   39.5660 C.3    21  GLN21       0.0367
     30  CG        29.3410  -12.9960   39.8240 C.3    21  GLN21       0.0905
     31  CD        28.9110  -13.6940   38.5520 C.2    21  GLN21       0.2608
     32  OE1       29.3350  -14.8180   38.2780 O.2    21  GLN21      -0.2717
     33  NE2       28.0650  -13.0370   37.7630 N.am   21  GLN21      -0.0878
     34  N         20.6550   -2.6620   34.1360 N.3    42  ASP42      -0.1239
     35  CA        21.3440   -3.9310   34.4720 C.3    42  ASP42       0.1674
     36  C         20.3270   -5.0790   34.5660 C.2    42  ASP42       0.2266
     37  O         19.5000   -5.1240   35.4710 O.2    42  ASP42      -0.2867
     38  CB        22.1320   -3.8240   35.7890 C.3    42  ASP42       0.1410
     39  CG        22.9450   -5.0990   36.0970 C.2    42  ASP42       0.3668
     40  OD1       23.0510   -5.9880   35.2230 O.co2  42  ASP42      -0.2456
     41  OD2       23.5110   -5.2060   37.2050 O.co2  42  ASP42      -0.2456
     42  N         18.9180   -8.7110   35.0960 N.3    44  GLY44      -0.1210
     43  CA        19.2730   -9.8650   35.9090 C.3    44  GLY44       0.1956
     44  C         20.3050   -9.4360   36.9350 C.2    44  GLY44       0.2612
     45  O         21.3190  -10.1060   37.1300 O.2    44  GLY44      -0.2717
     46  N         20.0290   -8.3200   37.6030 N.am   45  CYS45      -0.1956
     47  CA        20.9970   -7.6310   38.4590 C.3    45  CYS45       0.1843
     48  C         21.3400   -8.4080   39.7260 C.2    45  CYS45       0.2626
     49  O         22.3170   -8.0900   40.4140 O.2    45  CYS45      -0.2714
     50  CB        20.4730   -6.2520   38.8390 C.3    45  CYS45       0.0997
     51  SG        18.9770   -6.3040   39.8900 S.3    45  CYS45      -0.0797
     52  N         20.5450   -9.4300   40.0300 N.am   46  GLY46      -0.1940
     53  CA        20.7630  -10.2330   41.2230 C.3    46  GLY46       0.2014
     54  C         20.8280   -9.3820   42.4780 C.2    46  GLY46       0.2639
     55  O         19.9560   -8.5510   42.7180 O.2    46  GLY46      -0.2714
     56  N         21.8810   -9.5910   43.2630 N.am   47  SER47      -0.1949
     57  CA        22.1230   -8.8450   44.5010 C.3    47  SER47       0.1924
     58  C         23.0290   -7.6280   44.2770 C.2    47  SER47       0.2314
     59  O         23.5110   -7.0140   45.2290 O.2    47  SER47      -0.2863
     60  CB        22.7510   -9.7690   45.5470 C.3    47  SER47       0.2116
     61  OG        23.8780  -10.4280   44.9890 O.3    47  SER47      -0.2180
     62  N         26.0330   -7.3060   42.4330 N.3    49  LEU49      -0.1231
     63  CA        27.4840   -7.3980   42.2930 C.3    49  LEU49       0.1693
     64  C         27.9150   -6.7050   41.0060 C.2    49  LEU49       0.2592
     65  O         28.9460   -6.0200   40.9650 O.2    49  LEU49      -0.2718
     66  CB        27.9490   -8.8500   42.2810 C.3    49  LEU49       0.0284
     67  CG        27.6700   -9.6780   43.5380 C.3    49  LEU49       0.0019
     68  CD1       28.0190  -11.1270   43.2760 C.3    49  LEU49       0.0001
     69  CD2       28.4570   -9.1540   44.7340 C.3    49  LEU49       0.0001
     70  N         27.1300   -6.8830   39.9470 N.am   50  SER50      -0.1952
     71  CA        27.4790   -6.2480   38.6890 C.3    50  SER50       0.1924
     72  C         27.1890   -4.7400   38.8230 C.2    50  SER50       0.2314
     73  O         27.9990   -3.9050   38.4140 O.2    50  SER50      -0.2863
     74  CB        26.7340   -6.8910   37.4990 C.3    50  SER50       0.2116
     75  OG        25.3730   -7.2060   37.8010 O.3    50  SER50      -0.2180
     76  N         17.0100   -4.9820   37.0690 N.3    65  LEU65      -0.1231
     77  CA        15.8470   -5.8650   36.9920 C.3    65  LEU65       0.1693
     78  C         16.2290   -7.2660   37.4470 C.2    65  LEU65       0.2592
     79  O         17.2150   -7.8230   36.9550 O.2    65  LEU65      -0.2718
     80  CB        15.3000   -5.9420   35.5600 C.3    65  LEU65       0.0284
     81  CG        14.9620   -4.6660   34.8060 C.3    65  LEU65       0.0019
     82  CD1       14.5960   -5.0290   33.3810 C.3    65  LEU65       0.0001
     83  CD2       13.8190   -3.9350   35.4910 C.3    65  LEU65       0.0001
     84  N         15.4670   -7.8430   38.3760 N.am   66  ASP66      -0.1960
     85  CA        15.6410   -9.2670   38.6940 C.3    66  ASP66       0.1840
     86  C         14.3080   -9.9350   39.0880 C.2    66  ASP66       0.2622
     87  O         13.4590   -9.3110   39.7130 O.2    66  ASP66      -0.2715
     88  CB        16.6660   -9.4590   39.8100 C.3    66  ASP66       0.1450
     89  CG        17.2700  -10.8770   39.8060 C.2    66  ASP66       0.3671
     90  OD1       16.5970  -11.8230   40.2720 O.co2  66  ASP66      -0.2456
     91  OD2       18.4030  -11.0580   39.3020 O.co2  66  ASP66      -0.2456
     92  N         14.1500  -11.2120   38.7280 N.am   67  ILE67      -0.1963
     93  CA        12.9240  -11.9610   38.9870 C.3    67  ILE67       0.1727
     94  C         12.8830  -12.5580   40.3960 C.2    67  ILE67       0.2616
     95  O         11.8300  -13.0040   40.8480 O.2    67  ILE67      -0.2715
     96  CB        12.7320  -13.1020   37.9490 C.3    67  ILE67       0.0290
     97  CG1       11.2510  -13.5480   37.8800 C.3    67  ILE67       0.0022
     98  CG2       13.7010  -14.2710   38.2330 C.3    67  ILE67       0.0023
     99  CD1       10.8910  -14.3480   36.6380 C.3    67  ILE67       0.0001
    100  N         14.0130  -12.5340   41.1020 N.am   68  SER68      -0.1950
    101  CA        14.1140  -13.1710   42.4220 C.3    68  SER68       0.1924
    102  C         14.0440  -12.1930   43.5930 C.2    68  SER68       0.2314
    103  O         14.9060  -11.3310   43.7540 O.2    68  SER68      -0.2863
    104  CB        15.4150  -13.9810   42.5250 C.3    68  SER68       0.2116
    105  OG        15.7440  -14.2890   43.8750 O.3    68  SER68      -0.2180
    106  N         17.2290  -12.6080   45.9840 N.3    71  MET71      -0.1245
    107  CA        18.4060  -11.9130   45.4410 C.3    71  MET71       0.1570
    108  C         18.3160  -10.4090   45.6950 C.2    71  MET71       0.2261
    109  O         19.2880   -9.7770   46.1090 O.2    71  MET71      -0.2867
    110  CB        18.5710  -12.1660   43.9370 C.3    71  MET71       0.0387
    111  CG        19.0210  -13.5670   43.5540 C.3    71  MET71       0.0595
    112  SD        20.6430  -14.0440   44.2350 S.3    71  MET71      -0.1393
    113  CE        21.7840  -13.0980   43.2410 C.3    71  MET71       0.0692
    114  N         11.1590   -7.9650   38.6180 N.3    87  GLN87      -0.1231
    115  CA        10.6870   -7.9500   37.2510 C.3    87  GLN87       0.1698
    116  C         11.1440   -9.1830   36.4630 C.2    87  GLN87       0.2592
    117  O         12.2390   -9.7100   36.6720 O.2    87  GLN87      -0.2718
    118  CB        11.1640   -6.6480   36.5740 C.3    87  GLN87       0.0381
    119  CG        10.3760   -6.2410   35.3070 C.3    87  GLN87       0.0905
    120  CD        10.9800   -6.8150   34.0450 C.2    87  GLN87       0.2608
    121  OE1       12.1220   -7.2980   34.0480 O.2    87  GLN87      -0.2717
    122  NE2       10.2320   -6.7510   32.9500 N.am   87  GLN87      -0.0878
    123  N         10.2900   -9.6210   35.5460 N.am   88  ASP88      -0.1960
    124  CA        10.5700  -10.7380   34.6560 C.3    88  ASP88       0.1840
    125  C         10.9120  -10.2350   33.2480 C.2    88  ASP88       0.2621
    126  O         10.0330   -9.8230   32.4890 O.2    88  ASP88      -0.2715
    127  CB         9.3680  -11.7010   34.6180 C.3    88  ASP88       0.1450
    128  CG         9.5410  -12.8350   33.6010 C.2    88  ASP88       0.3671
    129  OD1       10.6680  -13.0460   33.0990 O.co2  88  ASP88      -0.2456
    130  OD2        8.5420  -13.5320   33.3050 O.co2  88  ASP88      -0.2456
    131  N         12.1980  -10.3060   32.9020 N.am   89  MET89      -0.1977
    132  CA        12.7070   -9.7600   31.6510 C.3    89  MET89       0.1605
    133  C         12.0540  -10.3680   30.4250 C.2    89  MET89       0.2287
    134  O         12.0150   -9.7430   29.3760 O.2    89  MET89      -0.2864
    135  CB        14.2260   -9.9540   31.5530 C.3    89  MET89       0.0413
    136  CG        14.6850  -11.3740   31.1690 C.3    89  MET89       0.0598
    137  SD        16.4980  -11.5410   31.0900 S.3    89  MET89      -0.1393
    138  CE        16.9510  -11.7290   32.7960 C.3    89  MET89       0.0692
    139  N         24.9090   -9.7810   33.1900 N.3   106  ILE106     -0.1231
    140  CA        25.9650  -10.7160   33.5190 C.3   106  ILE106      0.1692
    141  C         25.3700  -12.0310   34.0140 C.2   106  ILE106      0.2593
    142  O         24.7390  -12.0600   35.0710 O.2   106  ILE106     -0.2718
    143  CB        26.9190  -10.1380   34.5890 C.3   106  ILE106      0.0266
    144  CG1       27.3660   -8.7280   34.1970 C.3   106  ILE106      0.0019
    145  CG2       28.1400  -11.0420   34.7550 C.3   106  ILE106      0.0020
    146  CD1       28.1100   -8.6970   32.8620 C.3   106  ILE106      0.0001
    147  N         25.5430  -13.0990   33.2270 N.am  107  SER107     -0.1938
    148  CA        25.1400  -14.4680   33.6220 C.3   107  SER107      0.2055
    149  C         23.6360  -14.6640   33.7970 C.2   107  SER107      0.2642
    150  O         23.2150  -15.3750   34.7000 O.2   107  SER107     -0.2714
    151  CB        25.8560  -14.8790   34.9280 C.3   107  SER107      0.2130
    152  OG        27.2380  -14.5740   34.8560 O.3   107  SER107     -0.2179
    153  N         22.8230  -14.0550   32.9350 N.am  108  ALA108     -0.1977
    154  CA        21.3890  -14.0550   33.1870 C.3   108  ALA108      0.1597
    155  C         20.5270  -14.4970   32.0090 C.2   108  ALA108      0.2287
    156  O         19.5560  -15.2380   32.2150 O.2   108  ALA108     -0.2864
    157  CB        20.9430  -12.6580   33.6580 C.3   108  ALA108      0.0319
    158  N         18.6540  -17.9870   30.9390 N.3   111  TRP111     -0.1227
    159  CA        17.3550  -18.2850   31.5380 C.3   111  TRP111      0.1737
    160  C         16.1690  -18.0850   30.6030 C.2   111  TRP111      0.2595
    161  O         15.1070  -18.6570   30.8350 O.2   111  TRP111     -0.2718
    162  CB        17.1300  -17.4260   32.7890 C.3   111  TRP111      0.0564
    163  CG        17.8340  -17.9510   33.9900 C.ar  111  TRP111      0.0003
    164  CD1       19.0000  -17.4900   34.5290 C.ar  111  TRP111      0.0946
    165  CD2       17.4340  -19.0670   34.7960 C.ar  111  TRP111      0.0152
    166  NE1       19.3360  -18.2320   35.6370 N.ar  111  TRP111     -0.2442
    167  CE2       18.3950  -19.2130   35.8180 C.ar  111  TRP111      0.0810
    168  CE3       16.3430  -19.9460   34.7650 C.ar  111  TRP111      0.0012
    169  CZ2       18.3100  -20.2140   36.7930 C.ar  111  TRP111      0.0191
    170  CZ3       16.2610  -20.9410   35.7320 C.ar  111  TRP111      0.0001
    171  CH2       17.2350  -21.0630   36.7320 C.ar  111  TRP111      0.0015
    172  N         16.3310  -17.2580   29.5670 N.am  112  LEU112     -0.1980
    173  CA        15.2560  -17.0370   28.5940 C.3   112  LEU112      0.1596
    174  C         14.9990  -18.2760   27.7290 C.2   112  LEU112      0.2287
    175  O         13.9480  -18.3770   27.0950 O.2   112  LEU112     -0.2864
    176  CB        15.5650  -15.8350   27.6910 C.3   112  LEU112      0.0297
    177  CG        15.4200  -14.4520   28.3360 C.3   112  LEU112      0.0022
    178  CD1       15.6970  -13.3690   27.3190 C.3   112  LEU112      0.0001
    179  CD2       14.0410  -14.2860   28.9320 C.3   112  LEU112      0.0001
    180  N          8.9480  -20.8630   34.1710 N.3   116  THR116     -0.1218
    181  CA         8.2210  -19.8190   34.9040 C.3   116  THR116      0.1862
    182  C          6.8560  -19.4620   34.2930 C.2   116  THR116      0.2287
    183  O          5.8710  -19.2610   35.0170 O.2   116  THR116     -0.2866
    184  CB         9.0660  -18.5110   35.0150 C.3   116  THR116      0.1770
    185  OG1        9.2470  -17.9230   33.7190 O.3   116  THR116     -0.2211
    186  CG2       10.4260  -18.7960   35.6350 C.3   116  THR116      0.0375
    187  N          9.1450  -15.2810   24.5320 N.3   124  ARG124     -0.1245
    188  CA         9.7650  -14.4680   25.5550 C.3   124  ARG124      0.1563
    189  C         11.0720  -13.8870   25.0480 C.2   124  ARG124      0.2260
    190  O         11.3660  -12.7190   25.2780 O.2   124  ARG124     -0.2867
    191  CB         9.9890  -15.2870   26.8130 C.3   124  ARG124      0.0307
    192  CG         8.7020  -15.5010   27.5740 C.3   124  ARG124      0.0489
    193  CD         8.8120  -16.6510   28.5480 C.3   124  ARG124      0.2205
    194  NE         9.8430  -16.4630   29.5650 N.pl3 124  ARG124     -0.0865
    195  CZ         9.7160  -15.6780   30.6320 C.cat 124  ARG124      0.5346
    196  NH1       10.6990  -15.5940   31.5210 N.pl3 124  ARG124      0.1354
    197  NH2        8.6090  -14.9790   30.8220 N.pl3 124  ARG124      0.1354
@<TRIPOS>BOND
     1   187   188    1
     2   189   190    2
     3   189   188    1
     4   188   191    1
     5   191   192    1
     6   175   174    2
     7   178   177    1
     8   192   193    1
     9   176   177    1
    10   176   173    1
    11   174   173    1
    12   177   179    1
    13   193   194    1
    14   173   172    1
    15   134   133    2
    16   194   195    2
    17   172   160   am
    18   133   132    1
    19   160   161    2
    20   160   159    1
    21   195   197    1
    22   195   196    1
    23   158   159    1
    24   137   136    1
    25   137   138    1
    26   136   135    1
    27   159   162    1
    28   135   132    1
    29   132   131    1
    30   155   156    2
    31   155   154    1
    32   126   125    2
    33   162   163    1
    34   146   144    1
    35   131   125   am
    36   153   154    1
    37   153   149   am
    38   122   120   am
    39   129   128   ar
    40   154   157    1
    41   139   140    1
    42   147   148    1
    43   147   141   am
    44   125   124    1
    45   130   128   ar
    46    82    81    1
    47   140   141    1
    48   140   143    1
    49   128   127    1
    50   148   149    1
    51   148   151    1
    52   185   184    1
    53   149   150    2
    54   163   164   ar
    55   163   165   ar
    56   141   142    2
    57   120   121    2
    58   120   119    1
    59    34    35    1
    60   180   181    1
    61   144   143    1
    62   182   181    1
    63   182   183    2
    64    35    36    1
    65    35    38    1
    66   164   166   ar
    67    36    37    2
    68   143   145    1
    69   127   124    1
    70   124   123    1
    71   168   165   ar
    72   168   170   ar
    73   165   167   ar
    74    81    83    1
    75    81    80    1
    76   152   151    1
    77   181   184    1
    78   184   186    1
    79    42    43    1
    80    40    39   ar
    81   119   118    1
    82   123   116   am
    83    80    77    1
    84   166   167   ar
    85   170   171   ar
    86    38    39    1
    87   167   169   ar
    88    43    44    1
    89    39    41   ar
    90   116   117    2
    91   116   115    1
    92   118   115    1
    93    99    97    1
    94   171   169   ar
    95    44    45    2
    96    44    46   am
    97    79    78    2
    98    77    76    1
    99    77    78    1
   100   115   114    1
   101    28    27    2
   102    78    84   am
   103    74    75    1
   104    74    71    1
   105    46    47    1
   106    33    31   am
   107    97    96    1
   108    96    98    1
   109    96    93    1
   110    32    31    2
   111    27    26    1
   112    84    85    1
   113    73    72    2
   114    47    50    1
   115    47    48    1
   116    31    30    1
   117    26    25    1
   118    26    29    1
   119    71    72    1
   120    71    70    1
   121    85    86    1
   122    85    88    1
   123    92    93    1
   124    92    86   am
   125    50    51    1
   126    93    94    1
   127    86    87    2
   128    91    89   ar
   129    29    30    1
   130    48    52   am
   131    48    49    2
   132    89    88    1
   133    89    90   ar
   134    70    64   am
   135    52    53    1
   136    94    95    2
   137    94   100   am
   138    24    23    1
   139    65    64    2
   140    64    63    1
   141   100   101    1
   142    12    11    1
   143    53    54    1
   144    10    11   ar
   145    10     8   ar
   146    23    21   ar
   147    23    22   ar
   148    21    19   ar
   149    11     9   ar
   150     8     6   ar
   151    66    63    1
   152    66    67    1
   153    63    62    1
   154   101   104    1
   155   101   102    1
   156    54    55    2
   157    54    56   am
   158   104   105    1
   159    22    20   ar
   160    19    18   ar
   161   113   112    1
   162     9     7   ar
   163    56    57    1
   164    68    67    1
   165     1     2    1
   166     6     7   ar
   167     6     5    1
   168    67    69    1
   169   111   110    1
   170   111   112    1
   171   102   103    2
   172    20    18   ar
   173   110   107    1
   174    18    17    1
   175    58    57    1
   176    58    59    2
   177     5     2    1
   178    57    60    1
   179     2     3    1
   180    61    60    1
   181    17    14    1
   182   107   108    1
   183   107   106    1
   184     4     3    2
   185   108   109    2
   186    16    15    2
   187    14    15    1
   188    14    13    1
