@<TRIPOS>MOLECULE
tmp/4qu3A00.pdb
 148 139 0 0 0
SMALL
GASTEIGER

@<TRIPOS>ATOM
      1  N         12.4070   -1.0110   32.7230 N.3    45  CYS45      -0.1221
      2  CA        12.9410   -0.0710   31.7520 C.3    45  CYS45       0.1808
      3  C         11.8650    0.9800   31.3860 C.2    45  CYS45       0.2601
      4  O         11.1120    1.4380   32.2440 O.2    45  CYS45      -0.2717
      5  CB        13.5060   -0.8300   30.5430 C.3    45  CYS45       0.0970
      6  SG        14.7950   -2.0860   30.9990 S.3    45  CYS45      -0.0800
      7  N         11.7560    1.3310   30.1070 N.am   46  SER46      -0.1952
      8  CA        10.8250    2.4080   29.7270 C.3    46  SER46       0.1924
      9  C          9.3330    2.1450   29.9680 C.2    46  SER46       0.2314
     10  O          8.5250    3.0690   29.8620 O.2    46  SER46      -0.2863
     11  CB        11.0510    2.8520   28.2770 C.3    46  SER46       0.2116
     12  OG        12.3450    3.4300   28.1230 O.3    46  SER46      -0.2180
     13  N          7.1360    4.3940   32.2550 N.3    49  LYS49      -0.1245
     14  CA         6.6860    5.7310   31.8680 C.3    49  LYS49       0.1561
     15  C          5.1600    5.7990   31.7440 C.2    49  LYS49       0.2260
     16  O          4.5620    6.8760   31.8620 O.2    49  LYS49      -0.2867
     17  CB         7.3800    6.1840   30.5800 C.3    49  LYS49       0.0271
     18  CG         8.8800    6.3450   30.7290 C.3    49  LYS49       0.0035
     19  CD         9.5790    6.4520   29.3900 C.3    49  LYS49       0.0206
     20  CE        11.0840    6.4740   29.6070 C.3    49  LYS49       0.1093
     21  NZ        11.8190    6.5400   28.3130 N.3    49  LYS49      -0.1314
     22  N         20.5420   10.7750   26.6070 N.3    80  GLU80      -0.1231
     23  CA        20.3710    9.9380   25.4240 C.3    80  GLU80       0.1699
     24  C         18.9040    9.6280   25.1460 C.2    80  GLU80       0.2592
     25  O         18.1480    9.2870   26.0550 O.2    80  GLU80      -0.2718
     26  CB        21.1770    8.6410   25.5550 C.3    80  GLU80       0.0402
     27  CG        21.2280    8.0660   26.9660 C.3    80  GLU80       0.1161
     28  CD        22.2510    8.7650   27.8480 C.2    80  GLU80       0.3649
     29  OE1       23.3920    8.9760   27.3870 O.co2  80  GLU80      -0.2457
     30  OE2       21.9040    9.1210   28.9940 O.co2  80  GLU80      -0.2457
     31  N         18.5230    9.7720   23.8800 N.am   81  TRP81      -0.1976
     32  CA        17.1420    9.6340   23.4170 C.3    81  TRP81       0.1640
     33  C         16.1630   10.5750   24.1150 C.2    81  TRP81       0.2290
     34  O         15.3370   10.1650   24.9360 O.2    81  TRP81      -0.2864
     35  CB        16.6420    8.1860   23.4460 C.3    81  TRP81       0.0576
     36  CG        15.3410    8.0860   22.7130 C.ar   81  TRP81       0.0006
     37  CD1       14.1150    7.8490   23.2550 C.ar   81  TRP81       0.0946
     38  CD2       15.1260    8.3060   21.3100 C.ar   81  TRP81       0.0152
     39  NE1       13.1520    7.8790   22.2780 N.ar   81  TRP81      -0.2442
     40  CE2       13.7450    8.1520   21.0730 C.ar   81  TRP81       0.0810
     41  CE3       15.9660    8.5950   20.2300 C.ar   81  TRP81       0.0012
     42  CZ2       13.1840    8.2790   19.8010 C.ar   81  TRP81       0.0191
     43  CZ3       15.4060    8.7260   18.9660 C.ar   81  TRP81       0.0001
     44  CH2       14.0280    8.5670   18.7640 C.ar   81  TRP81       0.0015
     45  N          8.9600    7.7910   24.2930 N.3   107  SER107     -0.1217
     46  CA         9.8870    7.2710   25.3000 C.3   107  SER107      0.1889
     47  C         11.0030    8.2730   25.6060 C.2   107  SER107      0.2288
     48  O         12.1430    7.8970   25.8740 O.2   107  SER107     -0.2866
     49  CB        10.4610    5.9140   24.8730 C.3   107  SER107      0.2089
     50  OG        10.6540    5.0840   26.0090 O.3   107  SER107     -0.2183
     51  N         13.5110   10.3760   27.3120 N.3   109  ASN109     -0.1240
     52  CA        14.1470   10.2520   28.6200 C.3   109  ASN109      0.1653
     53  C         14.2760   11.5800   29.3680 C.2   109  ASN109      0.2266
     54  O         14.0780   11.6390   30.5740 O.2   109  ASN109     -0.2867
     55  CB        15.5060    9.5810   28.4850 C.3   109  ASN109      0.1155
     56  CG        15.3820    8.1340   28.1070 C.2   109  ASN109      0.2627
     57  OD1       15.9900    7.6680   27.1410 O.2   109  ASN109     -0.2716
     58  ND2       14.5700    7.4110   28.8600 N.am  109  ASN109     -0.0877
     59  N         16.5880    8.1850   34.7880 N.3   143  GLU143     -0.1231
     60  CA        17.2120    7.9050   33.4960 C.3   143  GLU143      0.1684
     61  C         18.6330    8.4510   33.4720 C.2   143  GLU143      0.2434
     62  O         18.8780    9.5460   33.9750 O.2   143  GLU143     -0.2733
     63  CB        16.4050    8.5380   32.3570 C.3   143  GLU143      0.0402
     64  CG        14.9440    8.1450   32.3210 C.3   143  GLU143      0.1161
     65  CD        14.7430    6.7350   31.8210 C.2   143  GLU143      0.3649
     66  OE1       13.5740    6.3050   31.7120 O.co2 143  GLU143     -0.2457
     67  OE2       15.7510    6.0560   31.5250 O.co2 143  GLU143     -0.2457
     68  N         19.5740    7.7100   32.8590 N.am  144  PRO144     -0.2729
     69  CA        19.3820    6.4280   32.1740 C.3   144  PRO144      0.1401
     70  C         19.6910    5.2000   33.0300 C.2   144  PRO144      0.2269
     71  O         19.5120    4.0890   32.5300 O.2   144  PRO144     -0.2865
     72  CB        20.4220    6.5040   31.0530 C.3   144  PRO144      0.0296
     73  CG        21.5490    7.2310   31.6950 C.3   144  PRO144      0.0237
     74  CD        20.9040    8.2790   32.5690 C.3   144  PRO144      0.0939
     75  N         17.8010    1.6400   33.5790 N.3   147  ASN147     -0.1240
     76  CA        17.7340    0.6600   32.5030 C.3   147  ASN147      0.1653
     77  C         18.9070   -0.3120   32.4770 C.2   147  ASN147      0.2266
     78  O         19.0450   -1.0920   31.5360 O.2   147  ASN147     -0.2867
     79  CB        17.6480    1.3790   31.1610 C.3   147  ASN147      0.1155
     80  CG        16.5310    2.3900   31.1250 C.2   147  ASN147      0.2627
     81  OD1       15.3600    2.0230   31.1120 O.2   147  ASN147     -0.2716
     82  ND2       16.8810    3.6730   31.1080 N.am  147  ASN147     -0.0877
     83  N          4.3180    6.0140   19.3540 N.3   192  GLN192     -0.1231
     84  CA         5.0840    6.0080   18.1030 C.3   192  GLN192      0.1698
     85  C          6.1810    4.9450   18.0500 C.2   192  GLN192      0.2592
     86  O          6.8530    4.7940   17.0260 O.2   192  GLN192     -0.2718
     87  CB         5.6970    7.3840   17.8340 C.3   192  GLN192      0.0381
     88  CG         4.6810    8.4950   17.7170 C.3   192  GLN192      0.0905
     89  CD         5.3160    9.8330   17.3840 C.2   192  GLN192      0.2608
     90  OE1        4.9080   10.8630   17.9110 O.2   192  GLN192     -0.2717
     91  NE2        6.3070    9.8250   16.4950 N.am  192  GLN192     -0.0878
     92  N          6.3750    4.2120   19.1440 N.am  193  THR193     -0.1953
     93  CA         7.5430    3.3430   19.2630 C.3   193  THR193      0.1897
     94  C          7.2360    1.8560   19.1900 C.2   193  THR193      0.2313
     95  O          8.1480    1.0290   19.2620 O.2   193  THR193     -0.2863
     96  CB         8.2950    3.5830   20.5880 C.3   193  THR193      0.1794
     97  OG1        7.4620    3.1960   21.6890 O.3   193  THR193     -0.2208
     98  CG2        8.6660    5.0450   20.7410 C.3   193  THR193      0.0378
     99  N          5.3740   -0.0010   16.7460 N.3   195  ASP195     -0.1225
    100  CA         4.8340   -0.5510   15.5070 C.3   195  ASP195      0.1805
    101  C          5.3690   -1.9500   15.1850 C.2   195  ASP195      0.2597
    102  O          4.7110   -2.7110   14.4820 O.2   195  ASP195     -0.2718
    103  CB         5.1150    0.3760   14.3230 C.3   195  ASP195      0.1424
    104  CG         4.2930    1.6670   14.3510 C.2   195  ASP195      0.3668
    105  OD1        3.3820    1.8370   15.1980 O.co2 195  ASP195     -0.2456
    106  OD2        4.5630    2.5200   13.4830 O.co2 195  ASP195     -0.2456
    107  N          6.5570   -2.2910   15.6830 N.am  196  ALA196     -0.1979
    108  CA         7.1640   -3.5830   15.3510 C.3   196  ALA196      0.1597
    109  C          7.0880   -4.6140   16.4710 C.2   196  ALA196      0.2287
    110  O          7.5560   -5.7460   16.3110 O.2   196  ALA196     -0.2864
    111  CB         8.6060   -3.3980   14.9100 C.3   196  ALA196      0.0319
    112  N          6.3750    0.5750   25.0740 N.3   212  THR212     -0.1203
    113  CA         7.5120   -0.3150   24.8980 C.3   212  THR212      0.1994
    114  C          8.6460   -0.0120   25.8760 C.2   212  THR212      0.2618
    115  O          8.6770    1.0390   26.5260 O.2   212  THR212     -0.2717
    116  CB         8.0730   -0.1490   23.4930 C.3   212  THR212      0.1784
    117  OG1        8.2840    1.2540   23.2440 O.3   212  THR212     -0.2211
    118  CG2        7.0950   -0.6990   22.4660 C.3   212  THR212      0.0376
    119  N          9.5860   -0.9420   25.9620 N.am  213  GLY213     -0.1942
    120  CA        10.8180   -0.7220   26.6900 C.3   213  GLY213      0.2014
    121  C         11.9460   -1.5130   26.0520 C.2   213  GLY213      0.2639
    122  O         11.7320   -2.5960   25.5010 O.2   213  GLY213     -0.2714
    123  N         13.1510   -0.9590   26.1140 N.am  214  THR214     -0.1950
    124  CA        14.3510   -1.6380   25.6470 C.3   214  THR214      0.1897
    125  C         15.4330   -1.3510   26.6600 C.2   214  THR214      0.2313
    126  O         15.7030   -0.1950   26.9680 O.2   214  THR214     -0.2863
    127  CB        14.8270   -1.0970   24.2910 C.3   214  THR214      0.1794
    128  OG1       13.7620   -1.1710   23.3340 O.3   214  THR214     -0.2208
    129  CG2       16.0160   -1.8960   23.7850 C.3   214  THR214      0.0378
    130  N         13.5300   -6.5250   26.2820 N.3   220  ARG220     -0.1245
    131  CA        12.5820   -5.9310   25.3450 C.3   220  ARG220      0.1563
    132  C         11.1790   -6.1800   25.8790 C.2   220  ARG220      0.2260
    133  O         10.7620   -7.3330   26.0300 O.2   220  ARG220     -0.2867
    134  CB        12.7580   -6.5210   23.9400 C.3   220  ARG220      0.0307
    135  CG        12.0850   -5.7100   22.8300 C.3   220  ARG220      0.0489
    136  CD        12.7940   -4.3770   22.6000 C.3   220  ARG220      0.2205
    137  NE        12.3600   -3.7390   21.3540 N.pl3 220  ARG220     -0.0865
    138  CZ        11.6190   -2.6380   21.2800 C.cat 220  ARG220      0.5346
    139  NH1       11.2140   -2.0310   22.3830 N.pl3 220  ARG220      0.1354
    140  NH2       11.2870   -2.1390   20.0950 N.pl3 220  ARG220      0.1354
    141  N         12.4880   -7.3860   18.5870 N.3   250  ASP250     -0.1239
    142  CA        11.1960   -6.8360   18.1680 C.3   250  ASP250      0.1674
    143  C         10.3080   -7.9650   17.6660 C.2   250  ASP250      0.2266
    144  O          9.1330   -8.0730   18.0320 O.2   250  ASP250     -0.2867
    145  CB        11.3660   -5.8460   17.0110 C.3   250  ASP250      0.1410
    146  CG        12.0190   -4.5460   17.4200 C.2   250  ASP250      0.3668
    147  OD1       12.1660   -4.2950   18.6340 O.co2 250  ASP250     -0.2456
    148  OD2       12.3710   -3.7570   16.5060 O.co2 250  ASP250     -0.2456
@<TRIPOS>BOND
     1   106   104   ar
     2   103   104    1
     3   103   100    1
     4   104   105   ar
     5   102   101    2
     6   111   108    1
     7   101   100    1
     8   101   107   am
     9   108   107    1
    10   108   109    1
    11   100    99    1
    12   110   109    2
    13    91    89   am
    14   148   146   ar
    15   145   146    1
    16   145   142    1
    17    86    85    2
    18    89    88    1
    19    89    90    2
    20   146   147   ar
    21   143   144    2
    22   143   142    1
    23    88    87    1
    24    87    84    1
    25    85    84    1
    26    85    92   am
    27    84    83    1
    28   142   141    1
    29    44    43   ar
    30    44    42   ar
    31    43    41   ar
    32    92    93    1
    33    94    95    2
    34    94    93    1
    35    93    96    1
    36    42    40   ar
    37   140   138    1
    38    41    38   ar
    39    96    98    1
    40    96    97    1
    41    40    38   ar
    42    40    39   ar
    43   138   137    2
    44   138   139    1
    45    38    36   ar
    46   137   136    1
    47    39    37   ar
    48   118   116    1
    49   136   135    1
    50    36    37   ar
    51    36    35    1
    52   135   134    1
    53   117   116    1
    54   128   127    1
    55    32    35    1
    56    32    31    1
    57    32    33    1
    58   116   113    1
    59   129   127    1
    60    31    24   am
    61   134   131    1
    62    33    34    2
    63   127   124    1
    64    45    46    1
    65    49    46    1
    66    49    50    1
    67   113   112    1
    68   113   114    1
    69    24    23    1
    70    24    25    2
    71    46    47    1
    72   131   132    1
    73   131   130    1
    74    23    26    1
    75    23    22    1
    76   122   121    2
    77    26    27    1
    78    47    48    2
    79   124   123    1
    80   124   125    1
    81   114   119   am
    82   114   115    2
    83   132   133    2
    84   119   120    1
    85   121   123   am
    86   121   120    1
    87   125   126    2
    88    27    28    1
    89    57    56    2
    90    51    52    1
    91    29    28   ar
    92    28    30   ar
    93    56    55    1
    94    56    58   am
    95    12    11    1
    96    11     8    1
    97    21    20    1
    98    55    52    1
    99    52    53    1
   100    53    54    2
   101    19    20    1
   102    19    18    1
   103     8     9    1
   104     8     7    1
   105    10     9    2
   106     7     3   am
   107     5     6    1
   108     5     2    1
   109    17    18    1
   110    17    14    1
   111    72    73    1
   112    72    69    1
   113    82    80   am
   114    81    80    2
   115    80    79    1
   116    79    76    1
   117     3     2    1
   118     3     4    2
   119    67    65   ar
   120    78    77    2
   121    73    74    1
   122    66    65   ar
   123    15    16    2
   124    15    14    1
   125     2     1    1
   126    65    64    1
   127    14    13    1
   128    69    68    1
   129    69    70    1
   130    64    63    1
   131    63    60    1
   132    77    76    1
   133    76    75    1
   134    71    70    2
   135    74    68    1
   136    68    61   am
   137    61    60    1
   138    61    62    2
   139    60    59    1
