@<TRIPOS>MOLECULE
tmp/4qu7B00.pdb
 129 128 0 0 0
SMALL
GASTEIGER

@<TRIPOS>ATOM
      1  N         21.5470    7.4260   -2.7910 N.3     5  HIS5       -0.1241
      2  CA        20.3550    6.5790   -2.8700 C.3     5  HIS5        0.1621
      3  C         19.1090    7.4830   -2.9910 C.2     5  HIS5        0.2264
      4  O         18.9680    8.4500   -2.2400 O.2     5  HIS5       -0.2867
      5  CB        20.2440    5.6260   -1.6710 C.3     5  HIS5        0.0745
      6  CG        19.0760    4.6960   -1.7590 C.ar    5  HIS5        0.0817
      7  ND1       19.0930    3.5900   -2.5950 N.ar    5  HIS5       -0.2268
      8  CD2       17.8860    4.7390   -1.1170 C.ar    5  HIS5        0.1154
      9  CE1       17.9180    3.0000   -2.4370 C.ar    5  HIS5        0.1986
     10  NE2       17.1600    3.6480   -1.5550 N.ar    5  HIS5       -0.2212
     11  N         14.7730    7.7450   -3.3300 N.3     7  ARG7       -0.1231
     12  CA        13.5160    7.1170   -2.9310 C.3     7  ARG7        0.1694
     13  C         12.3560    8.0530   -3.2860 C.2     7  ARG7        0.2593
     14  O         12.5120    9.2730   -3.2060 O.2     7  ARG7       -0.2718
     15  CB        13.5560    6.8120   -1.4330 C.3     7  ARG7        0.0321
     16  CG        12.3730    6.0120   -0.9240 C.3     7  ARG7        0.0489
     17  CD        11.9440    6.5730    0.4180 C.3     7  ARG7        0.2205
     18  NE        12.1490    5.6240    1.5070 N.pl3   7  ARG7       -0.0865
     19  CZ        12.2820    5.9650    2.7830 C.cat   7  ARG7        0.5346
     20  NH1       12.2410    7.2420    3.1430 N.pl3   7  ARG7        0.1354
     21  NH2       12.4590    5.0350    3.7070 N.pl3   7  ARG7        0.1354
     22  N         11.2240    7.4780   -3.6840 N.am    8  GLY8       -0.1942
     23  CA        10.0110    8.2230   -4.0190 C.3     8  GLY8        0.2014
     24  C          9.8700    8.6370   -5.4660 C.2     8  GLY8        0.2639
     25  O          9.0600    9.5030   -5.7780 O.2     8  GLY8       -0.2714
     26  N         10.6340    8.0040   -6.3630 N.am    9  LEU9       -0.1963
     27  CA        10.5980    8.2780   -7.7910 C.3     9  LEU9        0.1713
     28  C          9.2570    7.8860   -8.3770 C.2     9  LEU9        0.2458
     29  O          8.6820    6.9010   -7.9110 O.2     9  LEU9       -0.2730
     30  CB        11.7270    7.5170   -8.5240 C.3     9  LEU9        0.0310
     31  CG        13.1290    8.1160   -8.4660 C.3     9  LEU9        0.0022
     32  CD1       14.1670    7.0560   -8.7460 C.3     9  LEU9        0.0001
     33  CD2       13.2850    9.2570   -9.4540 C.3     9  LEU9        0.0001
     34  N          8.7260    8.6300   -9.3890 N.am   10  PRO10      -0.2716
     35  CA         7.4840    8.1720  -10.0410 C.3    10  PRO10       0.1536
     36  C          7.7540    6.8290  -10.7200 C.2    10  PRO10       0.2599
     37  O          8.8520    6.6330  -11.2330 O.2    10  PRO10      -0.2715
     38  CB         7.1520    9.2870  -11.0450 C.3    10  PRO10       0.0310
     39  CG         8.0780   10.3990  -10.7490 C.3    10  PRO10       0.0237
     40  CD         9.2710    9.8310  -10.0550 C.3    10  PRO10       0.0939
     41  N          6.7950    5.8920  -10.6770 N.am   11  PHE11      -0.1960
     42  CA         6.9470    4.5370  -11.2140 C.3    11  PHE11       0.1771
     43  C          7.2730    4.4900  -12.7360 C.2    11  PHE11       0.2619
     44  O          7.8360    3.5010  -13.2310 O.2    11  PHE11      -0.2715
     45  CB         5.6860    3.7100  -10.9110 C.3    11  PHE11       0.0574
     46  CG         5.4280    3.4790   -9.4350 C.ar   11  PHE11      -0.0200
     47  CD1        6.4530    3.0610   -8.5850 C.ar   11  PHE11      -0.0042
     48  CD2        4.1520    3.6280   -8.9050 C.ar   11  PHE11      -0.0042
     49  CE1        6.2120    2.8370   -7.2290 C.ar   11  PHE11      -0.0003
     50  CE2        3.9070    3.3820   -7.5510 C.ar   11  PHE11      -0.0003
     51  CZ         4.9400    2.9940   -6.7210 C.ar   11  PHE11      -0.0000
     52  N          6.9670    5.5720  -13.4460 N.am   12  GLN12      -0.1977
     53  CA         7.1890    5.7030  -14.8860 C.3    12  GLN12       0.1601
     54  C          8.5550    6.3510  -15.1820 C.2    12  GLN12       0.2287
     55  O          8.9060    6.5090  -16.3540 O.2    12  GLN12      -0.2864
     56  CB         6.0340    6.5230  -15.5100 C.3    12  GLN12       0.0394
     57  CG         5.8800    7.9740  -14.9430 C.3    12  GLN12       0.0908
     58  CD         5.0050    8.1140  -13.7010 C.2    12  GLN12       0.2608
     59  OE1        5.0130    7.2760  -12.7770 O.2    12  GLN12      -0.2717
     60  NE2        4.2510    9.2070  -13.6450 N.am   12  GLN12      -0.0878
     61  N         10.2150    0.1540   -7.9830 N.3    41  THR41      -0.1218
     62  CA         9.8870    0.4910   -6.5940 C.3    41  THR41       0.1862
     63  C          9.9470    1.9990   -6.3630 C.2    41  THR41       0.2287
     64  O          9.4090    2.4800   -5.3630 O.2    41  THR41      -0.2866
     65  CB        10.8090   -0.2460   -5.6100 C.3    41  THR41       0.1770
     66  OG1       12.1660    0.0870   -5.8900 O.3    41  THR41      -0.2211
     67  CG2       10.6270   -1.7390   -5.6520 C.3    41  THR41       0.0375
     68  N         12.9500    3.4210   -6.2610 N.3    43  GLU43      -0.1245
     69  CA        14.2480    3.5220   -5.5950 C.3    43  GLU43       0.1567
     70  C         15.3570    3.2930   -6.5940 C.2    43  GLU43       0.2260
     71  O         15.2020    2.4730   -7.5060 O.2    43  GLU43      -0.2867
     72  CB        14.3570    2.5610   -4.4070 C.3    43  GLU43       0.0388
     73  CG        13.5750    3.0850   -3.2140 C.3    43  GLU43       0.1160
     74  CD        13.7140    2.3360   -1.9110 C.2    43  GLU43       0.3649
     75  OE1       14.8040    1.7810   -1.6460 O.co2  43  GLU43      -0.2457
     76  OE2       12.7420    2.3600   -1.1240 O.co2  43  GLU43      -0.2457
     77  N          5.5890   14.8140  -10.2610 N.3    67  HIS67      -0.1226
     78  CA         4.6770   15.1120   -9.1450 C.3    67  HIS67       0.1752
     79  C          5.2150   14.6480   -7.7940 C.2    67  HIS67       0.2596
     80  O          4.7100   15.0780   -6.7540 O.2    67  HIS67      -0.2718
     81  CB         3.3020   14.4610   -9.3960 C.3    67  HIS67       0.0759
     82  CG         3.3480   12.9650   -9.5320 C.ar   67  HIS67       0.0818
     83  ND1        3.9110   12.3560  -10.6400 N.ar   67  HIS67      -0.2268
     84  CD2        2.8730   12.0070   -8.7010 C.ar   67  HIS67       0.1154
     85  CE1        3.7770   11.0520  -10.4420 C.ar   67  HIS67       0.1986
     86  NE2        3.1500   10.7930   -9.2930 N.ar   67  HIS67      -0.2212
     87  N          6.2200   13.7660   -7.8110 N.am   68  ARG68      -0.1966
     88  CA         6.8020   13.1640   -6.6150 C.3    68  ARG68       0.1729
     89  C          8.0030   13.9280   -6.0890 C.2    68  ARG68       0.2616
     90  O          8.8670   14.3080   -6.8740 O.2    68  ARG68      -0.2715
     91  CB         7.2440   11.7190   -6.9220 C.3    68  ARG68       0.0348
     92  CG         6.1500   10.7240   -7.3280 C.3    68  ARG68       0.0492
     93  CD         5.3060   10.2160   -6.1670 C.3    68  ARG68       0.2205
     94  NE         6.0560    9.3890   -5.2180 N.pl3  68  ARG68      -0.0865
     95  CZ         5.5470    8.8810   -4.0960 C.cat  68  ARG68       0.5346
     96  NH1        4.2750    9.0970   -3.7760 N.pl3  68  ARG68       0.1354
     97  NH2        6.2940    8.1240   -3.3040 N.pl3  68  ARG68       0.1354
     98  N          8.0930   14.0920   -4.7560 N.am   69  TYR69      -0.1974
     99  CA         9.2830   14.6690   -4.1330 C.3    69  TYR69       0.1639
    100  C         10.2590   13.5090   -3.8840 C.2    69  TYR69       0.2290
    101  O          9.8290   12.3990   -3.5700 O.2    69  TYR69      -0.2864
    102  CB         8.9870   15.5190   -2.8630 C.3    69  TYR69       0.0560
    103  CG         8.4820   14.7730   -1.6480 C.ar   69  TYR69      -0.0198
    104  CD1        9.3660   14.1340   -0.7800 C.ar   69  TYR69      -0.0009
    105  CD2        7.1390   14.8210   -1.2860 C.ar   69  TYR69      -0.0009
    106  CE1        8.9120   13.4660    0.3550 C.ar   69  TYR69       0.0417
    107  CE2        6.6750   14.1790   -0.1350 C.ar   69  TYR69       0.0417
    108  CZ         7.5630   13.4900    0.6750 C.ar   69  TYR69       0.1957
    109  OH         7.1080   12.8490    1.8060 O.3    69  TYR69      -0.2866
    110  N         13.6120   11.7730   -1.9550 N.3    71  GLU71      -0.1245
    111  CA        14.4330   11.6980   -0.7560 C.3    71  GLU71       0.1567
    112  C         15.7850   11.1360   -1.1500 C.2    71  GLU71       0.2260
    113  O         15.8430   10.0750   -1.7850 O.2    71  GLU71      -0.2867
    114  CB        13.7810   10.8150    0.3170 C.3    71  GLU71       0.0388
    115  CG        12.4770   11.3250    0.8840 C.3    71  GLU71       0.1160
    116  CD        11.8150   10.2220    1.6750 C.2    71  GLU71       0.3649
    117  OE1       12.2440    9.9860    2.8260 O.co2  71  GLU71      -0.2457
    118  OE2       10.9520    9.5200    1.1030 O.co2  71  GLU71      -0.2457
    119  N         19.9090   10.0040    0.0440 N.3    73  PHE73      -0.1241
    120  CA        20.7400    9.4410    1.1000 C.3    73  PHE73       0.1605
    121  C         22.1530    9.2540    0.5480 C.2    73  PHE73       0.2264
    122  O         22.3420    8.5240   -0.4220 O.2    73  PHE73      -0.2867
    123  CB        20.1470    8.1110    1.6320 C.3    73  PHE73       0.0534
    124  CG        18.6830    8.1740    2.0270 C.ar   73  PHE73      -0.0203
    125  CD1       17.6820    8.0300    1.0760 C.ar   73  PHE73      -0.0042
    126  CD2       18.3090    8.4020    3.3470 C.ar   73  PHE73      -0.0042
    127  CE1       16.3340    8.1360    1.4250 C.ar   73  PHE73      -0.0003
    128  CE2       16.9570    8.4920    3.6990 C.ar   73  PHE73      -0.0003
    129  CZ        15.9790    8.3600    2.7290 C.ar   73  PHE73      -0.0000
@<TRIPOS>BOND
     1    55    54    2
     2    56    57    1
     3    56    53    1
     4    54    53    1
     5    57    58    1
     6    53    52    1
     7    58    60   am
     8    58    59    2
     9    52    43   am
    10    44    43    2
    11    43    42    1
    12    37    36    2
    13    42    45    1
    14    42    41    1
    15    38    39    1
    16    38    35    1
    17    45    46    1
    18    39    40    1
    19    36    41   am
    20    36    35    1
    21    83    85   ar
    22    83    82   ar
    23    85    86   ar
    24    77    78    1
    25    40    34    1
    26    35    34    1
    27    82    81    1
    28    82    84   ar
    29    33    31    1
    30    46    48   ar
    31    46    47   ar
    32    81    78    1
    33    34    28   am
    34    86    84   ar
    35    78    79    1
    36    48    50   ar
    37    32    31    1
    38    47    49   ar
    39    30    31    1
    40    30    27    1
    41    28    29    2
    42    28    27    1
    43    61    62    1
    44    87    79   am
    45    87    88    1
    46    79    80    2
    47    27    26    1
    48    50    51   ar
    49    71    70    2
    50    92    91    1
    51    92    93    1
    52    49    51   ar
    53    91    88    1
    54    90    89    2
    55    88    89    1
    56    62    63    1
    57    62    65    1
    58    70    69    1
    59    63    64    2
    60    26    24   am
    61    68    69    1
    62    93    94    1
    63    89    98   am
    64    66    65    1
    65    25    24    2
    66    67    65    1
    67    69    72    1
    68    24    23    1
    69    94    95    2
    70    98    99    1
    71    72    73    1
    72    99   100    1
    73    99   102    1
    74    95    96    1
    75    95    97    1
    76    23    22    1
    77   100   101    2
    78    22    13   am
    79    11    12    1
    80    13    14    2
    81    13    12    1
    82    73    74    1
    83     3     2    1
    84     3     4    2
    85    12    15    1
    86     2     1    1
    87     2     5    1
    88   102   103    1
    89     7     9   ar
    90     7     6   ar
    91     9    10   ar
    92   110   111    1
    93    74    75   ar
    94    74    76   ar
    95   113   112    2
    96     6     5    1
    97     6     8   ar
    98   103   105   ar
    99   103   104   ar
   100    10     8   ar
   101    15    16    1
   102   105   107   ar
   103   112   111    1
   104    16    17    1
   105   104   106   ar
   106   111   114    1
   107   122   121    2
   108   107   108   ar
   109   119   120    1
   110   114   115    1
   111   106   108   ar
   112    17    18    1
   113   121   120    1
   114   108   109    1
   115   115   116    1
   116   125   127   ar
   117   125   124   ar
   118   120   123    1
   119   118   116   ar
   120   127   129   ar
   121    18    19    2
   122   123   124    1
   123   116   117   ar
   124   124   126   ar
   125   129   128   ar
   126    19    20    1
   127    19    21    1
   128   126   128   ar
