@<TRIPOS>MOLECULE
tmp/4qu7A00.pdb
 112 112 0 0 0
SMALL
GASTEIGER

@<TRIPOS>ATOM
      1  N         24.9990  -10.6140  -16.8150 N.3     7  ARG7       -0.1231
      2  CA        25.7530   -9.8370  -17.7830 C.3     7  ARG7        0.1694
      3  C         25.3640  -10.2780  -19.2050 C.2     7  ARG7        0.2593
      4  O         25.2110  -11.4680  -19.4570 O.2     7  ARG7       -0.2718
      5  CB        27.2690   -9.9850  -17.5240 C.3     7  ARG7        0.0321
      6  CG        28.1800   -9.0740  -18.3510 C.3     7  ARG7        0.0489
      7  CD        29.4010   -9.8670  -18.7120 C.3     7  ARG7        0.2205
      8  NE        30.6420   -9.3000  -18.1930 N.pl3   7  ARG7       -0.0865
      9  CZ        31.7940   -9.9670  -18.0810 C.cat   7  ARG7        0.5346
     10  NH1       31.8600  -11.2580  -18.3970 N.pl3   7  ARG7        0.1354
     11  NH2       32.8820   -9.3530  -17.6360 N.pl3   7  ARG7        0.1354
     12  N         25.1660   -9.3030  -20.0920 N.am    8  GLY8       -0.1942
     13  CA        24.8470   -9.5480  -21.4910 C.3     8  GLY8        0.2014
     14  C         23.3920   -9.5620  -21.8920 C.2     8  GLY8        0.2639
     15  O         23.0810  -10.0530  -22.9760 O.2     8  GLY8       -0.2714
     16  N         22.5040   -8.9630  -21.0800 N.am    9  LEU9       -0.1963
     17  CA        21.0780   -8.8630  -21.4040 C.3     9  LEU9        0.1713
     18  C         20.8220   -8.0040  -22.6480 C.2     9  LEU9        0.2458
     19  O         21.5750   -7.0510  -22.8980 O.2     9  LEU9       -0.2730
     20  CB        20.2860   -8.2790  -20.2230 C.3     9  LEU9        0.0310
     21  CG        20.0270   -9.2200  -19.0340 C.3     9  LEU9        0.0022
     22  CD1       19.8550   -8.4260  -17.7270 C.3     9  LEU9        0.0001
     23  CD2       18.7990  -10.0880  -19.2890 C.3     9  LEU9        0.0001
     24  N         19.7680   -8.3050  -23.4490 N.am   10  PRO10      -0.2716
     25  CA        19.4500   -7.4260  -24.5890 C.3    10  PRO10       0.1536
     26  C         19.0210   -6.0590  -24.0890 C.2    10  PRO10       0.2599
     27  O         18.3950   -5.9840  -23.0430 O.2    10  PRO10      -0.2715
     28  CB        18.2980   -8.1480  -25.3120 C.3    10  PRO10       0.0310
     29  CG        18.2010   -9.4770  -24.7130 C.3    10  PRO10       0.0237
     30  CD        18.7770   -9.3950  -23.3250 C.3    10  PRO10       0.0939
     31  N         19.3620   -4.9850  -24.8250 N.am   11  PHE11      -0.1960
     32  CA        19.0260   -3.5860  -24.4840 C.3    11  PHE11       0.1771
     33  C         17.5260   -3.3630  -24.1700 C.2    11  PHE11       0.2619
     34  O         17.1830   -2.5330  -23.3250 O.2    11  PHE11      -0.2715
     35  CB        19.4110   -2.6360  -25.6470 C.3    11  PHE11       0.0574
     36  CG        20.8820   -2.3400  -25.8730 C.ar   11  PHE11      -0.0200
     37  CD1       21.6400   -1.6900  -24.8940 C.ar   11  PHE11      -0.0042
     38  CD2       21.4870   -2.6230  -27.0990 C.ar   11  PHE11      -0.0042
     39  CE1       22.9860   -1.3700  -25.1250 C.ar   11  PHE11      -0.0003
     40  CE2       22.8390   -2.3280  -27.3170 C.ar   11  PHE11      -0.0003
     41  CZ        23.5730   -1.6860  -26.3360 C.ar   11  PHE11      -0.0000
     42  N         16.6540   -4.0910  -24.8870 N.am   12  GLN12      -0.1977
     43  CA        15.1900   -4.0310  -24.8410 C.3    12  GLN12       0.1601
     44  C         14.5750   -4.8970  -23.7130 C.2    12  GLN12       0.2287
     45  O         13.3630   -4.8290  -23.5060 O.2    12  GLN12      -0.2864
     46  CB        14.6180   -4.4510  -26.2150 C.3    12  GLN12       0.0394
     47  CG        14.9650   -5.8940  -26.6400 C.3    12  GLN12       0.0908
     48  CD        16.2700   -6.0690  -27.4010 C.2    12  GLN12       0.2608
     49  OE1       17.2910   -5.4180  -27.1400 O.2    12  GLN12      -0.2717
     50  NE2       16.2850   -7.0260  -28.3190 N.am   12  GLN12      -0.0878
     51  N         22.8560   -1.3170  -19.6120 N.3    41  THR41      -0.1203
     52  CA        24.1630   -1.9270  -19.8970 C.3    41  THR41       0.1994
     53  C         24.0560   -3.4270  -20.2250 C.2    41  THR41       0.2618
     54  O         24.9680   -3.9840  -20.8350 O.2    41  THR41      -0.2717
     55  CB        25.1140   -1.7370  -18.6970 C.3    41  THR41       0.1784
     56  OG1       24.5380   -2.3390  -17.5520 O.3    41  THR41      -0.2211
     57  CG2       25.4100   -0.2880  -18.3920 C.3    41  THR41       0.0376
     58  N         22.9750   -4.0680  -19.7870 N.am   42  GLY42      -0.1942
     59  CA        22.7750   -5.5020  -19.9800 C.3    42  GLY42       0.2014
     60  C         23.1260   -6.2840  -18.7290 C.2    42  GLY42       0.2638
     61  O         23.0760   -7.5180  -18.7040 O.2    42  GLY42      -0.2714
     62  N         23.4770   -5.5420  -17.6790 N.am   43  GLU43      -0.1977
     63  CA        23.8600   -6.0920  -16.4000 C.3    43  GLU43       0.1602
     64  C         22.7450   -5.8510  -15.3680 C.2    43  GLU43       0.2287
     65  O         22.0370   -4.8480  -15.4370 O.2    43  GLU43      -0.2864
     66  CB        25.1910   -5.4940  -15.9520 C.3    43  GLU43       0.0415
     67  CG        26.3710   -6.0620  -16.7240 C.3    43  GLU43       0.1163
     68  CD        27.7620   -5.7190  -16.2180 C.2    43  GLU43       0.3649
     69  OE1       27.9510   -5.5840  -14.9880 O.co2  43  GLU43      -0.2457
     70  OE2       28.6830   -5.6440  -17.0600 O.co2  43  GLU43      -0.2457
     71  N         18.2030  -13.0980  -28.1910 N.3    67  HIS67      -0.1226
     72  CA        19.3380  -13.5420  -29.0080 C.3    67  HIS67       0.1752
     73  C         20.6530  -13.6040  -28.2220 C.2    67  HIS67       0.2596
     74  O         21.6440  -14.1670  -28.7040 O.2    67  HIS67      -0.2718
     75  CB        19.4980  -12.5780  -30.2200 C.3    67  HIS67       0.0759
     76  CG        19.6920  -11.1420  -29.8130 C.ar   67  HIS67       0.0818
     77  ND1       18.6910  -10.4280  -29.1440 N.ar   67  HIS67      -0.2268
     78  CD2       20.7790  -10.3450  -29.9460 C.ar   67  HIS67       0.1154
     79  CE1       19.1930   -9.2240  -28.9240 C.ar   67  HIS67       0.1986
     80  NE2       20.4460   -9.1230  -29.3890 N.ar   67  HIS67      -0.2212
     81  N         20.6580  -13.0020  -27.0380 N.am   68  ARG68      -0.1966
     82  CA        21.8150  -12.8640  -26.1570 C.3    68  ARG68       0.1729
     83  C         21.9300  -13.9810  -25.1550 C.2    68  ARG68       0.2616
     84  O         20.9430  -14.3660  -24.5510 O.2    68  ARG68      -0.2715
     85  CB        21.7260  -11.5310  -25.3900 C.3    68  ARG68       0.0348
     86  CG        21.7650  -10.2670  -26.2670 C.3    68  ARG68       0.0492
     87  CD        23.1590   -9.9270  -26.7460 C.3    68  ARG68       0.2205
     88  NE        24.0220   -9.5010  -25.6420 N.pl3  68  ARG68      -0.0865
     89  CZ        25.2500   -9.0300  -25.8060 C.cat  68  ARG68       0.5346
     90  NH1       25.7820   -8.9540  -27.0180 N.pl3  68  ARG68       0.1354
     91  NH2       25.9560   -8.6260  -24.7600 N.pl3  68  ARG68       0.1354
     92  N         23.1390  -14.4850  -24.9570 N.am   69  TYR69      -0.1974
     93  CA        23.4130  -15.4870  -23.9380 C.3    69  TYR69       0.1639
     94  C         23.7560  -14.7110  -22.6640 C.2    69  TYR69       0.2290
     95  O         24.3560  -13.6210  -22.7460 O.2    69  TYR69      -0.2864
     96  CB        24.5030  -16.4880  -24.3640 C.3    69  TYR69       0.0560
     97  CG        25.8920  -15.9190  -24.5430 C.ar   69  TYR69      -0.0198
     98  CD1       26.7210  -15.6920  -23.4450 C.ar   69  TYR69      -0.0009
     99  CD2       26.4210  -15.7020  -25.8140 C.ar   69  TYR69      -0.0009
    100  CE1       28.0130  -15.1970  -23.6040 C.ar   69  TYR69       0.0417
    101  CE2       27.7140  -15.1920  -25.9850 C.ar   69  TYR69       0.0417
    102  CZ        28.5020  -14.9440  -24.8760 C.ar   69  TYR69       0.1957
    103  OH        29.7590  -14.4280  -25.0180 O.3    69  TYR69      -0.2866
    104  N         25.5470  -14.4420  -18.8570 N.3    71  GLU71      -0.1245
    105  CA        26.6160  -14.8340  -17.9670 C.3    71  GLU71       0.1567
    106  C         26.1850  -14.5420  -16.5310 C.2    71  GLU71       0.2260
    107  O         25.8030  -13.4070  -16.2180 O.2    71  GLU71      -0.2867
    108  CB        27.8980  -14.0730  -18.2960 C.3    71  GLU71       0.0388
    109  CG        28.5720  -14.4360  -19.5990 C.3    71  GLU71       0.1160
    110  CD        29.7590  -13.5180  -19.7980 C.2    71  GLU71       0.3649
    111  OE1       30.8040  -13.7610  -19.1520 O.co2  71  GLU71      -0.2457
    112  OE2       29.6030  -12.4850  -20.4880 O.co2  71  GLU71      -0.2457
@<TRIPOS>BOND
     1    75    76    1
     2    75    72    1
     3    78    76   ar
     4    78    80   ar
     5    76    77   ar
     6    80    79   ar
     7    77    79   ar
     8    72    73    1
     9    72    71    1
    10    74    73    2
    11    50    48   am
    12    73    81   am
    13    48    49    2
    14    48    47    1
    15    40    38   ar
    16    40    41   ar
    17    38    36   ar
    18    81    82    1
    19    90    89    1
    20    87    86    1
    21    87    88    1
    22    47    46    1
    23    41    39   ar
    24    86    85    1
    25    46    43    1
    26    82    85    1
    27    82    83    1
    28   101    99   ar
    29   101   102   ar
    30    36    35    1
    31    36    37   ar
    32    99    97   ar
    33    89    88    2
    34    89    91    1
    35    35    32    1
    36    28    29    1
    37    28    25    1
    38    83    92   am
    39    83    84    2
    40    39    37   ar
    41   103   102    1
    42    92    93    1
    43    42    43    1
    44    42    33   am
    45   102   100   ar
    46    43    44    1
    47    31    32    1
    48    31    26   am
    49    29    30    1
    50    25    26    1
    51    25    24    1
    52    97    96    1
    53    97    98   ar
    54    32    33    1
    55    96    93    1
    56    33    34    2
    57    26    27    2
    58    93    94    1
    59    44    45    2
    60   100    98   ar
    61    24    30    1
    62    24    18   am
    63    15    14    2
    64    19    18    2
    65    95    94    2
    66    18    17    1
    67    14    13    1
    68    14    16   am
    69    13    12    1
    70    17    16    1
    71    17    20    1
    72    54    53    2
    73   112   110   ar
    74    53    52    1
    75    53    58   am
    76    20    21    1
    77    12     3   am
    78    59    58    1
    79    59    60    1
    80    52    51    1
    81    52    55    1
    82   110   109    1
    83   110   111   ar
    84   109   108    1
    85     4     3    2
    86    23    21    1
    87     3     2    1
    88    21    22    1
    89   104   105    1
    90    60    61    2
    91    60    62   am
    92     7     6    1
    93     7     8    1
    94    55    57    1
    95    55    56    1
    96    10     9    1
    97     6     5    1
    98   108   105    1
    99     8     9    2
   100     9    11    1
   101   105   106    1
   102     2     5    1
   103     2     1    1
   104    62    63    1
   105    70    68   ar
   106    67    68    1
   107    67    66    1
   108   106   107    2
   109    63    66    1
   110    63    64    1
   111    68    69   ar
   112    65    64    2
