@<TRIPOS>MOLECULE
tmp/4qufI00.pdb
 167 165 0 0 0
SMALL
GASTEIGER

@<TRIPOS>ATOM
      1  N         62.2570   13.3120   35.0710 N.3     1  GLU1       -0.1231
      2  CA        62.1200   14.6760   35.5710 C.3     1  GLU1        0.1699
      3  C         61.2020   15.4890   34.6450 C.2     1  GLU1        0.2592
      4  O         60.1020   15.9040   35.0360 O.2     1  GLU1       -0.2718
      5  CB        63.5000   15.3320   35.7290 C.3     1  GLU1        0.0402
      6  CG        63.4720   16.7420   36.2980 C.3     1  GLU1        0.1161
      7  CD        62.9550   16.7970   37.7230 C.2     1  GLU1        0.3649
      8  OE1       63.1080   15.7950   38.4530 O.co2   1  GLU1       -0.2457
      9  OE2       62.4030   17.8480   38.1150 O.co2   1  GLU1       -0.2457
     10  N         61.6520   15.7100   33.4160 N.am    2  GLU2       -0.1966
     11  CA        60.8030   16.3460   32.4150 C.3     2  GLU2        0.1733
     12  C         60.2710   15.2730   31.4760 C.2     2  GLU2        0.2616
     13  O         61.0230   14.4070   31.0420 O.2     2  GLU2       -0.2715
     14  CB        61.5640   17.4230   31.6310 C.3     2  GLU2        0.0429
     15  CG        61.6350   18.7860   32.3180 C.3     2  GLU2        0.1163
     16  CD        62.8700   19.5820   31.9140 C.2     2  GLU2        0.3649
     17  OE1       63.5700   19.1630   30.9650 O.co2   2  GLU2       -0.2457
     18  OE2       63.1530   20.6180   32.5540 O.co2   2  GLU2       -0.2457
     19  N         58.9720   15.3180   31.1890 N.am    3  TYR3       -0.1960
     20  CA        58.3530   14.3570   30.2830 C.3     3  TYR3        0.1771
     21  C         58.1050   15.0410   28.9600 C.2     3  TYR3        0.2619
     22  O         57.8900   16.2480   28.8960 O.2     3  TYR3       -0.2715
     23  CB        57.0130   13.8510   30.8210 C.3     3  TYR3        0.0574
     24  CG        57.0660   13.1550   32.1550 C.ar    3  TYR3       -0.0198
     25  CD1       56.9760   11.7710   32.2430 C.ar    3  TYR3       -0.0009
     26  CD2       57.1990   13.8840   33.3390 C.ar    3  TYR3       -0.0009
     27  CE1       57.0190   11.1280   33.4790 C.ar    3  TYR3        0.0417
     28  CE2       57.2440   13.2570   34.5640 C.ar    3  TYR3        0.0417
     29  CZ        57.1490   11.8770   34.6350 C.ar    3  TYR3        0.1957
     30  OH        57.1880   11.2540   35.8650 O.3     3  TYR3       -0.2866
     31  N         58.1330   14.2560   27.9010 N.am    4  VAL4       -0.1963
     32  CA        57.8810   14.7660   26.5760 C.3     4  VAL4        0.1727
     33  C         56.4070   15.0960   26.4210 C.2     4  VAL4        0.2616
     34  O         55.5420   14.3320   26.8400 O.2     4  VAL4       -0.2715
     35  CB        58.3120   13.7340   25.5310 C.3     4  VAL4        0.0290
     36  CG1       57.7710   14.0780   24.1320 C.3     4  VAL4        0.0023
     37  CG2       59.8350   13.5800   25.5630 C.3     4  VAL4        0.0023
     38  N         56.1170   16.2470   25.8340 N.am    5  VAL5       -0.1977
     39  CA        54.7400   16.6640   25.6330 C.3     5  VAL5        0.1596
     40  C         54.3100   16.3280   24.2080 C.2     5  VAL5        0.2287
     41  O         55.0720   16.5020   23.2640 O.2     5  VAL5       -0.2864
     42  CB        54.5830   18.1780   25.9300 C.3     5  VAL5        0.0276
     43  CG1       53.1360   18.6420   25.7650 C.3     5  VAL5        0.0022
     44  CG2       55.0730   18.4660   27.3270 C.3     5  VAL5        0.0022
     45  N         47.7080   19.6640   29.4060 N.3    22  VAL22      -0.1245
     46  CA        48.8490   19.0650   28.7600 C.3    22  VAL22       0.1561
     47  C         48.5810   17.6040   28.4720 C.2    22  VAL22       0.2260
     48  O         48.2300   16.8460   29.3750 O.2    22  VAL22      -0.2867
     49  CB        50.0940   19.2040   29.6610 C.3    22  VAL22       0.0252
     50  CG1       51.3020   18.4770   29.0540 C.3    22  VAL22       0.0019
     51  CG2       50.3980   20.6850   29.9150 C.3    22  VAL22       0.0019
     52  N         50.4260   14.2800   27.4890 N.3    24  TRP24      -0.1241
     53  CA        51.7800   13.7150   27.5620 C.3    24  TRP24       0.1605
     54  C         52.0200   12.5670   26.5890 C.2    24  TRP24       0.2264
     55  O         51.2410   11.6160   26.5440 O.2    24  TRP24      -0.2867
     56  CB        52.0640   13.2230   28.9840 C.3    24  TRP24       0.0550
     57  CG        51.8390   14.2820   30.0280 C.ar   24  TRP24       0.0003
     58  CD1       50.7250   14.4560   30.7940 C.ar   24  TRP24       0.0946
     59  CD2       52.7570   15.3100   30.4130 C.ar   24  TRP24       0.0152
     60  NE1       50.8870   15.5320   31.6280 N.ar   24  TRP24      -0.2442
     61  CE2       52.1260   16.0770   31.4150 C.ar   24  TRP24       0.0810
     62  CE3       54.0520   15.6600   30.0050 C.ar   24  TRP24       0.0012
     63  CZ2       52.7450   17.1780   32.0180 C.ar   24  TRP24       0.0191
     64  CZ3       54.6700   16.7650   30.6070 C.ar   24  TRP24       0.0001
     65  CH2       54.0140   17.5070   31.6000 C.ar   24  TRP24       0.0015
     66  N         50.9800    8.7370   26.9850 N.3    27  PHE27      -0.1241
     67  CA        49.9370    8.6810   28.0120 C.3    27  PHE27       0.1605
     68  C         48.5640    8.9810   27.4290 C.2    27  PHE27       0.2264
     69  O         48.3730   10.0060   26.7770 O.2    27  PHE27      -0.2867
     70  CB        50.2180    9.6930   29.1230 C.3    27  PHE27       0.0534
     71  CG        51.3650    9.3250   30.0210 C.ar   27  PHE27      -0.0203
     72  CD1       52.6420    9.7860   29.7620 C.ar   27  PHE27      -0.0042
     73  CD2       51.1590    8.5360   31.1410 C.ar   27  PHE27      -0.0042
     74  CE1       53.6870    9.4700   30.5970 C.ar   27  PHE27      -0.0003
     75  CE2       52.2030    8.2170   31.9770 C.ar   27  PHE27      -0.0003
     76  CZ        53.4750    8.6810   31.7040 C.ar   27  PHE27      -0.0000
     77  N         45.3820   10.9260   31.6510 N.3    31  ASN31      -0.1240
     78  CA        46.5830   11.3500   32.3610 C.3    31  ASN31       0.1653
     79  C         46.8450   12.8380   32.1710 C.2    31  ASN31       0.2266
     80  O         47.7670   13.3830   32.7910 O.2    31  ASN31      -0.2867
     81  CB        47.8270   10.5910   31.8930 C.3    31  ASN31       0.1155
     82  CG        47.7470    9.1020   32.1390 C.2    31  ASN31       0.2627
     83  OD1       47.3140    8.3450   31.2710 O.2    31  ASN31      -0.2716
     84  ND2       48.2060    8.6640   33.3100 N.am   31  ASN31      -0.0877
     85  N         47.1370   16.7850   32.3980 N.3    33  THR33      -0.1203
     86  CA        47.2390   17.5750   33.6150 C.3    33  THR33       0.1994
     87  C         47.2930   19.0410   33.2790 C.2    33  THR33       0.2618
     88  O         47.6950   19.4100   32.1780 O.2    33  THR33      -0.2717
     89  CB        48.4950   17.2050   34.4600 C.3    33  THR33       0.1784
     90  OG1       49.6480   17.1590   33.6140 O.3    33  THR33      -0.2211
     91  CG2       48.3210   15.8460   35.1140 C.3    33  THR33       0.0376
     92  N         46.8800   19.8690   34.2300 N.am   34  TRP34      -0.1961
     93  CA        47.0450   21.3100   34.1110 C.3    34  TRP34       0.1771
     94  C         48.4180   21.6670   34.6450 C.2    34  TRP34       0.2619
     95  O         48.7420   21.3090   35.7550 O.2    34  TRP34      -0.2715
     96  CB        45.9620   22.0490   34.9110 C.3    34  TRP34       0.0590
     97  CG        44.5970   21.9920   34.2700 C.ar   34  TRP34       0.0006
     98  CD1       43.5510   21.1900   34.6370 C.ar   34  TRP34       0.0946
     99  CD2       44.1390   22.7550   33.1420 C.ar   34  TRP34       0.0152
    100  NE1       42.4720   21.4160   33.8170 N.ar   34  TRP34      -0.2442
    101  CE2       42.8080   22.3700   32.8900 C.ar   34  TRP34       0.0810
    102  CE3       44.7240   23.7280   32.3270 C.ar   34  TRP34       0.0012
    103  CZ2       42.0490   22.9300   31.8530 C.ar   34  TRP34       0.0191
    104  CZ3       43.9770   24.2740   31.3020 C.ar   34  TRP34       0.0001
    105  CH2       42.6520   23.8760   31.0730 C.ar   34  TRP34       0.0015
    106  N         49.2270   22.3650   33.8570 N.am   35  GLU35      -0.1964
    107  CA        50.5480   22.8070   34.3140 C.3    35  GLU35       0.1718
    108  C         50.6670   24.3250   34.2510 C.2    35  GLU35       0.2458
    109  O         50.0660   24.9560   33.3950 O.2    35  GLU35      -0.2730
    110  CB        51.6690   22.1500   33.4980 C.3    35  GLU35       0.0428
    111  CG        51.6770   20.6090   33.4860 C.3    35  GLU35       0.1163
    112  CD        51.7160   19.9690   34.8840 C.2    35  GLU35       0.3649
    113  OE1       52.1240   20.6310   35.8570 O.co2  35  GLU35      -0.2457
    114  OE2       51.3360   18.7860   35.0080 O.co2  35  GLU35      -0.2457
    115  N         51.4170   24.9200   35.1910 N.am   36  PRO36      -0.2727
    116  CA        51.7190   26.3550   35.1630 C.3    36  PRO36       0.1402
    117  C         52.3880   26.7230   33.8460 C.2    36  PRO36       0.2269
    118  O         53.1750   25.9350   33.3260 O.2    36  PRO36      -0.2865
    119  CB        52.7310   26.5060   36.2930 C.3    36  PRO36       0.0296
    120  CG        52.4430   25.3970   37.2000 C.3    36  PRO36       0.0237
    121  CD        52.0430   24.2580   36.3490 C.3    36  PRO36       0.0939
    122  N         56.0720   26.5070   33.5250 N.3    39  ASN39      -0.1225
    123  CA        56.6580   25.1960   33.2960 C.3    39  ASN39       0.1785
    124  C         56.7810   24.7520   31.8410 C.2    39  ASN39       0.2597
    125  O         57.3980   23.7320   31.5600 O.2    39  ASN39      -0.2718
    126  CB        55.8480   24.1320   34.0310 C.3    39  ASN39       0.1169
    127  CG        55.9730   24.2360   35.5250 C.2    39  ASN39       0.2627
    128  OD1       56.5750   25.1800   36.0430 O.2    39  ASN39      -0.2716
    129  ND2       55.3970   23.2670   36.2360 N.am   39  ASN39      -0.0877
    130  N         56.1900   25.4670   30.9020 N.am   40  VAL40      -0.1980
    131  CA        56.1000   24.8430   29.5780 C.3    40  VAL40       0.1595
    132  C         57.0840   25.3770   28.5280 C.2    40  VAL40       0.2287
    133  O         56.9340   25.1110   27.3380 O.2    40  VAL40      -0.2864
    134  CB        54.6270   24.7610   29.0630 C.3    40  VAL40       0.0276
    135  CG1       53.8310   23.7530   29.9040 C.3    40  VAL40       0.0022
    136  CG2       53.9660   26.1270   29.0950 C.3    40  VAL40       0.0022
    137  N         59.9010   24.5130   27.3930 N.3    42  ASN42      -0.1225
    138  CA        60.5460   23.5900   26.4590 C.3    42  ASN42       0.1785
    139  C         59.5990   22.9480   25.4560 C.2    42  ASN42       0.2597
    140  O         60.0040   22.0800   24.6830 O.2    42  ASN42      -0.2718
    141  CB        61.2970   22.5000   27.2110 C.3    42  ASN42       0.1169
    142  CG        62.5440   23.0160   27.8670 C.2    42  ASN42       0.2627
    143  OD1       63.3830   23.6470   27.2190 O.2    42  ASN42      -0.2716
    144  ND2       62.6650   22.7790   29.1660 N.am   42  ASN42      -0.0877
    145  N         58.3360   23.3600   25.4780 N.am   43  CYS43      -0.1970
    146  CA        57.3800   22.8980   24.4820 C.3    43  CYS43       0.1712
    147  C         56.6500   24.0940   23.8570 C.2    43  CYS43       0.2296
    148  O         55.4810   23.9960   23.4770 O.2    43  CYS43      -0.2864
    149  CB        56.4080   21.8650   25.0870 C.3    43  CYS43       0.0983
    150  SG        55.4460   22.3940   26.5440 S.3    43  CYS43      -0.0798
    151  N         56.7680   25.6310   20.9750 N.3    45  LYS45      -0.1231
    152  CA        56.1660   25.3500   19.6800 C.3    45  LYS45       0.1693
    153  C         54.7390   24.8110   19.8650 C.2    45  LYS45       0.2591
    154  O         53.7660   25.3580   19.3280 O.2    45  LYS45      -0.2718
    155  CB        57.0240   24.3680   18.8770 C.3    45  LYS45       0.0285
    156  CG        56.4380   24.0240   17.5120 C.3    45  LYS45       0.0035
    157  CD        56.3910   25.2640   16.6120 C.3    45  LYS45       0.0206
    158  CE        55.9450   24.9200   15.1920 C.3    45  LYS45       0.1093
    159  NZ        54.6440   24.1830   15.1710 N.3    45  LYS45      -0.1314
    160  N         54.6140   23.7690   20.6730 N.am   46  LEU46      -0.1980
    161  CA        53.3040   23.1660   20.9140 C.3    46  LEU46       0.1596
    162  C         52.3380   24.1680   21.5440 C.2    46  LEU46       0.2287
    163  O         51.1430   24.1400   21.2650 O.2    46  LEU46      -0.2864
    164  CB        53.4270   21.9040   21.7680 C.3    46  LEU46       0.0297
    165  CG        53.5020   20.5690   21.0230 C.3    46  LEU46       0.0022
    166  CD1       54.1560   20.7120   19.6490 C.3    46  LEU46       0.0001
    167  CD2       54.2270   19.5180   21.8790 C.3    46  LEU46       0.0001
@<TRIPOS>BOND
     1   159   158    1
     2   158   157    1
     3   157   156    1
     4   156   155    1
     5   155   152    1
     6   154   153    2
     7   166   165    1
     8   152   153    1
     9   152   151    1
    10   153   160   am
    11   160   161    1
    12   161   162    1
    13   161   164    1
    14   165   164    1
    15   165   167    1
    16   163   162    2
    17    41    40    2
    18   148   147    2
    19   147   146    1
    20    36    35    1
    21    40    39    1
    22   146   149    1
    23   146   145    1
    24   140   139    2
    25   149   150    1
    26   139   145   am
    27   139   138    1
    28    35    37    1
    29    35    32    1
    30    39    38    1
    31    39    42    1
    32    43    42    1
    33    38    33   am
    34    42    44    1
    35    33    32    1
    36    33    34    2
    37   138   141    1
    38   138   137    1
    39    55    54    2
    40    32    31    1
    41    54    53    1
    42    69    68    2
    43    66    67    1
    44   141   142    1
    45   143   142    2
    46   133   132    2
    47    68    67    1
    48    52    53    1
    49    53    56    1
    50   142   144   am
    51    31    21   am
    52    67    70    1
    53    47    46    1
    54    47    48    2
    55   132   131    1
    56    46    45    1
    57    46    49    1
    58    22    21    2
    59    21    20    1
    60    56    57    1
    61    50    49    1
    62   134   136    1
    63   134   131    1
    64   134   135    1
    65    70    71    1
    66   131   130    1
    67    49    51    1
    68    72    71   ar
    69    72    74   ar
    70    62    59   ar
    71    62    64   ar
    72    71    73   ar
    73    57    59   ar
    74    57    58   ar
    75    20    23    1
    76    20    19    1
    77    59    61   ar
    78    74    76   ar
    79    64    65   ar
    80    58    60   ar
    81    23    24    1
    82   130   124   am
    83    17    16   ar
    84    13    12    2
    85   105   104   ar
    86   105   103   ar
    87    73    75   ar
    88    19    12   am
    89    83    82    2
    90   104   102   ar
    91    61    60   ar
    92    61    63   ar
    93    12    11    1
    94   125   124    2
    95    65    63   ar
    96    14    15    1
    97    14    11    1
    98    77    78    1
    99    76    75   ar
   100   124   123    1
   101   103   101   ar
   102    81    82    1
   103    81    78    1
   104    16    15    1
   105    16    18   ar
   106    82    84   am
   107    24    25   ar
   108    24    26   ar
   109    79    78    1
   110    79    80    2
   111    88    87    2
   112    25    27   ar
   113   102    99   ar
   114    85    86    1
   115    11    10    1
   116   101    99   ar
   117   101   100   ar
   118    99    97   ar
   119    87    86    1
   120    87    92   am
   121   123   122    1
   122   123   126    1
   123   118   117    2
   124    26    28   ar
   125   109   108    2
   126    10     3   am
   127    27    29   ar
   128   111   110    1
   129   111   112    1
   130   110   107    1
   131    90    89    1
   132    86    89    1
   133   100    98   ar
   134   117   116    1
   135   106   107    1
   136   106    94   am
   137   126   127    1
   138    93    92    1
   139    93    94    1
   140    93    96    1
   141   108   107    1
   142   108   115   am
   143    97    98   ar
   144    97    96    1
   145    89    91    1
   146    28    29   ar
   147    29    30    1
   148     3     4    2
   149     3     2    1
   150    94    95    2
   151   112   114   ar
   152   112   113   ar
   153     1     2    1
   154   116   115    1
   155   116   119    1
   156   115   121    1
   157   127   128    2
   158   127   129   am
   159     2     5    1
   160     5     6    1
   161   119   120    1
   162     6     7    1
   163   121   120    1
   164     7     9   ar
   165     7     8   ar
