@<TRIPOS>MOLECULE
tmp/4qufK00.pdb
 139 134 0 0 0
SMALL
GASTEIGER

@<TRIPOS>ATOM
      1  N         71.5570   33.5970   23.4920 N.3     1  GLU1       -0.1231
      2  CA        70.3520   34.3210   23.8830 C.3     1  GLU1        0.1699
      3  C         70.6920   35.5120   24.7740 C.2     1  GLU1        0.2592
      4  O         71.7200   35.5150   25.4500 O.2     1  GLU1       -0.2718
      5  CB        69.3570   33.3860   24.5890 C.3     1  GLU1        0.0402
      6  CG        69.0450   32.1010   23.8100 C.3     1  GLU1        0.1161
      7  CD        67.8150   31.3570   24.3180 C.2     1  GLU1        0.3649
      8  OE1       67.6290   30.1830   23.9330 O.co2   1  GLU1       -0.2457
      9  OE2       67.0210   31.9400   25.0810 O.co2   1  GLU1       -0.2457
     10  N         69.8310   36.5270   24.7580 N.am    2  TYR2       -0.1962
     11  CA        69.9970   37.7040   25.6110 C.3     2  TYR2        0.1771
     12  C         69.0090   37.6230   26.7710 C.2     2  TYR2        0.2619
     13  O         68.0390   36.8690   26.7090 O.2     2  TYR2       -0.2715
     14  CB        69.7180   38.9950   24.8420 C.3     2  TYR2        0.0574
     15  CG        70.6220   39.3070   23.6650 C.ar    2  TYR2       -0.0198
     16  CD1       70.4650   40.4940   22.9650 C.ar    2  TYR2       -0.0009
     17  CD2       71.6190   38.4310   23.2490 C.ar    2  TYR2       -0.0009
     18  CE1       71.2680   40.8090   21.8910 C.ar    2  TYR2        0.0417
     19  CE2       72.4310   38.7370   22.1650 C.ar    2  TYR2        0.0417
     20  CZ        72.2470   39.9320   21.4900 C.ar    2  TYR2        0.1957
     21  OH        73.0370   40.2640   20.4100 O.3     2  TYR2       -0.2866
     22  N         69.2360   38.4140   27.8160 N.am    3  VAL3       -0.1963
     23  CA        68.3480   38.3860   28.9790 C.3     3  VAL3        0.1727
     24  C         67.2190   39.4270   28.9230 C.2     3  VAL3        0.2616
     25  O         67.4230   40.5770   28.5420 O.2     3  VAL3       -0.2715
     26  CB        69.1210   38.4080   30.3450 C.3     3  VAL3        0.0290
     27  CG1       70.6080   38.1670   30.1350 C.3     3  VAL3        0.0023
     28  CG2       68.8750   39.6950   31.1130 C.3     3  VAL3        0.0023
     29  N         66.0240   38.9900   29.3090 N.am    4  VAL4       -0.1977
     30  CA        64.7920   39.7570   29.1360 C.3     4  VAL4        0.1596
     31  C         64.3510   40.4230   30.4300 C.2     4  VAL4        0.2287
     32  O         64.2760   39.7810   31.4720 O.2     4  VAL4       -0.2864
     33  CB        63.6420   38.8250   28.6700 C.3     4  VAL4        0.0276
     34  CG1       62.2930   39.5480   28.6540 C.3     4  VAL4        0.0022
     35  CG2       63.9640   38.2070   27.3240 C.3     4  VAL4        0.0022
     36  N         64.2800   44.0760   26.2660 N.3    23  TRP23      -0.1241
     37  CA        65.5440   43.4310   26.5830 C.3    23  TRP23       0.1605
     38  C         66.2040   44.1470   27.7440 C.2    23  TRP23       0.2264
     39  O         66.2880   45.3710   27.7650 O.2    23  TRP23      -0.2867
     40  CB        66.4520   43.3920   25.3530 C.3    23  TRP23       0.0550
     41  CG        65.8480   42.6040   24.2290 C.ar   23  TRP23       0.0003
     42  CD1       65.2440   43.0980   23.1080 C.ar   23  TRP23       0.0946
     43  CD2       65.7620   41.1770   24.1370 C.ar   23  TRP23       0.0152
     44  NE1       64.7910   42.0630   22.3160 N.ar   23  TRP23      -0.2442
     45  CE2       65.0970   40.8740   22.9250 C.ar   23  TRP23       0.0810
     46  CE3       66.1750   40.1260   24.9620 C.ar   23  TRP23       0.0012
     47  CZ2       64.8390   39.5610   22.5210 C.ar   23  TRP23       0.0191
     48  CZ3       65.9280   38.8240   24.5550 C.ar   23  TRP23       0.0001
     49  CH2       65.2650   38.5540   23.3440 C.ar   23  TRP23       0.0015
     50  N         69.0240   47.2050   27.5320 N.3    26  PHE26      -0.1241
     51  CA        68.7920   48.0440   26.3610 C.3    26  PHE26       0.1605
     52  C         67.5570   48.9260   26.5790 C.2    26  PHE26       0.2264
     53  O         66.6760   48.5830   27.3770 O.2    26  PHE26      -0.2867
     54  CB        68.5670   47.1820   25.1250 C.3    26  PHE26       0.0534
     55  CG        69.7680   46.3930   24.6940 C.ar   26  PHE26      -0.0203
     56  CD1       70.6190   46.9020   23.7220 C.ar   26  PHE26      -0.0042
     57  CD2       70.0240   45.1270   25.2290 C.ar   26  PHE26      -0.0042
     58  CE1       71.7180   46.1870   23.2930 C.ar   26  PHE26      -0.0003
     59  CE2       71.1270   44.3870   24.8120 C.ar   26  PHE26      -0.0003
     60  CZ        71.9800   44.9250   23.8340 C.ar   26  PHE26      -0.0000
     61  N         65.0280   49.5460   21.3100 N.3    30  ASN30      -0.1240
     62  CA        65.5170   48.2450   20.8930 C.3    30  ASN30       0.1653
     63  C         64.5260   47.1160   21.1270 C.2    30  ASN30       0.2266
     64  O         64.8450   45.9520   20.8800 O.2    30  ASN30      -0.2867
     65  CB        66.8200   47.9280   21.6200 C.3    30  ASN30       0.1155
     66  CG        67.9530   48.8270   21.1880 C.2    30  ASN30       0.2627
     67  OD1       68.1590   49.9010   21.7510 O.2    30  ASN30      -0.2716
     68  ND2       68.6930   48.3970   20.1730 N.am   30  ASN30      -0.0877
     69  N         61.8470   44.3520   20.7080 N.3    32  THR32      -0.1218
     70  CA        61.5420   43.5620   19.5290 C.3    32  THR32       0.1862
     71  C         60.3250   42.6720   19.7300 C.2    32  THR32       0.2287
     72  O         60.0670   42.1870   20.8310 O.2    32  THR32      -0.2866
     73  CB        62.7510   42.7050   19.0540 C.3    32  THR32       0.1770
     74  OG1       63.1000   41.7440   20.0570 O.3    32  THR32      -0.2211
     75  CG2       63.9540   43.5790   18.7460 C.3    32  THR32       0.0375
     76  N         59.0330   39.2070   19.2460 N.3    34  GLU34      -0.1245
     77  CA        59.6510   37.8980   19.1200 C.3    34  GLU34       0.1567
     78  C         58.5920   36.8130   19.0570 C.2    34  GLU34       0.2260
     79  O         57.5750   36.9050   19.7270 O.2    34  GLU34      -0.2867
     80  CB        60.5980   37.6560   20.2940 C.3    34  GLU34       0.0388
     81  CG        61.8030   38.5830   20.2930 C.3    34  GLU34       0.1160
     82  CD        62.7050   38.3350   19.1150 C.2    34  GLU34       0.3649
     83  OE1       62.9180   37.1540   18.7770 O.co2  34  GLU34      -0.2457
     84  OE2       63.1960   39.3150   18.5230 O.co2  34  GLU34      -0.2457
     85  N         57.8450   30.9940   20.2270 N.3    37  GLU37      -0.1231
     86  CA        58.7710   29.8680   20.2670 C.3    37  GLU37       0.1699
     87  C         60.1380   30.2860   20.8000 C.2    37  GLU37       0.2592
     88  O         60.8770   29.4640   21.3400 O.2    37  GLU37      -0.2718
     89  CB        58.9210   29.2300   18.8730 C.3    37  GLU37       0.0402
     90  CG        57.6690   28.5570   18.2920 C.3    37  GLU37       0.1161
     91  CD        56.7610   29.5020   17.4860 C.2    37  GLU37       0.3649
     92  OE1       56.7150   30.7200   17.7840 O.co2  37  GLU37      -0.2457
     93  OE2       56.0890   29.0070   16.5490 O.co2  37  GLU37      -0.2457
     94  N         60.4700   31.5640   20.6420 N.am   38  ASN38      -0.1960
     95  CA        61.7870   32.1000   21.0110 C.3    38  ASN38       0.1819
     96  C         61.9600   32.3590   22.4980 C.2    38  ASN38       0.2621
     97  O         63.0710   32.5500   22.9870 O.2    38  ASN38      -0.2715
     98  CB        62.0350   33.4330   20.3020 C.3    38  ASN38       0.1195
     99  CG        62.7360   33.2710   18.9870 C.2    38  ASN38       0.2630
    100  OD1       62.7950   32.1750   18.4350 O.2    38  ASN38      -0.2716
    101  ND2       63.2740   34.3680   18.4700 N.am   38  ASN38      -0.0877
    102  N         60.8480   32.3560   23.2090 N.am   39  VAL39      -0.1977
    103  CA        60.7520   33.0670   24.4630 C.3    39  VAL39       0.1596
    104  C         60.6070   32.0760   25.6380 C.2    39  VAL39       0.2287
    105  O         60.3150   32.4570   26.7760 O.2    39  VAL39      -0.2864
    106  CB        59.6020   34.1230   24.3200 C.3    39  VAL39       0.0276
    107  CG1       58.3090   33.7040   25.0340 C.3    39  VAL39       0.0022
    108  CG2       60.0660   35.5180   24.7020 C.3    39  VAL39       0.0022
    109  N         62.6640   30.5190   27.5790 N.3    41  ASN41      -0.1225
    110  CA        63.4620   30.6630   28.7930 C.3    41  ASN41       0.1785
    111  C         63.0960   31.8690   29.6490 C.2    41  ASN41       0.2597
    112  O         63.8250   32.1990   30.5850 O.2    41  ASN41      -0.2718
    113  CB        64.9610   30.6710   28.4770 C.3    41  ASN41       0.1169
    114  CG        65.4120   29.4050   27.7770 C.2    41  ASN41       0.2627
    115  OD1       64.9620   28.3080   28.1110 O.2    41  ASN41      -0.2716
    116  ND2       66.2940   29.5510   26.7860 N.am   41  ASN41      -0.0877
    117  N         61.9840   32.5280   29.3270 N.am   42  CYS42      -0.1970
    118  CA        61.4780   33.6180   30.1630 C.3    42  CYS42       0.1712
    119  C         59.9640   33.5050   30.3610 C.2    42  CYS42       0.2296
    120  O         59.2340   34.5020   30.4230 O.2    42  CYS42      -0.2864
    121  CB        61.8950   34.9940   29.6250 C.3    42  CYS42       0.0983
    122  SG        61.1940   35.4970   28.0290 S.3    42  CYS42      -0.0798
    123  N         58.0990   32.7700   32.8860 N.3    44  LYS44      -0.1231
    124  CA        57.5530   33.4670   34.0440 C.3    44  LYS44       0.1693
    125  C         57.2200   34.9140   33.7040 C.2    44  LYS44       0.2591
    126  O         56.1590   35.4210   34.0640 O.2    44  LYS44      -0.2718
    127  CB        58.5230   33.4080   35.2230 C.3    44  LYS44       0.0285
    128  CG        57.9250   33.9000   36.5320 C.3    44  LYS44       0.0035
    129  CD        58.7610   33.4270   37.7080 C.3    44  LYS44       0.0206
    130  CE        58.7950   31.8960   37.8010 C.3    44  LYS44       0.1093
    131  NZ        57.4710   31.3290   38.2190 N.3    44  LYS44      -0.1314
    132  N         58.1150   35.5660   32.9750 N.am   45  LEU45      -0.1980
    133  CA        57.8610   36.9470   32.5610 C.3    45  LEU45       0.1596
    134  C         56.6490   37.0100   31.6290 C.2    45  LEU45       0.2287
    135  O         55.8400   37.9370   31.6820 O.2    45  LEU45      -0.2864
    136  CB        59.0940   37.5510   31.8840 C.3    45  LEU45       0.0297
    137  CG        59.9620   38.5300   32.6820 C.3    45  LEU45       0.0022
    138  CD1       59.8950   38.2720   34.1810 C.3    45  LEU45       0.0001
    139  CD2       61.4120   38.4810   32.1970 C.3    45  LEU45       0.0001
@<TRIPOS>BOND
     1    93    91   ar
     2    91    92   ar
     3    91    90    1
     4    90    89    1
     5   100    99    2
     6   101    99   am
     7    84    82   ar
     8    75    73    1
     9    83    82   ar
    10    89    86    1
    11    99    98    1
    12    73    70    1
    13    73    74    1
    14    78    77    1
    15    78    79    2
    16    82    81    1
    17    77    76    1
    18    77    80    1
    19    70    71    1
    20    70    69    1
    21    71    72    2
    22    68    66   am
    23    85    86    1
    24    86    87    1
    25    81    80    1
    26    98    95    1
    27    21    20    1
    28    94    87   am
    29    94    95    1
    30    87    88    2
    31    64    63    2
    32    62    63    1
    33    62    61    1
    34    62    65    1
    35    95    96    1
    36    66    65    1
    37    66    67    2
    38    20    18   ar
    39    20    19   ar
    40    18    16   ar
    41    19    17   ar
    42    44    45   ar
    43    44    42   ar
    44    96    97    2
    45    96   102   am
    46    47    45   ar
    47    47    49   ar
    48    45    43   ar
    49    16    15   ar
    50    42    41   ar
    51   102   103    1
    52    17    15   ar
    53    58    56   ar
    54    58    60   ar
    55    49    48   ar
    56     1     2    1
    57    15    14    1
    58    56    55   ar
    59     6     7    1
    60     6     5    1
    61    60    59   ar
    62     2     5    1
    63     2     3    1
    64     8     7   ar
    65    43    41   ar
    66    43    46   ar
    67    41    40    1
    68     7     9   ar
    69   106   103    1
    70   106   108    1
    71   106   107    1
    72   103   104    1
    73    48    46   ar
    74    55    54    1
    75    55    57   ar
    76    10     3   am
    77    10    11    1
    78     3     4    2
    79    59    57   ar
    80    14    11    1
    81    54    51    1
    82    40    37    1
    83    11    12    1
    84   104   105    2
    85    36    37    1
    86    51    52    1
    87    51    50    1
    88    52    53    2
    89    37    38    1
    90    13    12    2
    91    12    22   am
    92   116   114   am
    93    35    33    1
    94   109   110    1
    95    38    39    2
    96   114   115    2
    97   114   113    1
    98    22    23    1
    99   122   121    1
   100   113   110    1
   101    25    24    2
   102    34    33    1
   103    33    30    1
   104   110   111    1
   105    24    23    1
   106    24    29   am
   107    23    26    1
   108    30    29    1
   109    30    31    1
   110   117   111   am
   111   117   118    1
   112   121   118    1
   113   111   112    2
   114    27    26    1
   115   118   119    1
   116    26    28    1
   117   119   120    2
   118    31    32    2
   119   134   135    2
   120   134   133    1
   121   136   133    1
   122   136   137    1
   123   139   137    1
   124   133   132    1
   125   137   138    1
   126   123   124    1
   127   132   125   am
   128   125   124    1
   129   125   126    2
   130   124   127    1
   131   127   128    1
   132   128   129    1
   133   129   130    1
   134   130   131    1
