@<TRIPOS>MOLECULE
tmp/4quiB00.pdb
 193 194 0 0 0
SMALL
GASTEIGER

@<TRIPOS>ATOM
      1  N         60.2000   -1.4330  -44.2740 N.3    34  THR34      -0.1203
      2  CA        61.0250   -2.1530  -43.2990 C.3    34  THR34       0.1994
      3  C         61.6630   -3.4000  -43.9010 C.2    34  THR34       0.2619
      4  O         61.1250   -3.9800  -44.8360 O.2    34  THR34      -0.2717
      5  CB        60.1990   -2.5870  -42.0690 C.3    34  THR34       0.1784
      6  OG1       59.1910   -3.5250  -42.4740 O.3    34  THR34      -0.2211
      7  CG2       59.5360   -1.3990  -41.4380 C.3    34  THR34       0.0376
      8  N         62.8060   -3.8070  -43.3590 N.am   35  SER35      -0.1937
      9  CA        63.4320   -5.0510  -43.7830 C.3    35  SER35       0.2055
     10  C         62.5460   -6.2350  -43.4170 C.2    35  SER35       0.2643
     11  O         61.9060   -6.2330  -42.3660 O.2    35  SER35      -0.2714
     12  CB        64.8130   -5.2000  -43.1510 C.3    35  SER35       0.2130
     13  OG        65.6260   -4.1020  -43.5100 O.3    35  SER35      -0.2179
     14  N         62.4970   -7.2450  -44.2830 N.am   36  ARG36      -0.1963
     15  CA        61.5720   -8.3580  -44.0610 C.3    36  ARG36       0.1729
     16  C         62.2700   -9.5820  -43.4560 C.2    36  ARG36       0.2616
     17  O         62.4740  -10.5900  -44.1250 O.2    36  ARG36      -0.2715
     18  CB        60.8550   -8.7250  -45.3790 C.3    36  ARG36       0.0348
     19  CG        59.9800   -7.5870  -45.9400 C.3    36  ARG36       0.0492
     20  CD        59.2940   -7.9430  -47.2740 C.3    36  ARG36       0.2205
     21  NE        58.4810   -9.1410  -47.0900 N.pl3  36  ARG36      -0.0865
     22  CZ        58.8610  -10.3560  -47.4730 C.cat  36  ARG36       0.5346
     23  NH1       60.0140  -10.5230  -48.1260 N.pl3  36  ARG36       0.1354
     24  NH2       58.0900  -11.4030  -47.2150 N.pl3  36  ARG36       0.1354
     25  N         62.6380   -9.4780  -42.1810 N.am   37  SER37      -0.1950
     26  CA        63.3290  -10.5590  -41.4890 C.3    37  SER37       0.1924
     27  C         62.5430  -11.8620  -41.5630 C.2    37  SER37       0.2314
     28  O         61.3260  -11.8800  -41.3570 O.2    37  SER37      -0.2863
     29  CB        63.5800  -10.1780  -40.0260 C.3    37  SER37       0.2116
     30  OG        64.2910   -8.9570  -39.9480 O.3    37  SER37      -0.2180
     31  N         57.6080  -10.1390  -50.7380 N.3    92  SER92      -0.1202
     32  CA        57.8830   -8.7230  -50.5760 C.3    92  SER92       0.2020
     33  C         56.8030   -8.0180  -49.7590 C.2    92  SER92       0.2619
     34  O         55.8550   -8.6390  -49.2750 O.2    92  SER92      -0.2717
     35  CB        58.0110   -8.0510  -51.9500 C.3    92  SER92       0.2103
     36  OG        58.6230   -6.7770  -51.8440 O.3    92  SER92      -0.2182
     37  N         56.9620   -6.7100  -49.6000 N.am   93  HIS93      -0.1961
     38  CA        55.8570   -5.8930  -49.1500 C.3    93  HIS93       0.1787
     39  C         54.8270   -5.7810  -50.2700 C.2    93  HIS93       0.2620
     40  O         55.1100   -6.0730  -51.4350 O.2    93  HIS93      -0.2715
     41  CB        56.3360   -4.5060  -48.7140 C.3    93  HIS93       0.0785
     42  CG        57.1120   -4.5110  -47.4300 C.ar   93  HIS93       0.0821
     43  ND1       56.5300   -4.7930  -46.2130 N.ar   93  HIS93      -0.2267
     44  CD2       58.4230   -4.2760  -47.1740 C.ar   93  HIS93       0.1154
     45  CE1       57.4460   -4.7260  -45.2610 C.ar   93  HIS93       0.1986
     46  NE2       58.6020   -4.4090  -45.8170 N.ar   93  HIS93      -0.2212
     47  N         53.6210   -5.3710  -49.9120 N.am   94  GLY94      -0.1954
     48  CA        52.5970   -5.1780  -50.9260 C.3    94  GLY94       0.1869
     49  C         51.3690   -4.4890  -50.3790 C.2    94  GLY94       0.2309
     50  O         51.2360   -4.2750  -49.1620 O.2    94  GLY94      -0.2863
     51  N         53.5350  -13.9660  -51.3300 N.3   133  GLN133     -0.1231
     52  CA        53.6400  -13.6000  -49.9250 C.3   133  GLN133      0.1698
     53  C         53.8880  -12.0990  -49.8490 C.2   133  GLN133      0.2592
     54  O         55.0080  -11.6370  -50.0800 O.2   133  GLN133     -0.2718
     55  CB        54.7670  -14.3740  -49.2360 C.3   133  GLN133      0.0381
     56  CG        55.1200  -13.8620  -47.8200 C.3   133  GLN133      0.0905
     57  CD        53.9570  -13.9260  -46.8540 C.2   133  GLN133      0.2608
     58  OE1       53.1700  -14.8710  -46.8670 O.2   133  GLN133     -0.2717
     59  NE2       53.8390  -12.9050  -46.0060 N.am  133  GLN133     -0.0878
     60  N         52.8280  -11.3550  -49.5490 N.am  134  ALA134     -0.1966
     61  CA        52.8600   -9.8950  -49.4660 C.3   134  ALA134      0.1728
     62  C         51.5540   -9.4240  -48.8620 C.2   134  ALA134      0.2616
     63  O         50.5440  -10.1240  -48.9550 O.2   134  ALA134     -0.2715
     64  CB        53.0510   -9.2700  -50.8320 C.3   134  ALA134      0.0334
     65  N         51.5460   -8.2350  -48.2740 N.am  135  CYS135     -0.1968
     66  CA        50.2880   -7.7160  -47.7420 C.3   135  CYS135      0.1712
     67  C         49.3540   -7.3130  -48.8750 C.2   135  CYS135      0.2296
     68  O         49.8020   -7.0380  -49.9870 O.2   135  CYS135     -0.2864
     69  CB        50.5300   -6.5410  -46.8080 C.3   135  CYS135      0.0983
     70  SG        51.3200   -7.0870  -45.2610 S.3   135  CYS135     -0.0798
     71  N         46.5490   -7.5570  -44.0680 N.3   175  TYR175     -0.1227
     72  CA        47.9680   -7.8010  -43.8430 C.3   175  TYR175      0.1736
     73  C         48.2510   -9.2810  -44.0460 C.2   175  TYR175      0.2596
     74  O         47.3510  -10.1210  -43.9120 O.2   175  TYR175     -0.2718
     75  CB        48.3940   -7.4430  -42.4120 C.3   175  TYR175      0.0548
     76  CG        48.5710   -5.9880  -42.0410 C.ar  175  TYR175     -0.0200
     77  CD1       49.5470   -5.1980  -42.6270 C.ar  175  TYR175     -0.0009
     78  CD2       47.8090   -5.4360  -41.0240 C.ar  175  TYR175     -0.0009
     79  CE1       49.7230   -3.8730  -42.2350 C.ar  175  TYR175      0.0417
     80  CE2       47.9780   -4.1330  -40.6250 C.ar  175  TYR175      0.0417
     81  CZ        48.9280   -3.3530  -41.2310 C.ar  175  TYR175      0.1957
     82  OH        49.0660   -2.0490  -40.8110 O.3   175  TYR175     -0.2866
     83  N         49.5110   -9.5940  -44.3140 N.am  176  SER176     -0.1938
     84  CA        49.9830  -10.9630  -44.2800 C.3   176  SER176      0.2055
     85  C         51.0550  -11.0630  -43.2110 C.2   176  SER176      0.2643
     86  O         51.8390  -10.1370  -43.0540 O.2   176  SER176     -0.2714
     87  CB        50.5570  -11.3830  -45.6220 C.3   176  SER176      0.2130
     88  OG        50.9310  -12.7480  -45.5890 O.3   176  SER176     -0.2179
     89  N         51.1230  -12.1980  -42.5260 N.am  177  TRP177     -0.1959
     90  CA        52.0530  -12.3440  -41.4060 C.3   177  TRP177      0.1771
     91  C         53.3260  -13.1190  -41.7340 C.2   177  TRP177      0.2620
     92  O         53.2990  -14.1450  -42.4250 O.2   177  TRP177     -0.2715
     93  CB        51.3240  -13.0160  -40.2440 C.3   177  TRP177      0.0590
     94  CG        50.3760  -12.1010  -39.5400 C.ar  177  TRP177      0.0006
     95  CD1       49.0270  -11.9690  -39.7720 C.ar  177  TRP177      0.0946
     96  CD2       50.6930  -11.1870  -38.4890 C.ar  177  TRP177      0.0152
     97  NE1       48.4910  -11.0270  -38.9150 N.ar  177  TRP177     -0.2442
     98  CE2       49.4930  -10.5370  -38.1180 C.ar  177  TRP177      0.0810
     99  CE3       51.8790  -10.8550  -37.8170 C.ar  177  TRP177      0.0012
    100  CZ2       49.4490   -9.5700  -37.1090 C.ar  177  TRP177      0.0191
    101  CZ3       51.8280   -9.8990  -36.8250 C.ar  177  TRP177      0.0001
    102  CH2       50.6280   -9.2680  -36.4780 C.ar  177  TRP177      0.0015
    103  N         54.4360  -12.6290  -41.1990 N.am  178  ARG178     -0.1963
    104  CA        55.7430  -13.2340  -41.4080 C.3   178  ARG178      0.1729
    105  C         56.4470  -13.2920  -40.0710 C.2   178  ARG178      0.2616
    106  O         56.4980  -12.2970  -39.3590 O.2   178  ARG178     -0.2715
    107  CB        56.5500  -12.4250  -42.4330 C.3   178  ARG178      0.0348
    108  CG        58.0510  -12.7090  -42.4380 C.3   178  ARG178      0.0492
    109  CD        58.7900  -11.8060  -43.4300 C.3   178  ARG178      0.2205
    110  NE        58.2410  -10.4600  -43.4040 N.pl3 178  ARG178     -0.0865
    111  CZ        58.5420   -9.5380  -42.4970 C.cat 178  ARG178      0.5346
    112  NH1       57.9440   -8.3520  -42.5430 N.pl3 178  ARG178      0.1354
    113  NH2       59.4240   -9.7990  -41.5370 N.pl3 178  ARG178      0.1354
    114  N         56.9610  -14.4600  -39.7090 N.am  179  ASN179     -0.1958
    115  CA        57.7230  -14.5650  -38.4700 C.3   179  ASN179      0.1819
    116  C         59.2240  -14.4180  -38.7560 C.2   179  ASN179      0.2622
    117  O         59.7560  -15.0540  -39.6620 O.2   179  ASN179     -0.2715
    118  CB        57.4200  -15.8910  -37.7670 C.3   179  ASN179      0.1195
    119  CG        58.1300  -16.0090  -36.4350 C.2   179  ASN179      0.2630
    120  OD1       59.2860  -16.4090  -36.3830 O.2   179  ASN179     -0.2716
    121  ND2       57.4450  -15.6380  -35.3550 N.am  179  ASN179     -0.0877
    122  N         59.8960  -13.5670  -37.9880 N.am  180  SER180     -0.1936
    123  CA        61.2860  -13.2160  -38.2750 C.3   180  SER180      0.2055
    124  C         62.2330  -14.3980  -38.0850 C.2   180  SER180      0.2642
    125  O         63.3230  -14.4220  -38.6600 O.2   180  SER180     -0.2714
    126  CB        61.7300  -12.0460  -37.4010 C.3   180  SER180      0.2130
    127  OG        61.5270  -12.3380  -36.0330 O.3   180  SER180     -0.2179
    128  N         61.8210  -15.3720  -37.2810 N.am  181  LYS181     -0.1977
    129  CA        62.6410  -16.5540  -37.0420 C.3   181  LYS181      0.1596
    130  C         62.2480  -17.7170  -37.9490 C.2   181  LYS181      0.2287
    131  O         63.1140  -18.3920  -38.5180 O.2   181  LYS181     -0.2864
    132  CB        62.5450  -16.9780  -35.5730 C.3   181  LYS181      0.0298
    133  CG        63.1810  -18.3270  -35.2570 C.3   181  LYS181      0.0038
    134  CD        64.6500  -18.3710  -35.6560 C.3   181  LYS181      0.0206
    135  CE        65.3670  -19.5630  -35.0270 C.3   181  LYS181      0.1093
    136  NZ        64.6190  -20.8400  -35.2040 N.3   181  LYS181     -0.1314
    137  N         54.0160  -17.4550  -42.3780 N.3   185  TRP185     -0.1241
    138  CA        53.0540  -18.5080  -42.0770 C.3   185  TRP185      0.1605
    139  C         52.6840  -19.2660  -43.3510 C.2   185  TRP185      0.2264
    140  O         52.6540  -20.4960  -43.3880 O.2   185  TRP185     -0.2867
    141  CB        51.8020  -17.9070  -41.4440 C.3   185  TRP185      0.0550
    142  CG        52.0200  -17.1410  -40.1490 C.ar  185  TRP185      0.0003
    143  CD1       53.1900  -16.9810  -39.4520 C.ar  185  TRP185      0.0946
    144  CD2       51.0100  -16.4550  -39.4010 C.ar  185  TRP185      0.0152
    145  NE1       52.9630  -16.2140  -38.3210 N.ar  185  TRP185     -0.2442
    146  CE2       51.6310  -15.8980  -38.2630 C.ar  185  TRP185      0.0810
    147  CE3       49.6330  -16.2640  -39.5850 C.ar  185  TRP185      0.0012
    148  CZ2       50.9240  -15.1470  -37.3150 C.ar  185  TRP185      0.0191
    149  CZ3       48.9290  -15.5240  -38.6460 C.ar  185  TRP185      0.0001
    150  CH2       49.5830  -14.9670  -37.5200 C.ar  185  TRP185      0.0015
    151  N         48.7790  -17.8150  -35.0250 N.3   219  GLU219     -0.1231
    152  CA        48.1270  -16.6670  -34.4150 C.3   219  GLU219      0.1699
    153  C         49.2090  -15.7190  -33.9530 C.2   219  GLU219      0.2593
    154  O         50.2060  -16.1610  -33.3650 O.2   219  GLU219     -0.2718
    155  CB        47.2290  -17.0920  -33.2520 C.3   219  GLU219      0.0402
    156  CG        46.5170  -15.9380  -32.5720 C.3   219  GLU219      0.1161
    157  CD        45.6360  -16.3920  -31.4240 C.2   219  GLU219      0.3649
    158  OE1       45.7860  -15.8340  -30.3170 O.co2 219  GLU219     -0.2457
    159  OE2       44.7960  -17.2990  -31.6330 O.co2 219  GLU219     -0.2457
    160  N         49.0450  -14.4260  -34.2320 N.am  220  SER220     -0.1938
    161  CA        50.1190  -13.4820  -33.9340 C.3   220  SER220      0.2055
    162  C         50.2760  -13.2500  -32.4430 C.2   220  SER220      0.2643
    163  O         49.3170  -13.2970  -31.6850 O.2   220  SER220     -0.2714
    164  CB        49.8900  -12.1400  -34.6370 C.3   220  SER220      0.2130
    165  OG        48.8190  -11.4200  -34.0390 O.3   220  SER220     -0.2179
    166  N         51.5110  -12.9960  -32.0380 N.am  221  PHE221     -0.1959
    167  CA        51.8030  -12.5790  -30.6760 C.3   221  PHE221      0.1771
    168  C         52.4910  -11.2210  -30.7230 C.2   221  PHE221      0.2620
    169  O         53.5160  -11.0640  -31.3750 O.2   221  PHE221     -0.2715
    170  CB        52.6880  -13.6030  -29.9700 C.3   221  PHE221      0.0574
    171  CG        53.0170  -13.2300  -28.5650 C.ar  221  PHE221     -0.0200
    172  CD1       52.1740  -13.5980  -27.5260 C.ar  221  PHE221     -0.0042
    173  CD2       54.1640  -12.5080  -28.2810 C.ar  221  PHE221     -0.0042
    174  CE1       52.4790  -13.2500  -26.2130 C.ar  221  PHE221     -0.0003
    175  CE2       54.4740  -12.1580  -26.9650 C.ar  221  PHE221     -0.0003
    176  CZ        53.6300  -12.5280  -25.9430 C.ar  221  PHE221     -0.0000
    177  N         51.9320  -10.2360  -30.0330 N.am  222  SER222     -0.1950
    178  CA        52.5100   -8.9060  -30.0630 C.3   222  SER222      0.1924
    179  C         52.3120   -8.1930  -28.7380 C.2   222  SER222      0.2314
    180  O         51.2810   -8.3630  -28.0930 O.2   222  SER222     -0.2863
    181  CB        51.8750   -8.0840  -31.1960 C.3   222  SER222      0.2116
    182  OG        52.3450   -6.7530  -31.1880 O.3   222  SER222     -0.2180
    183  N         47.9650   -5.3910  -32.7870 N.3   227  PHE227     -0.1241
    184  CA        48.4890   -6.4440  -33.6640 C.3   227  PHE227      0.1605
    185  C         48.5070   -7.8250  -33.0200 C.2   227  PHE227      0.2264
    186  O         48.9760   -8.7960  -33.6170 O.2   227  PHE227     -0.2867
    187  CB        49.8990   -6.0730  -34.1340 C.3   227  PHE227      0.0534
    188  CG        49.9100   -4.9610  -35.1370 C.ar  227  PHE227     -0.0203
    189  CD1       49.8370   -3.6380  -34.7250 C.ar  227  PHE227     -0.0042
    190  CD2       49.9410   -5.2380  -36.4920 C.ar  227  PHE227     -0.0042
    191  CE1       49.8220   -2.6040  -35.6540 C.ar  227  PHE227     -0.0003
    192  CE2       49.9280   -4.2050  -37.4280 C.ar  227  PHE227     -0.0003
    193  CZ        49.8710   -2.8940  -37.0070 C.ar  227  PHE227     -0.0000
@<TRIPOS>BOND
     1    35    36    1
     2    35    32    1
     3    40    39    2
     4    51    52    1
     5    48    49    1
     6    48    47    1
     7    64    61    1
     8    31    32    1
     9    32    33    1
    10    49    50    2
    11    39    47   am
    12    39    38    1
    13    54    53    2
    14    68    67    2
    15    52    53    1
    16    52    55    1
    17    53    60   am
    18    33    37   am
    19    33    34    2
    20    37    38    1
    21    60    61    1
    22    61    62    1
    23    55    56    1
    24    38    41    1
    25    63    62    2
    26    67    66    1
    27    62    65   am
    28    41    42    1
    29    65    66    1
    30    23    22    1
    31    56    57    1
    32    66    69    1
    33    22    24    1
    34    22    21    2
    35    42    44   ar
    36    42    43   ar
    37    20    21    1
    38    20    19    1
    39    44    46   ar
    40    58    57    2
    41    57    59   am
    42    69    70    1
    43    43    45   ar
    44    19    18    1
    45    46    45   ar
    46    87    88    1
    47    87    84    1
    48    18    15    1
    49     4     3    2
    50    83    84    1
    51    83    73   am
    52    14    15    1
    53    14    10   am
    54    84    85    1
    55     1     2    1
    56    17    16    2
    57    71    72    1
    58    15    16    1
    59    73    74    2
    60    73    72    1
    61     3     8   am
    62     3     2    1
    63    72    75    1
    64     9    10    1
    65     9     8    1
    66     9    12    1
    67    13    12    1
    68    16    25   am
    69   109   110    1
    70   109   108    1
    71    10    11    2
    72   110   111    2
    73   140   139    2
    74   139   138    1
    75     2     5    1
    76    85    86    2
    77    85    89   am
    78    77    79   ar
    79    77    76   ar
    80   112   111    1
    81    89    90    1
    82   111   113    1
    83     6     5    1
    84   108   107    1
    85   107   104    1
    86    92    91    2
    87    75    76    1
    88   137   138    1
    89    79    81   ar
    90    25    26    1
    91   138   141    1
    92     5     7    1
    93    76    78   ar
    94    91    90    1
    95    91   103   am
    96    27    26    1
    97    27    28    2
    98    26    29    1
    99   141   142    1
   100   104   103    1
   101   104   105    1
   102    90    93    1
   103    81    82    1
   104    81    80   ar
   105    78    80   ar
   106    93    94    1
   107   142   143   ar
   108   142   144   ar
   109   105   114   am
   110   105   106    2
   111    29    30    1
   112    95    94   ar
   113    95    97   ar
   114   114   115    1
   115   117   116    2
   116   147   144   ar
   117   147   149   ar
   118    94    96   ar
   119   143   145   ar
   120   144   146   ar
   121    97    98   ar
   122   116   115    1
   123   116   122   am
   124   125   124    2
   125   149   150   ar
   126   131   130    2
   127    96    98   ar
   128    96    99   ar
   129   115   118    1
   130   145   146   ar
   131   123   124    1
   132   123   122    1
   133   123   126    1
   134   146   148   ar
   135    98   100   ar
   136   124   128   am
   137   130   129    1
   138    99   101   ar
   139   118   119    1
   140   150   148   ar
   141   192   193   ar
   142   192   190   ar
   143   126   127    1
   144   128   129    1
   145   100   102   ar
   146   129   132    1
   147   193   191   ar
   148   101   102   ar
   149   190   188   ar
   150   119   120    2
   151   119   121   am
   152   134   133    1
   153   134   135    1
   154   191   189   ar
   155   132   133    1
   156   136   135    1
   157   188   189   ar
   158   188   187    1
   159   151   152    1
   160   164   165    1
   161   164   161    1
   162   152   153    1
   163   152   155    1
   164   160   153   am
   165   160   161    1
   166   187   184    1
   167   153   154    2
   168   161   162    1
   169   184   185    1
   170   184   183    1
   171   186   185    2
   172   155   156    1
   173   156   157    1
   174   162   166   am
   175   162   163    2
   176   166   167    1
   177   159   157   ar
   178   157   158   ar
   179   169   168    2
   180   181   182    1
   181   181   178    1
   182   168   167    1
   183   168   177   am
   184   167   170    1
   185   178   177    1
   186   178   179    1
   187   170   171    1
   188   179   180    2
   189   171   173   ar
   190   171   172   ar
   191   173   175   ar
   192   172   174   ar
   193   175   176   ar
   194   174   176   ar
