@<TRIPOS>MOLECULE
tmp/4quiB01.pdb
 87 82 0 0 0
SMALL
GASTEIGER

@<TRIPOS>ATOM
      1  N         60.2000    1.4970  -46.3320 N.3    33  MET33      -0.1230
      2  CA        59.7760    0.1110  -46.1080 C.3    33  MET33       0.1702
      3  C         60.7450   -0.6680  -45.2160 C.2    33  MET33       0.2593
      4  O         61.9600   -0.5890  -45.3870 O.2    33  MET33      -0.2718
      5  CB        59.6020   -0.6060  -47.4410 C.3    33  MET33       0.0401
      6  CG        58.4010   -0.0940  -48.2380 C.3    33  MET33       0.0596
      7  SD        58.0940   -1.0460  -49.7280 S.3    33  MET33      -0.1393
      8  CE        59.1420   -0.1890  -50.9130 C.3    33  MET33       0.0692
      9  N         60.2000   -1.4330  -44.2740 N.am   34  THR34      -0.1953
     10  CA        61.0250   -2.1530  -43.2990 C.3    34  THR34       0.1897
     11  C         61.6630   -3.4000  -43.9010 C.2    34  THR34       0.2313
     12  O         61.1250   -3.9800  -44.8360 O.2    34  THR34      -0.2863
     13  CB        60.1990   -2.5870  -42.0690 C.3    34  THR34       0.1794
     14  OG1       59.1910   -3.5250  -42.4740 O.3    34  THR34      -0.2208
     15  CG2       59.5360   -1.3990  -41.4380 C.3    34  THR34       0.0378
     16  N         56.9620   -6.7100  -49.6000 N.3    93  HIS93      -0.1226
     17  CA        55.8570   -5.8930  -49.1500 C.3    93  HIS93       0.1752
     18  C         54.8270   -5.7810  -50.2700 C.2    93  HIS93       0.2597
     19  O         55.1100   -6.0730  -51.4350 O.2    93  HIS93      -0.2718
     20  CB        56.3360   -4.5060  -48.7140 C.3    93  HIS93       0.0759
     21  CG        57.1120   -4.5110  -47.4300 C.ar   93  HIS93       0.0818
     22  ND1       56.5300   -4.7930  -46.2130 N.ar   93  HIS93      -0.2268
     23  CD2       58.4230   -4.2760  -47.1740 C.ar   93  HIS93       0.1154
     24  CE1       57.4460   -4.7260  -45.2610 C.ar   93  HIS93       0.1986
     25  NE2       58.6020   -4.4090  -45.8170 N.ar   93  HIS93      -0.2212
     26  N         53.6210   -5.3710  -49.9120 N.am   94  GLY94      -0.1942
     27  CA        52.5970   -5.1780  -50.9260 C.3    94  GLY94       0.2014
     28  C         51.3690   -4.4890  -50.3790 C.2    94  GLY94       0.2638
     29  O         51.2360   -4.2750  -49.1620 O.2    94  GLY94      -0.2714
     30  N         50.4690   -4.1310  -51.2880 N.am   95  GLU95      -0.1977
     31  CA        49.1150   -3.7810  -50.9100 C.3    95  GLU95       0.1602
     32  C         48.2270   -4.3350  -52.0060 C.2    95  GLU95       0.2287
     33  O         48.7310   -4.9910  -52.9140 O.2    95  GLU95      -0.2864
     34  CB        48.9430   -2.2710  -50.7170 C.3    95  GLU95       0.0415
     35  CG        49.3270   -1.4010  -51.8780 C.3    95  GLU95       0.1163
     36  CD        49.2600    0.0790  -51.5110 C.2    95  GLU95       0.3649
     37  OE1       49.4370    0.9250  -52.4070 O.co2  95  GLU95      -0.2457
     38  OE2       49.0310    0.3930  -50.3240 O.co2  95  GLU95      -0.2457
     39  N         49.4020   -4.8840  -55.7210 N.3    98  ILE98      -0.1245
     40  CA        50.7340   -4.3110  -55.8270 C.3    98  ILE98       0.1561
     41  C         51.7600   -5.1660  -55.1070 C.2    98  ILE98       0.2260
     42  O         51.4750   -5.7030  -54.0410 O.2    98  ILE98      -0.2867
     43  CB        50.7410   -2.8830  -55.2400 C.3    98  ILE98       0.0252
     44  CG1       50.0530   -1.9110  -56.2000 C.3    98  ILE98       0.0019
     45  CG2       52.1520   -2.4100  -54.9210 C.3    98  ILE98       0.0019
     46  CD1       49.7330   -0.5740  -55.5650 C.3    98  ILE98       0.0001
     47  N         55.9630   -4.8370  -53.9060 N.3   100  ALA100     -0.1245
     48  CA        56.9900   -3.8130  -53.7710 C.3   100  ALA100      0.1562
     49  C         58.3220   -4.2350  -54.3840 C.2   100  ALA100      0.2260
     50  O         58.8840   -5.2590  -54.0110 O.2   100  ALA100     -0.2867
     51  CB        57.1890   -3.4490  -52.2830 C.3   100  ALA100      0.0290
     52  N         56.6500    0.5010  -55.9140 N.3   105  PRO105     -0.2116
     53  CA        55.6130   -0.4750  -56.2720 C.3   105  PRO105      0.1372
     54  C         55.6370   -0.9750  -57.7190 C.2   105  PRO105      0.2244
     55  O         56.0080   -0.2480  -58.6480 O.2   105  PRO105     -0.2868
     56  CB        54.2980    0.2940  -56.0180 C.3   105  PRO105      0.0268
     57  CG        54.6780    1.5570  -55.3260 C.3   105  PRO105      0.0207
     58  CD        56.0950    1.8460  -55.6960 C.3   105  PRO105      0.0892
     59  N         51.5460   -8.2350  -48.2740 N.3   135  CYS135     -0.1235
     60  CA        50.2880   -7.7160  -47.7420 C.3   135  CYS135      0.1677
     61  C         49.3540   -7.3130  -48.8750 C.2   135  CYS135      0.2270
     62  O         49.8020   -7.0380  -49.9870 O.2   135  CYS135     -0.2867
     63  CB        50.5300   -6.5410  -46.8080 C.3   135  CYS135      0.0956
     64  SG        51.3200   -7.0870  -45.2610 S.3   135  CYS135     -0.0801
     65  N         46.8520   -4.9480  -48.0900 N.3   137  GLY137     -0.1210
     66  CA        46.1300   -3.9260  -47.3560 C.3   137  GLY137      0.1956
     67  C         46.5440   -3.9780  -45.8990 C.2   137  GLY137      0.2612
     68  O         47.5930   -4.5370  -45.5790 O.2   137  GLY137     -0.2717
     69  N         45.7280   -3.4010  -45.0200 N.am  138  THR138     -0.1952
     70  CA        46.1240   -3.2420  -43.6310 C.3   138  THR138      0.1897
     71  C         45.0780   -3.7780  -42.6510 C.2   138  THR138      0.2313
     72  O         45.1390   -3.5050  -41.4550 O.2   138  THR138     -0.2863
     73  CB        46.3900   -1.7560  -43.3000 C.3   138  THR138      0.1794
     74  OG1       45.2410   -0.9830  -43.6660 O.3   138  THR138     -0.2208
     75  CG2       47.6020   -1.2420  -44.0600 C.3   138  THR138      0.0378
     76  N         46.5490   -7.5570  -44.0680 N.3   175  TYR175     -0.1241
     77  CA        47.9680   -7.8010  -43.8430 C.3   175  TYR175      0.1605
     78  C         48.2510   -9.2810  -44.0460 C.2   175  TYR175      0.2264
     79  O         47.3510  -10.1210  -43.9120 O.2   175  TYR175     -0.2867
     80  CB        48.3940   -7.4430  -42.4120 C.3   175  TYR175      0.0534
     81  CG        48.5710   -5.9880  -42.0410 C.ar  175  TYR175     -0.0201
     82  CD1       49.5470   -5.1980  -42.6270 C.ar  175  TYR175     -0.0009
     83  CD2       47.8090   -5.4360  -41.0240 C.ar  175  TYR175     -0.0009
     84  CE1       49.7230   -3.8730  -42.2350 C.ar  175  TYR175      0.0417
     85  CE2       47.9780   -4.1330  -40.6250 C.ar  175  TYR175      0.0417
     86  CZ        48.9280   -3.3530  -41.2310 C.ar  175  TYR175      0.1957
     87  OH        49.0660   -2.0490  -40.8110 O.3   175  TYR175     -0.2866
@<TRIPOS>BOND
     1    55    54    2
     2    54    53    1
     3    53    56    1
     4    53    52    1
     5    44    46    1
     6    44    43    1
     7    56    57    1
     8    52    58    1
     9    40    39    1
    10    40    43    1
    11    40    41    1
    12    58    57    1
    13    43    45    1
    14    41    42    2
    15    49    50    2
    16    49    48    1
    17    47    48    1
    18    48    51    1
    19    33    32    2
    20    37    36   ar
    21    32    31    1
    22    35    36    1
    23    35    34    1
    24    36    38   ar
    25    19    18    2
    26    30    31    1
    27    30    28   am
    28    27    28    1
    29    27    26    1
    30     8     7    1
    31    31    34    1
    32    28    29    2
    33    18    26   am
    34    18    17    1
    35    62    61    2
    36     7     6    1
    37    16    17    1
    38    17    20    1
    39    61    60    1
    40    20    21    1
    41    59    60    1
    42     6     5    1
    43    65    66    1
    44    60    63    1
    45     5     2    1
    46    21    23   ar
    47    21    22   ar
    48    66    67    1
    49    23    25   ar
    50    63    64    1
    51     1     2    1
    52    22    24   ar
    53     2     3    1
    54    67    68    2
    55    67    69   am
    56    25    24   ar
    57     4     3    2
    58     3     9   am
    59    69    70    1
    60    12    11    2
    61     9    10    1
    62    76    77    1
    63    75    73    1
    64    78    79    2
    65    78    77    1
    66    11    10    1
    67    77    80    1
    68    74    73    1
    69    70    73    1
    70    70    71    1
    71    10    13    1
    72    71    72    2
    73    82    84   ar
    74    82    81   ar
    75    14    13    1
    76    80    81    1
    77    84    86   ar
    78    13    15    1
    79    81    83   ar
    80    86    87    1
    81    86    85   ar
    82    83    85   ar
