@<TRIPOS>MOLECULE
tmp/4qumA00.pdb
 221 213 0 0 0
SMALL
GASTEIGER

@<TRIPOS>ATOM
      1  N         47.4170  -22.5710   -3.9710 N.3    29  ARG29      -0.1245
      2  CA        46.9260  -23.2370   -5.1670 C.3    29  ARG29       0.1563
      3  C         46.7760  -24.7330   -4.8970 C.2    29  ARG29       0.2260
      4  O         45.8020  -25.3430   -5.3480 O.2    29  ARG29      -0.2867
      5  CB        47.8480  -22.9420   -6.3480 C.3    29  ARG29       0.0307
      6  CG        47.7090  -21.4880   -6.7870 C.3    29  ARG29       0.0489
      7  CD        49.0030  -20.8560   -7.2580 C.3    29  ARG29       0.2205
      8  NE        49.1200  -20.8550   -8.7180 N.pl3  29  ARG29      -0.0865
      9  CZ        49.9070  -21.6760   -9.4090 C.cat  29  ARG29       0.5346
     10  NH1       50.6620  -22.5720   -8.7790 N.pl3  29  ARG29       0.1354
     11  NH2       49.9500  -21.5960  -10.7300 N.pl3  29  ARG29       0.1354
     12  N         51.7600  -41.6380  -15.6370 N.3    45  LEU45      -0.1231
     13  CA        52.2020  -40.3180  -16.0820 C.3    45  LEU45       0.1693
     14  C         51.5270  -39.8350  -17.3760 C.2    45  LEU45       0.2592
     15  O         51.0060  -38.7180  -17.4200 O.2    45  LEU45      -0.2718
     16  CB        53.7320  -40.3030  -16.2290 C.3    45  LEU45       0.0284
     17  CG        54.4270  -40.3130  -14.8460 C.3    45  LEU45       0.0019
     18  CD1       55.8550  -40.9190  -14.8290 C.3    45  LEU45       0.0001
     19  CD2       54.4310  -38.9130  -14.2220 C.3    45  LEU45       0.0001
     20  N         51.4890  -40.6690  -18.4120 N.am   46  ASP46      -0.1974
     21  CA        50.9630  -40.1930  -19.6900 C.3    46  ASP46       0.1709
     22  C         49.4240  -40.1810  -19.7460 C.2    46  ASP46       0.2293
     23  O         48.8410  -39.9160  -20.8000 O.2    46  ASP46      -0.2864
     24  CB        51.5290  -41.0170  -20.8560 C.3    46  ASP46       0.1436
     25  CG        51.0930  -42.4690  -20.8300 C.2    46  ASP46       0.3671
     26  OD1       50.0740  -42.8050  -20.1790 O.co2  46  ASP46      -0.2456
     27  OD2       51.7850  -43.2860  -21.4780 O.co2  46  ASP46      -0.2456
     28  N         47.9300  -38.0970  -17.8560 N.3    48  ASN48      -0.1225
     29  CA        47.6930  -36.6930  -17.5740 C.3    48  ASN48       0.1785
     30  C         47.9310  -35.8380  -18.8270 C.2    48  ASN48       0.2597
     31  O         48.9270  -35.9900  -19.5190 O.2    48  ASN48      -0.2718
     32  CB        48.5860  -36.2340  -16.4200 C.3    48  ASN48       0.1169
     33  CG        48.4060  -37.0850  -15.1750 C.2    48  ASN48       0.2627
     34  OD1       47.2940  -37.2710  -14.6960 O.2    48  ASN48      -0.2716
     35  ND2       49.4990  -37.6150  -14.6560 N.am   48  ASN48      -0.0877
     36  N         47.0110  -34.9360  -19.1130 N.am   49  ARG49      -0.1966
     37  CA        47.1790  -34.0320  -20.2330 C.3    49  ARG49       0.1729
     38  C         48.2220  -32.9570  -19.8950 C.2    49  ARG49       0.2616
     39  O         49.0030  -32.5430  -20.7410 O.2    49  ARG49      -0.2715
     40  CB        45.8240  -33.4120  -20.6060 C.3    49  ARG49       0.0348
     41  CG        45.8750  -32.1930  -21.4870 C.3    49  ARG49       0.0492
     42  CD        44.4740  -31.7550  -21.9470 C.3    49  ARG49       0.2205
     43  NE        43.7690  -32.8130  -22.6670 N.pl3  49  ARG49      -0.0865
     44  CZ        43.8940  -33.0600  -23.9690 C.cat  49  ARG49       0.5346
     45  NH1       44.7030  -32.3170  -24.7270 N.pl3  49  ARG49       0.1354
     46  NH2       43.2060  -34.0540  -24.5120 N.pl3  49  ARG49       0.1354
     47  N         48.2410  -32.5080  -18.6480 N.am   50  TYR50      -0.1960
     48  CA        49.1820  -31.4680  -18.2490 C.3    50  TYR50       0.1771
     49  C         50.0270  -31.9610  -17.0950 C.2    50  TYR50       0.2619
     50  O         49.4960  -32.5290  -16.1430 O.2    50  TYR50      -0.2715
     51  CB        48.4450  -30.1830  -17.8710 C.3    50  TYR50       0.0574
     52  CG        47.6930  -29.5830  -19.0180 C.ar   50  TYR50      -0.0198
     53  CD1       48.3770  -28.9820  -20.0710 C.ar   50  TYR50      -0.0009
     54  CD2       46.3010  -29.6210  -19.0690 C.ar   50  TYR50      -0.0009
     55  CE1       47.6990  -28.4200  -21.1470 C.ar   50  TYR50       0.0417
     56  CE2       45.6040  -29.0620  -20.1490 C.ar   50  TYR50       0.0417
     57  CZ        46.3140  -28.4650  -21.1870 C.ar   50  TYR50       0.1957
     58  OH        45.6580  -27.8910  -22.2680 O.3    50  TYR50      -0.2866
     59  N         51.3390  -31.7520  -17.1800 N.am   51  LYS51      -0.1963
     60  CA        52.2430  -32.2740  -16.1610 C.3    51  LYS51       0.1728
     61  C         51.9930  -31.6350  -14.8010 C.2    51  LYS51       0.2616
     62  O         52.2830  -32.2480  -13.7780 O.2    51  LYS51      -0.2715
     63  CB        53.7020  -32.0870  -16.5750 C.3    51  LYS51       0.0311
     64  CG        53.9910  -30.7830  -17.2800 C.3    51  LYS51       0.0038
     65  CD        55.4830  -30.5680  -17.3970 C.3    51  LYS51       0.0206
     66  CE        55.8110  -29.1230  -17.7010 C.3    51  LYS51       0.1093
     67  NZ        57.2540  -28.8260  -17.4280 N.3    51  LYS51      -0.1314
     68  N         51.4240  -30.4300  -14.7890 N.am   52  ASP52      -0.1957
     69  CA        51.2160  -29.6890  -13.5530 C.3    52  ASP52       0.1840
     70  C         49.7720  -29.6740  -13.0190 C.2    52  ASP52       0.2621
     71  O         49.4670  -28.9690  -12.0640 O.2    52  ASP52      -0.2715
     72  CB        51.7070  -28.2450  -13.7230 C.3    52  ASP52       0.1450
     73  CG        51.1390  -27.5580  -14.9630 C.2    52  ASP52       0.3671
     74  OD1       50.5620  -28.2350  -15.8530 O.co2  52  ASP52      -0.2456
     75  OD2       51.2940  -26.3190  -15.0570 O.co2  52  ASP52      -0.2456
     76  N         48.8810  -30.4540  -13.6000 N.am   53  VAL53      -0.1977
     77  CA        47.5140  -30.4750  -13.0990 C.3    53  VAL53       0.1596
     78  C         47.1650  -31.9060  -12.7350 C.2    53  VAL53       0.2287
     79  O         46.7350  -32.7010  -13.5780 O.2    53  VAL53      -0.2864
     80  CB        46.5170  -29.9030  -14.1320 C.3    53  VAL53       0.0276
     81  CG1       45.1190  -29.8210  -13.5410 C.3    53  VAL53       0.0022
     82  CG2       46.9760  -28.5290  -14.6010 C.3    53  VAL53       0.0022
     83  N         43.8870  -22.1660  -30.5470 N.3   123  ARG123     -0.1245
     84  CA        45.1680  -21.5200  -30.7970 C.3   123  ARG123      0.1563
     85  C         46.2700  -22.5170  -31.1610 C.2   123  ARG123      0.2260
     86  O         47.2730  -22.6130  -30.4550 O.2   123  ARG123     -0.2867
     87  CB        45.5910  -20.6900  -29.5720 C.3   123  ARG123      0.0307
     88  CG        44.5260  -19.7130  -29.0950 C.3   123  ARG123      0.0489
     89  CD        45.0770  -18.7080  -28.1230 C.3   123  ARG123      0.2205
     90  NE        44.0970  -17.6860  -27.7690 N.pl3 123  ARG123     -0.0865
     91  CZ        43.4460  -17.6440  -26.6110 C.cat 123  ARG123      0.5346
     92  NH1       43.6690  -18.5710  -25.6900 N.pl3 123  ARG123      0.1354
     93  NH2       42.5710  -16.6770  -26.3740 N.pl3 123  ARG123      0.1354
     94  N         46.5480  -25.6400  -30.7780 N.3   125  ARG125     -0.1245
     95  CA        46.7380  -26.8200  -29.9390 C.3   125  ARG125      0.1563
     96  C         45.4550  -27.6310  -29.7360 C.2   125  ARG125      0.2260
     97  O         44.3380  -27.0950  -29.7690 O.2   125  ARG125     -0.2867
     98  CB        47.3150  -26.4100  -28.5790 C.3   125  ARG125      0.0307
     99  CG        48.8400  -26.3130  -28.5430 C.3   125  ARG125      0.0489
    100  CD        49.3190  -24.8890  -28.2770 C.3   125  ARG125      0.2205
    101  NE        50.7790  -24.7830  -28.3290 N.pl3 125  ARG125     -0.0865
    102  CZ        51.4740  -23.7210  -27.9190 C.cat 125  ARG125      0.5346
    103  NH1       52.8000  -23.7170  -27.9990 N.pl3 125  ARG125      0.1354
    104  NH2       50.8430  -22.6560  -27.4380 N.pl3 125  ARG125      0.1354
    105  N         43.0270  -29.4030  -27.2800 N.3   127  LYS127     -0.1245
    106  CA        42.6960  -29.1420  -25.8730 C.3   127  LYS127      0.1561
    107  C         41.9490  -30.3050  -25.2470 C.2   127  LYS127      0.2260
    108  O         41.9500  -30.4780  -24.0280 O.2   127  LYS127     -0.2867
    109  CB        41.8730  -27.8640  -25.7390 C.3   127  LYS127      0.0271
    110  CG        42.5810  -26.6320  -26.2640 C.3   127  LYS127      0.0035
    111  CD        44.0680  -26.6610  -25.9190 C.3   127  LYS127      0.0206
    112  CE        44.3980  -25.6960  -24.8150 C.3   127  LYS127      0.1093
    113  NZ        44.1860  -24.3130  -25.3240 N.3   127  LYS127     -0.1314
    114  N         40.3940  -20.7910  -22.9770 N.3   185  ALA185     -0.1231
    115  CA        41.2560  -21.2200  -21.8850 C.3   185  ALA185      0.1694
    116  C         41.9700  -20.0300  -21.2690 C.2   185  ALA185      0.2592
    117  O         42.3800  -19.1160  -21.9740 O.2   185  ALA185     -0.2718
    118  CB        42.2620  -22.2410  -22.3690 C.3   185  ALA185      0.0304
    119  N         42.0970  -20.0580  -19.9430 N.am  186  HIS186     -0.1962
    120  CA        42.7440  -19.0090  -19.1480 C.3   186  HIS186      0.1787
    121  C         41.9860  -17.6750  -19.2160 C.2   186  HIS186      0.2620
    122  O         42.5110  -16.6470  -18.8020 O.2   186  HIS186     -0.2715
    123  CB        44.2040  -18.7910  -19.5810 C.3   186  HIS186      0.0785
    124  CG        44.9170  -20.0470  -19.9760 C.ar  186  HIS186      0.0821
    125  ND1       45.1810  -21.0680  -19.0870 N.ar  186  HIS186     -0.2267
    126  CD2       45.4120  -20.4540  -21.1710 C.ar  186  HIS186      0.1154
    127  CE1       45.8160  -22.0430  -19.7130 C.ar  186  HIS186      0.1986
    128  NE2       45.9660  -21.6980  -20.9800 N.ar  186  HIS186     -0.2212
    129  N         40.7490  -17.6930  -19.7090 N.am  187  GLY187     -0.1954
    130  CA        39.9520  -16.4770  -19.7920 C.3   187  GLY187      0.1869
    131  C         38.5400  -16.5520  -19.2300 C.2   187  GLY187      0.2309
    132  O         38.1550  -17.5250  -18.5980 O.2   187  GLY187     -0.2863
    133  N         37.1350  -29.2410  -18.5680 N.3   216  SER216     -0.1202
    134  CA        37.5310  -28.3210  -19.5860 C.3   216  SER216      0.2020
    135  C         38.7460  -29.0480  -20.0860 C.2   216  SER216      0.2619
    136  O         38.8210  -30.2020  -19.9250 O.2   216  SER216     -0.2717
    137  CB        37.9220  -26.9900  -18.9750 C.3   216  SER216      0.2103
    138  OG        38.5500  -27.1470  -17.7430 O.3   216  SER216     -0.2182
    139  N         39.6900  -28.3750  -20.7050 N.am  217  SER217     -0.1937
    140  CA        41.0040  -28.9480  -20.9440 C.3   217  SER217      0.2055
    141  C         41.8420  -29.5490  -19.8160 C.2   217  SER217      0.2643
    142  O         42.1240  -30.7520  -19.8300 O.2   217  SER217     -0.2714
    143  CB        41.8130  -27.9640  -21.7970 C.3   217  SER217      0.2130
    144  OG        42.9740  -28.5610  -22.3330 O.3   217  SER217     -0.2179
    145  N         42.2130  -28.7180  -18.8360 N.am  218  ALA218     -0.1963
    146  CA        42.8980  -29.1680  -17.6080 C.3   218  ALA218      0.1728
    147  C         41.9210  -29.5510  -16.5010 C.2   218  ALA218      0.2617
    148  O         42.2500  -30.3610  -15.6500 O.2   218  ALA218     -0.2715
    149  CB        43.8480  -28.0810  -17.0770 C.3   218  ALA218      0.0334
    150  N         40.7410  -28.9340  -16.4970 N.am  219  GLY219     -0.1940
    151  CA        39.7200  -29.2450  -15.5130 C.3   219  GLY219      0.2014
    152  C         39.8330  -28.5140  -14.1830 C.2   219  GLY219      0.2639
    153  O         39.4260  -29.0450  -13.1520 O.2   219  GLY219     -0.2714
    154  N         40.3980  -27.3080  -14.2010 N.am  220  ILE220     -0.1963
    155  CA        40.5810  -26.5160  -12.9870 C.3   220  ILE220      0.1727
    156  C         40.1950  -25.0490  -13.1810 C.2   220  ILE220      0.2617
    157  O         39.6480  -24.4360  -12.2720 O.2   220  ILE220     -0.2715
    158  CB        42.0570  -26.5930  -12.4600 C.3   220  ILE220      0.0290
    159  CG1       43.0580  -26.2530  -13.5670 C.3   220  ILE220      0.0022
    160  CG2       42.3640  -27.9800  -11.9440 C.3   220  ILE220      0.0023
    161  CD1       43.7010  -24.8880  -13.4260 C.3   220  ILE220      0.0001
    162  N         40.4610  -24.4970  -14.3670 N.am  221  GLY221     -0.1940
    163  CA        40.2910  -23.0670  -14.6130 C.3   221  GLY221      0.2014
    164  C         38.8450  -22.6720  -14.8070 C.2   221  GLY221      0.2638
    165  O         38.2170  -22.0520  -13.9460 O.2   221  GLY221     -0.2714
    166  N         38.2960  -23.0450  -15.9500 N.am  222  ARG222     -0.1977
    167  CA        36.9090  -22.7180  -16.2440 C.3   222  ARG222      0.1597
    168  C         35.9230  -23.5660  -15.4170 C.2   222  ARG222      0.2287
    169  O         34.8220  -23.1060  -15.1120 O.2   222  ARG222     -0.2864
    170  CB        36.6530  -22.8690  -17.7470 C.3   222  ARG222      0.0334
    171  CG        37.4680  -21.8770  -18.5470 C.3   222  ARG222      0.0492
    172  CD        37.6280  -22.2890  -20.0040 C.3   222  ARG222      0.2205
    173  NE        38.5560  -23.4070  -20.1430 N.pl3 222  ARG222     -0.0865
    174  CZ        39.0130  -23.8630  -21.3030 C.cat 222  ARG222      0.5346
    175  NH1       38.6210  -23.2940  -22.4190 N.pl3 222  ARG222      0.1354
    176  NH2       39.8500  -24.8900  -21.3410 N.pl3 222  ARG222      0.1354
    177  N         44.0820  -25.9140   -7.6210 N.3   257  MET257     -0.1245
    178  CA        44.2020  -24.8020   -8.5790 C.3   257  MET257      0.1570
    179  C         42.9000  -24.3290   -9.2170 C.2   257  MET257      0.2261
    180  O         42.9570  -23.4950  -10.1110 O.2   257  MET257     -0.2867
    181  CB        45.2000  -25.1500   -9.7040 C.3   257  MET257      0.0387
    182  CG        46.6720  -25.2180   -9.2550 C.3   257  MET257      0.0595
    183  SD        47.8120  -25.9210  -10.5030 S.3   257  MET257     -0.1393
    184  CE        47.0280  -27.5150  -10.7440 C.3   257  MET257      0.0692
    185  N         41.6870  -20.6010  -12.1350 N.3   260  GLN260     -0.1231
    186  CA        43.0750  -20.2520  -12.4170 C.3   260  GLN260      0.1698
    187  C         43.6170  -18.8210  -12.3640 C.2   260  GLN260      0.2593
    188  O         44.6410  -18.5770  -11.7530 O.2   260  GLN260     -0.2718
    189  CB        43.3610  -20.8540  -13.7910 C.3   260  GLN260      0.0381
    190  CG        44.8060  -20.7270  -14.2330 C.3   260  GLN260      0.0905
    191  CD        45.0290  -21.2210  -15.6570 C.2   260  GLN260      0.2608
    192  OE1       44.0980  -21.3020  -16.4700 O.2   260  GLN260     -0.2717
    193  NE2       46.2690  -21.5620  -15.9620 N.am  260  GLN260     -0.0878
    194  N         42.9410  -17.8760  -12.9930 N.am  261  THR261     -0.1939
    195  CA        43.5040  -16.5390  -13.1010 C.3   261  THR261      0.2028
    196  C         42.7610  -15.5660  -12.2090 C.2   261  THR261      0.2643
    197  O         41.6280  -15.8370  -11.8100 O.2   261  THR261     -0.2714
    198  CB        43.4700  -16.0230  -14.5750 C.3   261  THR261      0.1808
    199  OG1       42.1270  -15.6940  -14.9500 O.3   261  THR261     -0.2208
    200  CG2       44.0270  -17.0790  -15.5310 C.3   261  THR261      0.0379
    201  N         43.3910  -14.4340  -11.8950 N.am  262  SER262     -0.1935
    202  CA        42.7150  -13.3930  -11.1230 C.3   262  SER262      0.2055
    203  C         41.5520  -12.7920  -11.9200 C.2   262  SER262      0.2644
    204  O         40.5540  -12.3540  -11.3250 O.2   262  SER262     -0.2714
    205  CB        43.6970  -12.2970  -10.7030 C.3   262  SER262      0.2130
    206  OG        44.3270  -11.7080  -11.8240 O.3   262  SER262     -0.2179
    207  N         41.6700  -12.7940  -13.2580 N.am  263  SER263     -0.1935
    208  CA        40.5920  -12.3160  -14.1300 C.3   263  SER263      0.2055
    209  C         39.3540  -13.2040  -14.0510 C.2   263  SER263      0.2642
    210  O         38.2260  -12.7070  -13.9380 O.2   263  SER263     -0.2714
    211  CB        41.0670  -12.2130  -15.5700 C.3   263  SER263      0.2130
    212  OG        41.8090  -11.0190  -15.7330 O.3   263  SER263     -0.2179
    213  N         39.5650  -14.5140  -14.0810 N.am  264  GLN264     -0.1976
    214  CA        38.4830  -15.4540  -13.8120 C.3   264  GLN264      0.1601
    215  C         37.8360  -15.2190  -12.4270 C.2   264  GLN264      0.2287
    216  O         36.6140  -15.3150  -12.2890 O.2   264  GLN264     -0.2864
    217  CB        38.9890  -16.8970  -13.9060 C.3   264  GLN264      0.0394
    218  CG        39.4230  -17.3020  -15.2970 C.3   264  GLN264      0.0908
    219  CD        39.9770  -18.7180  -15.3490 C.2   264  GLN264      0.2608
    220  OE1       40.4770  -19.2380  -14.3530 O.2   264  GLN264     -0.2717
    221  NE2       39.8780  -19.3480  -16.5110 N.am  264  GLN264     -0.0878
@<TRIPOS>BOND
     1    85    84    1
     2    85    86    2
     3    84    83    1
     4    84    87    1
     5    94    95    1
     6    95    96    1
     7    95    98    1
     8    97    96    2
     9    87    88    1
    10    88    89    1
    11    98    99    1
    12    99   100    1
    13   101   100    1
    14   101   102    2
    15    89    90    1
    16   103   102    1
    17   102   104    1
    18    90    91    2
    19   105   106    1
    20    91    93    1
    21    91    92    1
    22   110   111    1
    23   110   109    1
    24   111   112    1
    25   106   109    1
    26   106   107    1
    27   113   112    1
    28   107   108    2
    29    45    44    1
    30    46    44    1
    31    44    43    2
    32   114   115    1
    33    43    42    1
    34   175   174    1
    35   118   115    1
    36   144   143    1
    37    58    57    1
    38   117   116    2
    39    42    41    1
    40   115   116    1
    41   143   140    1
    42    41    40    1
    43    27    25   ar
    44   176   174    1
    45   174   173    2
    46   116   119   am
    47    57    55   ar
    48    57    56   ar
    49   126   128   ar
    50   126   124   ar
    51    55    53   ar
    52   128   127   ar
    53   140   139    1
    54   140   141    1
    55    24    25    1
    56    24    21    1
    57    25    26   ar
    58    23    22    2
    59    39    38    2
    60   139   135   am
    61    40    37    1
    62    37    38    1
    63    37    36    1
    64    56    54   ar
    65   173   172    1
    66   135   136    2
    67   135   134    1
    68    53    52   ar
    69   172   171    1
    70   124   123    1
    71   124   125   ar
    72   119   120    1
    73    38    47   am
    74   142   141    2
    75   141   145   am
    76   130   129    1
    77   130   131    1
    78    22    21    1
    79   127   125   ar
    80   129   121   am
    81    21    20    1
    82   134   137    1
    83   134   133    1
    84   123   120    1
    85    31    30    2
    86   131   132    2
    87   121   120    1
    88   121   122    2
    89    36    30   am
    90    54    52   ar
    91    52    51    1
    92   137   138    1
    93   145   146    1
    94    30    29    1
    95    47    48    1
    96   171   170    1
    97    20    14   am
    98    48    51    1
    99    48    49    1
   100    28    29    1
   101   170   167    1
   102    66    67    1
   103    66    65    1
   104   146   149    1
   105   146   147    1
   106    29    32    1
   107    15    14    2
   108    65    64    1
   109    14    13    1
   110    64    63    1
   111    59    49   am
   112    59    60    1
   113    49    50    2
   114    63    60    1
   115   221   219   am
   116   147   150   am
   117   147   148    2
   118   150   151    1
   119   192   191    2
   120    32    33    1
   121   167   166    1
   122   167   168    1
   123    16    13    1
   124    16    17    1
   125    60    61    1
   126    13    12    1
   127   193   191   am
   128   166   164   am
   129    74    73   ar
   130   212   211    1
   131   191   190    1
   132   211   208    1
   133   200   198    1
   134   151   152    1
   135   168   169    2
   136   219   218    1
   137   219   220    2
   138   218   217    1
   139    33    34    2
   140    33    35   am
   141    75    73   ar
   142    73    72    1
   143   199   198    1
   144    17    18    1
   145    17    19    1
   146   164   163    1
   147   164   165    2
   148    61    68   am
   149    61    62    2
   150    68    69    1
   151   163   162    1
   152    82    80    1
   153   198   195    1
   154   162   156   am
   155   190   189    1
   156   154   152   am
   157   154   155    1
   158   152   153    2
   159    80    81    1
   160    80    77    1
   161   208   209    1
   162   208   207    1
   163   213   209   am
   164   213   214    1
   165   209   210    2
   166   217   214    1
   167   214   215    1
   168   189   186    1
   169    72    69    1
   170    76    77    1
   171    76    70   am
   172    79    78    2
   173   159   161    1
   174   159   158    1
   175    69    70    1
   176   207   203   am
   177   156   155    1
   178   156   157    2
   179   195   194    1
   180   195   196    1
   181    77    78    1
   182    70    71    2
   183   194   187   am
   184   155   158    1
   185   158   160    1
   186   215   216    2
   187   186   187    1
   188   186   185    1
   189   187   188    2
   190   196   201   am
   191   196   197    2
   192   203   204    2
   193   203   202    1
   194   201   202    1
   195   206   205    1
   196   202   205    1
   197   184   183    1
   198    11     9    1
   199   183   182    1
   200   180   179    2
   201   181   182    1
   202   181   178    1
   203     9    10    1
   204     9     8    2
   205   179   178    1
   206     8     7    1
   207   178   177    1
   208     7     6    1
   209     6     5    1
   210     5     2    1
   211     4     3    2
   212     2     3    1
   213     2     1    1
