@<TRIPOS>MOLECULE
tmp/4quoA00.pdb
 195 184 0 0 0
SMALL
GASTEIGER

@<TRIPOS>ATOM
      1  N        -46.5750   -2.5700  -28.1000 N.3   112  GLN112     -0.1245
      2  CA       -46.4940   -3.6080  -27.0930 C.3   112  GLN112      0.1566
      3  C        -47.7680   -3.5490  -26.2680 C.2   112  GLN112      0.2260
      4  O        -47.9700   -2.5950  -25.5580 O.2   112  GLN112     -0.2867
      5  CB       -45.2930   -3.5100  -26.2110 C.3   112  GLN112      0.0367
      6  CG       -45.3080   -4.4800  -25.0250 C.3   112  GLN112      0.0905
      7  CD       -45.4450   -5.9630  -25.4050 C.2   112  GLN112      0.2608
      8  OE1      -46.0550   -6.7710  -24.6130 O.2   112  GLN112     -0.2717
      9  NE2      -45.0190   -6.3110  -26.5120 N.am  112  GLN112     -0.0878
     10  N        -49.0910   -6.4650  -24.2160 N.3   114  GLU114     -0.1245
     11  CA       -49.2250   -7.3150  -23.0160 C.3   114  GLU114      0.1567
     12  C        -48.5790   -6.6940  -21.8290 C.2   114  GLU114      0.2260
     13  O        -47.4060   -6.2570  -21.9400 O.2   114  GLU114     -0.2867
     14  CB       -48.6920   -8.7180  -23.2240 C.3   114  GLU114      0.0388
     15  CG       -48.9120   -9.6410  -22.0860 C.3   114  GLU114      0.1160
     16  CD       -48.3140  -11.0080  -22.1980 C.2   114  GLU114      0.3649
     17  OE1      -47.7390  -11.3470  -23.2420 O.co2 114  GLU114     -0.2457
     18  OE2      -48.4620  -11.7930  -21.2430 O.co2 114  GLU114     -0.2457
     19  N        -37.1560   -2.2810  -26.4340 N.3   247  PHE247     -0.1227
     20  CA       -38.1690   -3.3020  -26.0450 C.3   247  PHE247      0.1736
     21  C        -37.9290   -3.6790  -24.6010 C.2   247  PHE247      0.2595
     22  O        -36.7920   -3.9730  -24.2090 O.2   247  PHE247     -0.2718
     23  CB       -38.1160   -4.5230  -26.9650 C.3   247  PHE247      0.0547
     24  CG       -39.4200   -5.2810  -27.0850 C.ar  247  PHE247     -0.0202
     25  CD1      -40.5090   -4.6930  -27.6460 C.ar  247  PHE247     -0.0042
     26  CD2      -39.5060   -6.5800  -26.6660 C.ar  247  PHE247     -0.0042
     27  CE1      -41.7430   -5.3930  -27.7440 C.ar  247  PHE247     -0.0003
     28  CE2      -40.6720   -7.2990  -26.8290 C.ar  247  PHE247     -0.0003
     29  CZ       -41.7800   -6.6740  -27.3620 C.ar  247  PHE247     -0.0000
     30  N        -38.9940   -3.7140  -23.8160 N.am  248  ASN248     -0.1974
     31  CA       -38.8420   -4.0250  -22.3840 C.3   248  ASN248      0.1688
     32  C        -38.6010   -5.4490  -21.9960 C.2   248  ASN248      0.2292
     33  O        -38.1130   -5.6910  -20.8970 O.2   248  ASN248     -0.2864
     34  CB       -40.0920   -3.5930  -21.6410 C.3   248  ASN248      0.1181
     35  CG       -40.2420   -2.0770  -21.5690 C.2   248  ASN248      0.2629
     36  OD1      -39.2520   -1.3810  -21.5450 O.2   248  ASN248     -0.2716
     37  ND2      -41.4980   -1.5790  -21.5170 N.am  248  ASN248     -0.0877
     38  N        -38.0250   -9.8030  -23.8240 N.3   249  GLY249     -0.1210
     39  CA       -37.2600  -10.3790  -24.8930 C.3   249  GLY249      0.1956
     40  C        -37.9430  -10.4780  -26.2270 C.2   249  GLY249      0.2611
     41  O        -37.3410  -10.3660  -27.2870 O.2   249  GLY249     -0.2717
     42  N        -39.2470  -10.7220  -26.1910 N.am  250  ALA250     -0.1979
     43  CA       -40.0840  -10.9790  -27.3680 C.3   250  ALA250      0.1597
     44  C        -41.5420  -11.0390  -26.9650 C.2   250  ALA250      0.2287
     45  O        -41.9100  -11.0610  -25.7630 O.2   250  ALA250     -0.2864
     46  CB       -39.6290  -12.2500  -28.0760 C.3   250  ALA250      0.0319
     47  N        -45.5250  -12.6640  -28.4400 N.3   251  GLU251     -0.1245
     48  CA       -46.2050  -13.6630  -29.2870 C.3   251  GLU251      0.1567
     49  C        -47.4230  -13.1610  -30.0070 C.2   251  GLU251      0.2260
     50  O        -48.3490  -13.9640  -30.2700 O.2   251  GLU251     -0.2867
     51  CB       -46.5560  -14.9030  -28.4390 C.3   251  GLU251      0.0388
     52  CG       -47.6750  -14.6700  -27.3750 C.3   251  GLU251      0.1160
     53  CD       -47.2210  -14.3340  -25.9870 C.2   251  GLU251      0.3649
     54  OE1      -46.0890  -13.7710  -25.8340 O.co2 251  GLU251     -0.2457
     55  OE2      -48.0660  -14.5320  -25.0640 O.co2 251  GLU251     -0.2457
     56  N        -32.7130  -11.1900  -29.2820 N.3   262  PHE262     -0.1241
     57  CA       -33.2030  -12.5260  -29.4800 C.3   262  PHE262      0.1605
     58  C        -33.5530  -12.8350  -30.9150 C.2   262  PHE262      0.2264
     59  O        -34.2500  -13.8600  -31.1980 O.2   262  PHE262     -0.2867
     60  CB       -34.3780  -12.8510  -28.5310 C.3   262  PHE262      0.0534
     61  CG       -33.9690  -12.8300  -27.1310 C.ar  262  PHE262     -0.0203
     62  CD1      -33.0480  -13.7820  -26.6610 C.ar  262  PHE262     -0.0042
     63  CD2      -34.3650  -11.8500  -26.2850 C.ar  262  PHE262     -0.0042
     64  CE1      -32.5460  -13.7160  -25.3900 C.ar  262  PHE262     -0.0003
     65  CE2      -33.9040  -11.8320  -24.9790 C.ar  262  PHE262     -0.0003
     66  CZ       -32.9740  -12.7690  -24.5230 C.ar  262  PHE262     -0.0000
     67  N        -29.8400  -18.6170  -27.2020 N.3   277  GLY277     -0.1225
     68  CA       -30.9340  -17.8040  -26.7830 C.3   277  GLY277      0.1811
     69  C        -31.9280  -17.5040  -27.8870 C.2   277  GLY277      0.2280
     70  O        -33.1660  -17.4830  -27.6540 O.2   277  GLY277     -0.2866
     71  N        -33.9820  -20.5620  -28.3800 N.3   280  SER280     -0.1202
     72  CA       -34.9800  -20.6790  -27.2960 C.3   280  SER280      0.2020
     73  C        -36.1450  -19.7360  -27.4460 C.2   280  SER280      0.2618
     74  O        -37.3200  -20.1800  -27.3150 O.2   280  SER280     -0.2717
     75  CB       -34.3770  -20.4580  -25.9090 C.3   280  SER280      0.2103
     76  OG       -33.4340  -21.4180  -25.6630 O.3   280  SER280     -0.2182
     77  N        -35.8800  -18.4820  -27.7190 N.am  281  VAL281     -0.1979
     78  CA       -36.9030  -17.4300  -27.7110 C.3   281  VAL281      0.1595
     79  C        -37.7440  -17.4930  -28.9810 C.2   281  VAL281      0.2287
     80  O        -38.9970  -17.3490  -28.9380 O.2   281  VAL281     -0.2864
     81  CB       -36.2820  -16.0380  -27.4490 C.3   281  VAL281      0.0276
     82  CG1      -37.3720  -14.9830  -27.5630 C.3   281  VAL281      0.0022
     83  CG2      -35.6230  -16.0930  -26.0740 C.3   281  VAL281      0.0022
     84  N        -39.9540  -20.3230  -28.1780 N.3   284  HIS284     -0.1226
     85  CA       -40.9250  -19.8280  -27.1990 C.3   284  HIS284      0.1752
     86  C        -42.0740  -19.0840  -27.8280 C.2   284  HIS284      0.2595
     87  O        -43.2700  -19.4120  -27.6050 O.2   284  HIS284     -0.2718
     88  CB       -40.2170  -18.9890  -26.1540 C.3   284  HIS284      0.0759
     89  CG       -41.0940  -18.5320  -25.0110 C.ar  284  HIS284      0.0818
     90  ND1      -41.0540  -19.1780  -23.8110 N.ar  284  HIS284     -0.2268
     91  CD2      -41.9680  -17.5170  -24.8730 C.ar  284  HIS284      0.1154
     92  CE1      -41.9090  -18.6020  -22.9850 C.ar  284  HIS284      0.1986
     93  NE2      -42.4260  -17.5520  -23.5960 N.ar  284  HIS284     -0.2212
     94  N        -41.7960  -18.0620  -28.6360 N.am  285  GLU285     -0.1979
     95  CA       -42.8640  -17.2150  -29.1680 C.3   285  GLU285      0.1602
     96  C        -43.7350  -18.0270  -30.1540 C.2   285  GLU285      0.2287
     97  O        -44.9720  -17.8910  -30.1480 O.2   285  GLU285     -0.2864
     98  CB       -42.3170  -15.9670  -29.8340 C.3   285  GLU285      0.0415
     99  CG       -41.4910  -15.0850  -28.9070 C.3   285  GLU285      0.1163
    100  CD       -42.0870  -14.8280  -27.5660 C.2   285  GLU285      0.3649
    101  OE1      -43.2970  -14.6590  -27.3690 O.co2 285  GLU285     -0.2457
    102  OE2      -41.3050  -14.7270  -26.6680 O.co2 285  GLU285     -0.2457
    103  N        -46.1570  -20.2870  -28.2410 N.3   288  HIS288     -0.1241
    104  CA       -47.2960  -19.5650  -27.7220 C.3   288  HIS288      0.1621
    105  C        -48.4540  -19.5790  -28.6960 C.2   288  HIS288      0.2264
    106  O        -49.6050  -19.3500  -28.2900 O.2   288  HIS288     -0.2867
    107  CB       -46.9360  -18.0890  -27.4530 C.3   288  HIS288      0.0745
    108  CG       -46.4650  -17.7820  -26.0760 C.ar  288  HIS288      0.0817
    109  ND1      -47.0810  -18.2610  -24.9390 N.ar  288  HIS288     -0.2268
    110  CD2      -45.4430  -17.0070  -25.6560 C.ar  288  HIS288      0.1154
    111  CE1      -46.4810  -17.7840  -23.8790 C.ar  288  HIS288      0.1986
    112  NE2      -45.5230  -16.9620  -24.2830 N.ar  288  HIS288     -0.2212
    113  N        -50.0460  -19.8780  -19.5090 N.3   306  LYS306     -0.1231
    114  CA       -49.2970  -19.7390  -20.7540 C.3   306  LYS306      0.1693
    115  C        -47.7990  -19.7210  -20.6080 C.2   306  LYS306      0.2591
    116  O        -47.0150  -20.3990  -21.4000 O.2   306  LYS306     -0.2718
    117  CB       -49.8140  -18.6910  -21.6680 C.3   306  LYS306      0.0285
    118  CG       -49.4520  -17.2740  -21.2710 C.3   306  LYS306      0.0035
    119  CD       -50.0770  -16.2870  -22.2350 C.3   306  LYS306      0.0206
    120  CE       -49.9140  -14.8390  -21.8880 C.3   306  LYS306      0.1093
    121  NZ       -48.5550  -14.3020  -22.2160 N.3   306  LYS306     -0.1314
    122  N        -47.3070  -19.0520  -19.5820 N.am  307  GLU307     -0.1979
    123  CA       -45.8030  -18.8830  -19.5220 C.3   307  GLU307      0.1602
    124  C        -45.0570  -20.1130  -18.9710 C.2   307  GLU307      0.2287
    125  O        -44.0470  -20.4840  -19.5500 O.2   307  GLU307     -0.2864
    126  CB       -45.3250  -17.5900  -18.8190 C.3   307  GLU307      0.0415
    127  CG       -45.8830  -16.3090  -19.4930 C.3   307  GLU307      0.1163
    128  CD       -45.4430  -16.1530  -20.9370 C.2   307  GLU307      0.3649
    129  OE1      -44.5430  -16.8830  -21.3560 O.co2 307  GLU307     -0.2457
    130  OE2      -45.9980  -15.3570  -21.6770 O.co2 307  GLU307     -0.2457
    131  N        -42.5630  -21.9890  -21.4520 N.3   311  VAL311     -0.1245
    132  CA       -41.1900  -22.1710  -21.0600 C.3   311  VAL311      0.1561
    133  C        -40.8730  -23.6570  -21.0820 C.2   311  VAL311      0.2260
    134  O        -39.8350  -24.0670  -21.6250 O.2   311  VAL311     -0.2867
    135  CB       -40.8670  -21.5490  -19.6900 C.3   311  VAL311      0.0252
    136  CG1      -39.5190  -22.0190  -19.1790 C.3   311  VAL311      0.0019
    137  CG2      -40.9320  -20.0340  -19.7590 C.3   311  VAL311      0.0019
    138  N        -40.3060  -24.5430  -24.6700 N.3   314  ASP314     -0.1239
    139  CA       -39.0490  -24.1060  -25.2080 C.3   314  ASP314      0.1674
    140  C        -37.8880  -24.9180  -24.7160 C.2   314  ASP314      0.2266
    141  O        -36.9400  -25.1190  -25.4310 O.2   314  ASP314     -0.2867
    142  CB       -38.8960  -22.5550  -25.1620 C.3   314  ASP314      0.1410
    143  CG       -38.3650  -21.9560  -23.8570 C.2   314  ASP314      0.3668
    144  OD1      -37.2420  -22.3260  -23.4040 O.co2 314  ASP314     -0.2456
    145  OD2      -39.0200  -20.9240  -23.3580 O.co2 314  ASP314     -0.2456
    146  N        -47.4980   -5.8920  -14.2840 N.3   359  ASN359     -0.1240
    147  CA       -46.1710   -6.0110  -14.8390 C.3   359  ASN359      0.1653
    148  C        -45.1110   -6.4370  -13.8650 C.2   359  ASN359      0.2266
    149  O        -44.0280   -6.8460  -14.2940 O.2   359  ASN359     -0.2867
    150  CB       -45.7830   -4.6860  -15.4630 C.3   359  ASN359      0.1155
    151  CG       -46.3900   -4.5760  -16.8220 C.2   359  ASN359      0.2627
    152  OD1      -47.2220   -3.7720  -17.0670 O.2   359  ASN359     -0.2716
    153  ND2      -45.9650   -5.4630  -17.7120 N.am  359  ASN359     -0.0877
    154  N        -44.2300  -10.7110  -14.0780 N.3   362  TYR362     -0.1241
    155  CA       -43.5470  -11.4510  -15.1140 C.3   362  TYR362      0.1605
    156  C        -42.2440  -11.9260  -14.5470 C.2   362  TYR362      0.2264
    157  O        -41.1620  -11.4620  -14.9050 O.2   362  TYR362     -0.2867
    158  CB       -43.4110  -10.5090  -16.3410 C.3   362  TYR362      0.0534
    159  CG       -44.7350  -10.4060  -17.0910 C.ar  362  TYR362     -0.0201
    160  CD1      -45.8210   -9.7130  -16.5780 C.ar  362  TYR362     -0.0009
    161  CD2      -44.9640  -11.1640  -18.2250 C.ar  362  TYR362     -0.0009
    162  CE1      -47.0180   -9.6340  -17.1840 C.ar  362  TYR362      0.0417
    163  CE2      -46.2130  -11.1450  -18.8950 C.ar  362  TYR362      0.0417
    164  CZ       -47.2600  -10.3880  -18.3850 C.ar  362  TYR362      0.1957
    165  OH       -48.5100  -10.3370  -18.9360 O.3   362  TYR362     -0.2866
    166  N        -42.5240  -17.9530  -14.5550 N.3   366  TYR366     -0.1227
    167  CA       -41.9530  -18.5810  -15.7080 C.3   366  TYR366      0.1736
    168  C        -41.2010  -19.8880  -15.3830 C.2   366  TYR366      0.2595
    169  O        -41.4990  -20.9460  -15.8980 O.2   366  TYR366     -0.2718
    170  CB       -40.9910  -17.6070  -16.3370 C.3   366  TYR366      0.0548
    171  CG       -41.6420  -16.5690  -17.2350 C.ar  366  TYR366     -0.0200
    172  CD1      -42.4760  -15.5950  -16.7140 C.ar  366  TYR366     -0.0009
    173  CD2      -41.4690  -16.6040  -18.5980 C.ar  366  TYR366     -0.0009
    174  CE1      -43.0760  -14.6320  -17.5400 C.ar  366  TYR366      0.0417
    175  CE2      -42.0520  -15.6860  -19.4210 C.ar  366  TYR366      0.0417
    176  CZ       -42.8380  -14.6860  -18.9140 C.ar  366  TYR366      0.1957
    177  OH       -43.4160  -13.7420  -19.7340 O.3   366  TYR366     -0.2866
    178  N        -40.1620  -19.7940  -14.5780 N.am  367  GLU367     -0.1979
    179  CA       -39.1990  -20.8710  -14.4110 C.3   367  GLU367      0.1602
    180  C        -39.7180  -21.8660  -13.3810 C.2   367  GLU367      0.2287
    181  O        -39.7320  -23.0470  -13.6550 O.2   367  GLU367     -0.2864
    182  CB       -37.8080  -20.3770  -14.0150 C.3   367  GLU367      0.0415
    183  CG       -37.2250  -19.4010  -14.9900 C.3   367  GLU367      0.1163
    184  CD       -37.1180  -19.9280  -16.3650 C.2   367  GLU367      0.3649
    185  OE1      -36.7930  -21.1250  -16.4970 O.co2 367  GLU367     -0.2457
    186  OE2      -37.3590  -19.1140  -17.3170 O.co2 367  GLU367     -0.2457
    187  N        -41.3990    0.0350  -15.7660 N.3   798  GLN798     -0.1245
    188  CA       -41.1000   -1.4110  -15.8290 C.3   798  GLN798      0.1566
    189  C        -39.6600   -1.7370  -15.5810 C.2   798  GLN798      0.2260
    190  O        -39.3320   -2.6560  -14.8230 O.2   798  GLN798     -0.2867
    191  CB       -41.5050   -2.0400  -17.1470 C.3   798  GLN798      0.0367
    192  CG       -42.9570   -2.2480  -17.2100 C.3   798  GLN798      0.0905
    193  CD       -43.2990   -2.8270  -18.5680 C.2   798  GLN798      0.2608
    194  OE1      -42.8880   -3.9070  -18.9130 O.2   798  GLN798     -0.2717
    195  NE2      -43.9220   -2.0510  -19.3410 N.am  798  GLN798     -0.0878
@<TRIPOS>BOND
     1    59    58    2
     2    58    57    1
     3    50    49    2
     4    96    97    2
     5    96    95    1
     6    49    48    1
     7    98    95    1
     8    98    99    1
     9    57    56    1
    10    57    60    1
    11    48    47    1
    12    48    51    1
    13    95    94    1
    14    79    80    2
    15    79    78    1
    16    99   100    1
    17   105   106    2
    18   105   104    1
    19    94    86   am
    20    60    61    1
    21    51    52    1
    22    71    72    1
    23   103   104    1
    24    84    85    1
    25     1     2    1
    26    46    43    1
    27    69    70    2
    28    69    68    1
    29    86    87    2
    30    86    85    1
    31    27    25   ar
    32    27    29   ar
    33   104   107    1
    34    77    78    1
    35    77    73   am
    36    78    81    1
    37    25    24   ar
    38   100   101   ar
    39   100   102   ar
    40    82    81    1
    41   107   108    1
    42    81    83    1
    43    73    74    2
    44    73    72    1
    45    52    53    1
    46    43    44    1
    47    43    42    1
    48    29    28   ar
    49    72    75    1
    50    41    40    2
    51    67    68    1
    52    85    88    1
    53    61    62   ar
    54    61    63   ar
    55     2     3    1
    56     2     5    1
    57    24    23    1
    58    24    26   ar
    59    23    20    1
    60    44    45    2
    61    28    26   ar
    62    62    64   ar
    63     9     7   am
    64    19    20    1
    65    63    65   ar
    66     3     4    2
    67    40    42   am
    68    40    39    1
    69     5     6    1
    70    88    89    1
    71   108   110   ar
    72   108   109   ar
    73    20    21    1
    74    53    54   ar
    75    53    55   ar
    76    75    76    1
    77   110   112   ar
    78   141   140    2
    79     7     6    1
    80     7     8    2
    81    64    66   ar
    82   139   142    1
    83   139   140    1
    84   139   138    1
    85   142   143    1
    86    89    91   ar
    87    89    90   ar
    88    65    66   ar
    89   109   111   ar
    90    39    38    1
    91    91    93   ar
    92    21    22    2
    93    21    30   am
    94   112   111   ar
    95    10    11    1
    96   143   144   ar
    97   143   145   ar
    98    30    31    1
    99    90    92   ar
   100    93    92   ar
   101    17    16   ar
   102    14    11    1
   103    14    15    1
   104    11    12    1
   105    31    32    1
   106    31    34    1
   107   119   120    1
   108   119   118    1
   109   121   120    1
   110    16    15    1
   111    16    18   ar
   112    32    33    2
   113    13    12    2
   114   130   128   ar
   115   117   118    1
   116   117   114    1
   117    34    35    1
   118   134   133    2
   119    35    36    2
   120    35    37   am
   121   131   132    1
   122   116   115    2
   123   129   128   ar
   124   133   132    1
   125   132   135    1
   126   128   127    1
   127   114   115    1
   128   114   113    1
   129   115   122   am
   130   137   135    1
   131   177   176    1
   132   135   136    1
   133   122   123    1
   134   125   124    2
   135   123   124    1
   136   123   126    1
   137   127   126    1
   138   175   176   ar
   139   175   173   ar
   140   195   193   am
   141   165   164    1
   142   176   174   ar
   143   194   193    2
   144   163   164   ar
   145   163   161   ar
   146   173   171   ar
   147   193   192    1
   148   164   162   ar
   149   161   159   ar
   150   153   151   am
   151   174   172   ar
   152   186   184   ar
   153   171   172   ar
   154   171   170    1
   155   192   191    1
   156   162   160   ar
   157   191   188    1
   158   159   160   ar
   159   159   158    1
   160   152   151    2
   161   151   150    1
   162   185   184   ar
   163   184   183    1
   164   158   155    1
   165   170   167    1
   166   169   168    2
   167   188   187    1
   168   188   189    1
   169   167   168    1
   170   167   166    1
   171   189   190    2
   172   150   147    1
   173   168   178   am
   174   155   156    1
   175   155   154    1
   176   183   182    1
   177   157   156    2
   178   147   146    1
   179   147   148    1
   180   178   179    1
   181   179   182    1
   182   179   180    1
   183   149   148    2
   184   181   180    2
