@<TRIPOS>MOLECULE
tmp/4quoA01.pdb
 139 133 0 0 0
SMALL
GASTEIGER

@<TRIPOS>ATOM
      1  N        -62.8690  -10.4160  -32.8860 N.3   132  LYS132     -0.1245
      2  CA       -62.2660  -10.4890  -34.1950 C.3   132  LYS132      0.1561
      3  C        -61.8940   -9.1070  -34.7430 C.2   132  LYS132      0.2260
      4  O        -62.7090   -8.2370  -34.9700 O.2   132  LYS132     -0.2867
      5  CB       -63.1150  -11.3340  -35.1300 C.3   132  LYS132      0.0271
      6  CG       -63.2260  -12.7570  -34.5810 C.3   132  LYS132      0.0035
      7  CD       -63.8040  -13.7100  -35.6090 C.3   132  LYS132      0.0206
      8  CE       -63.8320  -15.1450  -35.2660 C.3   132  LYS132      0.1093
      9  NZ       -65.1470  -15.6740  -35.9370 N.3   132  LYS132     -0.1314
     10  N        -54.2110  -11.7020  -41.9060 N.3   152  ASN152     -0.1240
     11  CA       -54.1060  -11.7390  -43.3360 C.3   152  ASN152      0.1653
     12  C        -54.2830  -10.3550  -43.9420 C.2   152  ASN152      0.2266
     13  O        -55.2460   -9.6060  -43.6170 O.2   152  ASN152     -0.2867
     14  CB       -55.2650  -12.6230  -43.8040 C.3   152  ASN152      0.1155
     15  CG       -55.1070  -14.0640  -43.3990 C.2   152  ASN152      0.2627
     16  OD1      -54.0390  -14.6670  -43.5330 O.2   152  ASN152     -0.2716
     17  ND2      -56.2170  -14.6410  -42.9080 N.am  152  ASN152     -0.0877
     18  N        -58.5980  -13.5550  -38.4460 N.3   171  PRO171     -0.2102
     19  CA       -59.9120  -14.1870  -38.3400 C.3   171  PRO171      0.1504
     20  C        -60.1310  -14.9230  -37.0340 C.2   171  PRO171      0.2576
     21  O        -61.3130  -15.2520  -36.6930 O.2   171  PRO171     -0.2718
     22  CB       -59.8710  -15.2560  -39.4450 C.3   171  PRO171      0.0282
     23  CG       -58.4490  -15.4790  -39.7690 C.3   171  PRO171      0.0208
     24  CD       -57.7760  -14.1570  -39.4800 C.3   171  PRO171      0.0893
     25  N        -59.0710  -15.2090  -36.2860 N.am  172  PHE172     -0.1963
     26  CA       -59.1720  -15.8840  -34.9740 C.3   172  PHE172      0.1771
     27  C        -59.5420  -14.8460  -33.8820 C.2   172  PHE172      0.2620
     28  O        -58.8060  -13.8950  -33.7060 O.2   172  PHE172     -0.2715
     29  CB       -57.8090  -16.5110  -34.6320 C.3   172  PHE172      0.0574
     30  CG       -57.4020  -17.6870  -35.5060 C.ar  172  PHE172     -0.0200
     31  CD1      -57.9020  -18.9550  -35.2560 C.ar  172  PHE172     -0.0042
     32  CD2      -56.4540  -17.5350  -36.5290 C.ar  172  PHE172     -0.0042
     33  CE1      -57.5120  -20.0090  -36.0360 C.ar  172  PHE172     -0.0003
     34  CE2      -56.0380  -18.5770  -37.2870 C.ar  172  PHE172     -0.0003
     35  CZ       -56.6150  -19.8350  -37.0540 C.ar  172  PHE172     -0.0000
     36  N        -60.6490  -15.0020  -33.1640 N.am  173  SER173     -0.1950
     37  CA       -60.9890  -13.9710  -32.1310 C.3   173  SER173      0.1924
     38  C        -59.9320  -14.0610  -31.0060 C.2   173  SER173      0.2314
     39  O        -59.4370  -15.1550  -30.6230 O.2   173  SER173     -0.2863
     40  CB       -62.4890  -14.0180  -31.6720 C.3   173  SER173      0.2116
     41  OG       -63.3970  -13.6900  -32.7360 O.3   173  SER173     -0.2180
     42  N        -46.5630  -27.0920  -43.7540 N.3   195  THR195     -0.1218
     43  CA       -47.0920  -27.8070  -42.6200 C.3   195  THR195      0.1862
     44  C        -47.3180  -29.2960  -43.0360 C.2   195  THR195      0.2287
     45  O        -47.2970  -29.6300  -44.2690 O.2   195  THR195     -0.2866
     46  CB       -48.4160  -27.2760  -42.1810 C.3   195  THR195      0.1770
     47  OG1      -49.4110  -27.5370  -43.1970 O.3   195  THR195     -0.2211
     48  CG2      -48.3520  -25.7620  -41.9610 C.3   195  THR195      0.0375
     49  N        -49.8550  -30.9470  -43.1190 N.3   196  SER196     -0.1217
     50  CA       -51.0400  -31.1200  -43.9890 C.3   196  SER196      0.1889
     51  C        -50.8410  -30.5930  -45.4080 C.2   196  SER196      0.2288
     52  O        -51.7780  -30.6240  -46.2250 O.2   196  SER196     -0.2866
     53  CB       -52.3150  -30.5210  -43.3830 C.3   196  SER196      0.2089
     54  OG       -52.2960  -29.0980  -43.2550 O.3   196  SER196     -0.2183
     55  N        -49.7160  -27.3130  -46.3150 N.3   198  ARG198     -0.1231
     56  CA       -49.9530  -25.9220  -46.6080 C.3   198  ARG198      0.1694
     57  C        -48.7130  -25.1060  -46.3660 C.2   198  ARG198      0.2592
     58  O        -48.0820  -25.2270  -45.3420 O.2   198  ARG198     -0.2718
     59  CB       -51.0590  -25.3520  -45.7420 C.3   198  ARG198      0.0321
     60  CG       -52.4650  -25.7710  -46.1850 C.3   198  ARG198      0.0489
     61  CD       -52.7700  -25.2410  -47.6040 C.3   198  ARG198      0.2205
     62  NE       -52.9700  -23.7810  -47.7880 N.pl3 198  ARG198     -0.0865
     63  CZ       -54.1610  -23.1740  -47.6780 C.cat 198  ARG198      0.5346
     64  NH1      -55.2590  -23.9000  -47.4140 N.pl3 198  ARG198      0.1354
     65  NH2      -54.2920  -21.8600  -47.8480 N.pl3 198  ARG198      0.1354
     66  N        -48.3290  -24.3230  -47.3590 N.am  199  ASN199     -0.1960
     67  CA       -47.1970  -23.4300  -47.2050 C.3   199  ASN199      0.1819
     68  C        -47.5670  -22.2920  -46.2360 C.2   199  ASN199      0.2621
     69  O        -48.6330  -21.7390  -46.2900 O.2   199  ASN199     -0.2715
     70  CB       -46.7950  -22.7420  -48.5370 C.3   199  ASN199      0.1195
     71  CG       -46.0270  -23.6360  -49.5250 C.2   199  ASN199      0.2630
     72  OD1      -45.9270  -23.2280  -50.7370 O.2   199  ASN199     -0.2716
     73  ND2      -45.4870  -24.7160  -49.1190 N.am  199  ASN199     -0.0877
     74  N        -46.5770  -21.9120  -45.4760 N.am  200  VAL200     -0.1977
     75  CA       -46.6110  -20.7320  -44.5810 C.3   200  VAL200      0.1596
     76  C        -45.4670  -19.7890  -44.9710 C.2   200  VAL200      0.2287
     77  O        -44.2770  -20.1410  -44.8700 O.2   200  VAL200     -0.2864
     78  CB       -46.4250  -21.1180  -43.1150 C.3   200  VAL200      0.0276
     79  CG1      -46.5300  -19.8540  -42.2610 C.3   200  VAL200      0.0022
     80  CG2      -47.4710  -22.1320  -42.6720 C.3   200  VAL200      0.0022
     81  N        -49.3390  -24.9270  -37.4380 N.3   235  TYR235     -0.1227
     82  CA       -49.6770  -23.5180  -37.5890 C.3   235  TYR235      0.1736
     83  C        -51.0120  -23.3480  -38.3390 C.2   235  TYR235      0.2595
     84  O        -51.3900  -24.2530  -39.0700 O.2   235  TYR235     -0.2718
     85  CB       -48.4810  -22.8100  -38.2140 C.3   235  TYR235      0.0548
     86  CG       -48.6040  -21.2980  -38.1800 C.ar  235  TYR235     -0.0200
     87  CD1      -48.7140  -20.5950  -36.9750 C.ar  235  TYR235     -0.0009
     88  CD2      -48.6510  -20.5770  -39.3460 C.ar  235  TYR235     -0.0009
     89  CE1      -48.8910  -19.2110  -36.9600 C.ar  235  TYR235      0.0417
     90  CE2      -48.7690  -19.2010  -39.3290 C.ar  235  TYR235      0.0417
     91  CZ       -48.8890  -18.5000  -38.1270 C.ar  235  TYR235      0.1957
     92  OH       -49.0520  -17.1110  -38.1200 O.3   235  TYR235     -0.2866
     93  N        -51.6420  -22.1920  -38.1870 N.am  236  ASP236     -0.1960
     94  CA       -53.0060  -21.9610  -38.5730 C.3   236  ASP236      0.1840
     95  C        -53.2810  -20.7820  -39.4720 C.2   236  ASP236      0.2622
     96  O        -54.4380  -20.4350  -39.7030 O.2   236  ASP236     -0.2715
     97  CB       -53.8590  -21.9620  -37.2850 C.3   236  ASP236      0.1450
     98  CG       -53.4470  -20.8680  -36.2830 C.2   236  ASP236      0.3671
     99  OD1      -52.2950  -20.3670  -36.3190 O.co2 236  ASP236     -0.2456
    100  OD2      -54.2840  -20.5500  -35.3850 O.co2 236  ASP236     -0.2456
    101  N        -52.2250  -20.1840  -40.0210 N.am  237  LEU237     -0.1963
    102  CA       -52.3490  -19.0770  -40.9690 C.3   237  LEU237      0.1728
    103  C        -51.3120  -19.3350  -42.0510 C.2   237  LEU237      0.2616
    104  O        -50.3630  -20.0890  -41.8500 O.2   237  LEU237     -0.2715
    105  CB       -52.0110  -17.6980  -40.3600 C.3   237  LEU237      0.0311
    106  CG       -53.0010  -17.1980  -39.3470 C.3   237  LEU237      0.0022
    107  CD1      -52.3780  -16.0060  -38.6000 C.3   237  LEU237      0.0001
    108  CD2      -54.2820  -16.8350  -40.0480 C.3   237  LEU237      0.0001
    109  N        -51.4650  -18.7130  -43.1900 N.am  238  ASP238     -0.1971
    110  CA       -50.4830  -18.9180  -44.2760 C.3   238  ASP238      0.1709
    111  C        -49.3540  -17.8630  -44.2330 C.2   238  ASP238      0.2293
    112  O        -48.5580  -17.7200  -45.2040 O.2   238  ASP238     -0.2864
    113  CB       -51.1200  -18.9460  -45.6430 C.3   238  ASP238      0.1436
    114  CG       -51.6820  -17.6120  -46.0780 C.2   238  ASP238      0.3671
    115  OD1      -51.3900  -16.5750  -45.4390 O.co2 238  ASP238     -0.2456
    116  OD2      -52.4220  -17.5210  -47.0950 O.co2 238  ASP238     -0.2456
    117  N        -54.1320  -19.7510  -29.0760 N.3   294  ARG294     -0.1245
    118  CA       -55.3240  -20.5750  -29.3370 C.3   294  ARG294      0.1563
    119  C        -56.0910  -20.8700  -28.0690 C.2   294  ARG294      0.2260
    120  O        -57.3680  -20.8400  -28.0870 O.2   294  ARG294     -0.2867
    121  CB       -54.9670  -21.8640  -30.0660 C.3   294  ARG294      0.0307
    122  CG       -54.5980  -21.6700  -31.5250 C.3   294  ARG294      0.0489
    123  CD       -55.7360  -21.2350  -32.4400 C.3   294  ARG294      0.2205
    124  NE       -56.6610  -22.3350  -32.6450 N.pl3 294  ARG294     -0.0865
    125  CZ       -56.9240  -22.9320  -33.8130 C.cat 294  ARG294      0.5346
    126  NH1      -56.3850  -22.4930  -34.9670 N.pl3 294  ARG294      0.1354
    127  NH2      -57.8100  -23.9710  -33.8560 N.pl3 294  ARG294      0.1354
    128  N        -59.7110  -24.9800  -26.7670 N.3   395  ASP395     -0.1225
    129  CA       -59.3980  -24.1890  -27.9780 C.3   395  ASP395      0.1805
    130  C        -60.3940  -23.0780  -28.1560 C.2   395  ASP395      0.2598
    131  O        -61.6390  -23.2920  -28.0990 O.2   395  ASP395     -0.2718
    132  CB       -59.3790  -25.1540  -29.1860 C.3   395  ASP395      0.1424
    133  CG       -58.7330  -24.5620  -30.4060 C.2   395  ASP395      0.3668
    134  OD1      -58.2190  -23.4310  -30.3870 O.co2 395  ASP395     -0.2456
    135  OD2      -58.7980  -25.2450  -31.4980 O.co2 395  ASP395     -0.2456
    136  N        -59.9270  -21.8420  -28.3310 N.am  396  GLY396     -0.1957
    137  CA       -60.7990  -20.7120  -28.4770 C.3   396  GLY396      0.1869
    138  C        -61.3130  -20.0350  -27.2030 C.2   396  GLY396      0.2309
    139  O        -62.2230  -19.1430  -27.2750 O.2   396  GLY396     -0.2863
@<TRIPOS>BOND
     1    72    71    2
     2    71    73   am
     3    71    70    1
     4    70    67    1
     5    65    63    1
     6    62    63    2
     7    62    61    1
     8    63    64    1
     9    61    60    1
    10    66    67    1
    11    66    57   am
    12    67    68    1
    13   116   114   ar
    14    56    57    1
    15    56    55    1
    16    56    59    1
    17    57    58    2
    18    69    68    2
    19    68    74   am
    20    52    51    2
    21    60    59    1
    22   114   113    1
    23   114   115   ar
    24   113   110    1
    25    74    75    1
    26    51    50    1
    27   112   111    2
    28    76    77    2
    29    76    75    1
    30    75    78    1
    31   110   111    1
    32   110   109    1
    33    45    44    2
    34    50    53    1
    35    50    49    1
    36    12    13    2
    37    12    11    1
    38    14    15    1
    39    14    11    1
    40    42    43    1
    41    16    15    2
    42    15    17   am
    43    53    54    1
    44    11    10    1
    45    47    46    1
    46   109   103   am
    47    78    80    1
    48    78    79    1
    49    44    43    1
    50    43    46    1
    51    46    48    1
    52   103   104    2
    53   103   102    1
    54   102   105    1
    55   102   101    1
    56   105   106    1
    57   108   106    1
    58   101    95   am
    59    23    24    1
    60    23    22    1
    61    96    95    2
    62    24    18    1
    63    95    94    1
    64    22    19    1
    65   106   107    1
    66    88    90   ar
    67    88    86   ar
    68    90    91   ar
    69    84    83    2
    70    94    93    1
    71    94    97    1
    72    18    19    1
    73    19    20    1
    74    83    93   am
    75    83    82    1
    76    85    86    1
    77    85    82    1
    78    86    87   ar
    79    91    92    1
    80    91    89   ar
    81    82    81    1
    82    34    35   ar
    83    34    32   ar
    84    97    98    1
    85    35    33   ar
    86    20    21    2
    87    20    25   am
    88    87    89   ar
    89    32    30   ar
    90    99    98   ar
    91    25    26    1
    92    98   100   ar
    93    33    31   ar
    94     9     8    1
    95     7     8    1
    96     7     6    1
    97    30    31   ar
    98    30    29    1
    99     5     6    1
   100     5     2    1
   101    26    29    1
   102    26    27    1
   103     4     3    2
   104   126   125    1
   105     3     2    1
   106     2     1    1
   107    27    28    2
   108    27    36   am
   109   127   125    1
   110   125   124    2
   111    36    37    1
   112    41    40    1
   113   124   123    1
   114   123   122    1
   115    37    40    1
   116    37    38    1
   117   122   121    1
   118   135   133   ar
   119    38    39    2
   120   133   134   ar
   121   133   132    1
   122   121   118    1
   123   118   117    1
   124   118   119    1
   125   132   129    1
   126   137   136    1
   127   137   138    1
   128   136   130   am
   129   130   131    2
   130   130   129    1
   131   120   119    2
   132   129   128    1
   133   139   138    2
