@<TRIPOS>MOLECULE
tmp/4qurA01.pdb
 147 146 0 0 0
SMALL
GASTEIGER

@<TRIPOS>ATOM
      1  N        -27.0010  126.7310  200.5290 N.3   208  ASN208     -0.1225
      2  CA       -26.4440  126.7550  201.8700 C.3   208  ASN208      0.1785
      3  C        -26.2160  125.3530  202.4200 C.2   208  ASN208      0.2597
      4  O        -25.1780  125.0810  203.0290 O.2   208  ASN208     -0.2718
      5  CB       -27.3870  127.4950  202.8120 C.3   208  ASN208      0.1169
      6  CG       -26.8140  127.6680  204.1900 C.2   208  ASN208      0.2627
      7  OD1      -27.3220  127.0890  205.1510 O.2   208  ASN208     -0.2716
      8  ND2      -25.7560  128.4620  204.3030 N.am  208  ASN208     -0.0877
      9  N        -27.1970  124.4830  202.2110 N.am  209  ASN209     -0.1960
     10  CA       -27.1020  123.1080  202.6950 C.3   209  ASN209      0.1819
     11  C        -25.9570  122.3320  202.0560 C.2   209  ASN209      0.2621
     12  O        -25.3520  121.4470  202.6860 O.2   209  ASN209     -0.2715
     13  CB       -28.3960  122.3480  202.4580 C.3   209  ASN209      0.1195
     14  CG       -28.3170  120.9280  202.9780 C.2   209  ASN209      0.2630
     15  OD1      -28.3040  120.6990  204.1930 O.2   209  ASN209     -0.2716
     16  ND2      -28.2220  119.9720  202.0650 N.am  209  ASN209     -0.0877
     17  N        -25.6730  122.6370  200.8000 N.am  210  ARG210     -0.1963
     18  CA       -24.7270  121.7950  200.0480 C.3   210  ARG210      0.1729
     19  C        -23.2600  122.2330  200.1570 C.2   210  ARG210      0.2616
     20  O        -22.4190  121.8380  199.3430 O.2   210  ARG210     -0.2715
     21  CB       -25.1880  121.6720  198.5940 C.3   210  ARG210      0.0348
     22  CG       -26.4900  120.8940  198.4880 C.3   210  ARG210      0.0492
     23  CD       -26.3140  119.3730  198.7460 C.3   210  ARG210      0.2205
     24  NE       -25.7410  118.8020  197.5300 N.pl3 210  ARG210     -0.0865
     25  CZ       -24.5200  118.2940  197.3880 C.cat 210  ARG210      0.5346
     26  NH1      -23.6960  118.1500  198.4270 N.pl3 210  ARG210      0.1354
     27  NH2      -24.1530  117.8700  196.1810 N.pl3 210  ARG210      0.1354
     28  N        -22.9540  123.0370  201.1690 N.am  211  GLU211     -0.1963
     29  CA       -21.5580  123.3710  201.4760 C.3   211  GLU211      0.1733
     30  C        -21.2710  123.5630  202.9620 C.2   211  GLU211      0.2616
     31  O        -22.1620  123.9490  203.7270 O.2   211  GLU211     -0.2715
     32  CB       -21.0680  124.5720  200.6590 C.3   211  GLU211      0.0429
     33  CG       -21.9800  125.8270  200.6740 C.3   211  GLU211      0.1163
     34  CD       -21.7180  126.7790  201.8270 C.2   211  GLU211      0.3649
     35  OE1      -20.8680  126.4850  202.7060 O.co2 211  GLU211     -0.2457
     36  OE2      -22.3660  127.8510  201.8580 O.co2 211  GLU211     -0.2457
     37  N        -20.0310  123.2810  203.3700 N.am  212  CYS212     -0.1968
     38  CA       -19.5610  123.6810  204.6960 C.3   212  CYS212      0.1712
     39  C        -18.5090  124.7760  204.6810 C.2   212  CYS212      0.2296
     40  O        -17.7870  124.9840  205.6630 O.2   212  CYS212     -0.2864
     41  CB       -19.1110  122.4830  205.5290 C.3   212  CYS212      0.0983
     42  SG       -20.2510  122.1880  206.9150 S.3   212  CYS212     -0.0798
     43  N        -19.2760  127.6740  204.9610 N.3   214  HIS214     -0.1226
     44  CA       -19.7580  128.6240  205.9590 C.3   214  HIS214      0.1752
     45  C        -19.6860  128.1010  207.3940 C.2   214  HIS214      0.2596
     46  O        -19.9460  128.8370  208.3500 O.2   214  HIS214     -0.2718
     47  CB       -21.2150  129.0150  205.6470 C.3   214  HIS214      0.0759
     48  CG       -22.2160  127.9180  205.8980 C.ar  214  HIS214      0.0818
     49  ND1      -22.6260  127.0560  204.9060 N.ar  214  HIS214     -0.2268
     50  CD2      -22.9160  127.5940  207.0030 C.ar  214  HIS214      0.1154
     51  CE1      -23.5220  126.2180  205.4050 C.ar  214  HIS214      0.1986
     52  NE2      -23.7190  126.5220  206.6730 N.ar  214  HIS214     -0.2212
     53  N        -19.3340  126.8340  207.5490 N.am  215  CYS215     -0.1970
     54  CA       -19.5710  126.1470  208.8140 C.3   215  CYS215      0.1712
     55  C        -18.6750  126.5420  209.9880 C.2   215  CYS215      0.2296
     56  O        -19.1660  126.7040  211.1010 O.2   215  CYS215     -0.2864
     57  CB       -19.5160  124.6320  208.6020 C.3   215  CYS215      0.0983
     58  SG       -20.8570  124.0090  207.5680 S.3   215  CYS215     -0.0798
     59  N        -22.4560  122.4700  215.8060 N.3   222  LEU222     -0.1245
     60  CA       -22.3100  121.4430  214.7790 C.3   222  LEU222      0.1561
     61  C        -20.8540  121.0120  214.5730 C.2   222  LEU222      0.2260
     62  O        -20.5750  119.8230  214.4060 O.2   222  LEU222     -0.2867
     63  CB       -22.9080  121.9160  213.4460 C.3   222  LEU222      0.0270
     64  CG       -23.0000  120.7890  212.4030 C.3   222  LEU222      0.0019
     65  CD1      -24.0120  119.7280  212.8230 C.3   222  LEU222      0.0001
     66  CD2      -23.3280  121.3370  211.0170 C.3   222  LEU222      0.0001
     67  N        -19.5640  117.3910  213.3420 N.3   226  PHE226     -0.1241
     68  CA       -19.5940  117.3010  211.8730 C.3   226  PHE226      0.1605
     69  C        -18.3040  117.8810  211.2710 C.2   226  PHE226      0.2264
     70  O        -17.9470  119.0260  211.5320 O.2   226  PHE226     -0.2867
     71  CB       -20.8370  118.0250  211.3200 C.3   226  PHE226      0.0534
     72  CG       -21.1300  117.7250  209.8710 C.ar  226  PHE226     -0.0203
     73  CD1      -21.9200  116.6380  209.5180 C.ar  226  PHE226     -0.0042
     74  CD2      -20.6140  118.5240  208.8650 C.ar  226  PHE226     -0.0042
     75  CE1      -22.1900  116.3560  208.1830 C.ar  226  PHE226     -0.0003
     76  CE2      -20.8690  118.2440  207.5280 C.ar  226  PHE226     -0.0003
     77  CZ       -21.6630  117.1640  207.1880 C.ar  226  PHE226     -0.0000
     78  N        -19.0270  117.0910  202.8690 N.3   233  ALA233     -0.1245
     79  CA       -20.1970  117.8610  202.4590 C.3   233  ALA233      0.1562
     80  C        -20.4940  117.7500  200.9580 C.2   233  ALA233      0.2260
     81  O        -21.6550  117.6510  200.5550 O.2   233  ALA233     -0.2867
     82  CB       -20.0210  119.3250  202.8620 C.3   233  ALA233      0.0290
     83  N        -28.0390  111.4930  196.3540 N.3   270  ARG270     -0.1245
     84  CA       -26.7300  110.9890  196.7360 C.3   270  ARG270      0.1563
     85  C        -26.8730  110.3260  198.0860 C.2   270  ARG270      0.2260
     86  O        -27.5500  110.8550  198.9610 O.2   270  ARG270     -0.2867
     87  CB       -25.7310  112.1430  196.8390 C.3   270  ARG270      0.0307
     88  CG       -24.3070  111.7680  197.2000 C.3   270  ARG270      0.0489
     89  CD       -24.0880  111.7190  198.7210 C.3   270  ARG270      0.2205
     90  NE       -23.8550  113.0180  199.3550 N.pl3 270  ARG270     -0.0865
     91  CZ       -24.7270  113.6210  200.1660 C.cat 270  ARG270      0.5346
     92  NH1      -24.4180  114.7900  200.7180 N.pl3 270  ARG270      0.1354
     93  NH2      -25.9160  113.0610  200.4100 N.pl3 270  ARG270      0.1354
     94  N        -25.5470  110.3480  204.9970 N.3   307  LEU307     -0.1245
     95  CA       -26.1000  111.5110  204.3190 C.3   307  LEU307      0.1561
     96  C        -26.9310  111.0900  203.1130 C.2   307  LEU307      0.2260
     97  O        -26.5010  110.2730  202.2960 O.2   307  LEU307     -0.2867
     98  CB       -24.9670  112.4350  203.8840 C.3   307  LEU307      0.0270
     99  CG       -23.9790  112.9110  204.9460 C.3   307  LEU307      0.0019
    100  CD1      -23.0050  113.9130  204.3550 C.3   307  LEU307      0.0001
    101  CD2      -24.7200  113.5310  206.1210 C.3   307  LEU307      0.0001
    102  N        -33.0430  116.6280  202.5850 N.3   315  TRP315     -0.1227
    103  CA       -31.7500  116.0890  203.0030 C.3   315  TRP315      0.1737
    104  C        -31.9530  115.3770  204.3360 C.2   315  TRP315      0.2595
    105  O        -32.9360  115.6230  205.0330 O.2   315  TRP315     -0.2718
    106  CB       -30.6610  117.1620  203.0730 C.3   315  TRP315      0.0564
    107  CG       -30.7590  118.1530  204.2110 C.ar  315  TRP315      0.0003
    108  CD1      -30.3500  117.9750  205.5040 C.ar  315  TRP315      0.0946
    109  CD2      -31.2560  119.4970  204.1320 C.ar  315  TRP315      0.0152
    110  NE1      -30.5630  119.1340  206.2360 N.ar  315  TRP315     -0.2442
    111  CE2      -31.1270  120.0730  205.4160 C.ar  315  TRP315      0.0810
    112  CE3      -31.8020  120.2620  203.0960 C.ar  315  TRP315      0.0012
    113  CZ2      -31.5340  121.3790  205.7000 C.ar  315  TRP315      0.0191
    114  CZ3      -32.1920  121.5830  203.3790 C.ar  315  TRP315      0.0001
    115  CH2      -32.0540  122.1170  204.6680 C.ar  315  TRP315      0.0015
    116  N        -31.0490  114.4660  204.6850 N.am  316  ASN316     -0.1960
    117  CA       -31.3030  113.5730  205.8040 C.3   316  ASN316      0.1819
    118  C        -29.9810  113.1380  206.4180 C.2   316  ASN316      0.2621
    119  O        -28.9680  113.0850  205.7290 O.2   316  ASN316     -0.2715
    120  CB       -32.0500  112.3190  205.3630 C.3   316  ASN316      0.1195
    121  CG       -33.3510  112.6060  204.6190 C.2   316  ASN316      0.2630
    122  OD1      -34.4320  112.5280  205.1910 O.2   316  ASN316     -0.2716
    123  ND2      -33.2500  112.8530  203.3230 N.am  316  ASN316     -0.0877
    124  N        -30.0070  112.8300  207.7090 N.am  317  HIS317     -0.1973
    125  CA       -28.8340  112.3090  208.4080 C.3   317  HIS317      0.1656
    126  C        -29.2960  111.1020  209.2020 C.2   317  HIS317      0.2291
    127  O        -30.1180  111.2160  210.1170 O.2   317  HIS317     -0.2864
    128  CB       -28.2550  113.3310  209.3850 C.3   317  HIS317      0.0771
    129  CG       -27.6900  114.5620  208.7460 C.ar  317  HIS317      0.0820
    130  ND1      -26.3530  114.8910  208.8210 N.ar  317  HIS317     -0.2267
    131  CD2      -28.2830  115.5620  208.0450 C.ar  317  HIS317      0.1154
    132  CE1      -26.1460  116.0370  208.1930 C.ar  317  HIS317      0.1986
    133  NE2      -27.3010  116.4610  207.7130 N.ar  317  HIS317     -0.2212
    134  N        -29.0500  120.5900  216.3670 N.3   363  TRP363     -0.1241
    135  CA       -29.6580  120.9420  215.0860 C.3   363  TRP363      0.1605
    136  C        -30.6830  122.0710  215.1720 C.2   363  TRP363      0.2264
    137  O        -30.9060  122.7830  214.1890 O.2   363  TRP363     -0.2867
    138  CB       -30.2060  119.7190  214.3570 C.3   363  TRP363      0.0550
    139  CG       -29.1450  119.1060  213.4920 C.ar  363  TRP363      0.0003
    140  CD1      -28.3540  118.0310  213.7950 C.ar  363  TRP363      0.0946
    141  CD2      -28.7340  119.5580  212.1970 C.ar  363  TRP363      0.0152
    142  NE1      -27.4780  117.7850  212.7630 N.ar  363  TRP363     -0.2442
    143  CE2      -27.6930  118.7030  211.7660 C.ar  363  TRP363      0.0810
    144  CE3      -29.1280  120.6080  211.3590 C.ar  363  TRP363      0.0012
    145  CZ2      -27.0530  118.8680  210.5340 C.ar  363  TRP363      0.0191
    146  CZ3      -28.5080  120.7520  210.1310 C.ar  363  TRP363      0.0001
    147  CH2      -27.4760  119.8930  209.7330 C.ar  363  TRP363      0.0015
@<TRIPOS>BOND
     1    27    25    1
     2    83    84    1
     3    84    87    1
     4    84    85    1
     5    87    88    1
     6    88    89    1
     7    25    24    2
     8    25    26    1
     9    24    23    1
    10    85    86    2
    11    22    21    1
    12    22    23    1
    13    21    18    1
    14    89    90    1
    15    20    19    2
    16    90    91    2
    17    18    19    1
    18    18    17    1
    19    19    28   am
    20    91    93    1
    21    91    92    1
    22     1     2    1
    23    81    80    2
    24    32    33    1
    25    32    29    1
    26    33    34    1
    27    17    11   am
    28    80    79    1
    29    28    29    1
    30    29    30    1
    31    34    36   ar
    32    34    35   ar
    33     2     3    1
    34     2     5    1
    35    11    12    2
    36    11    10    1
    37    16    14   am
    38     9     3   am
    39     9    10    1
    40    97    96    2
    41     3     4    2
    42    13    10    1
    43    13    14    1
    44    79    82    1
    45    79    78    1
    46   102   103    1
    47     5     6    1
    48    30    37   am
    49    30    31    2
    50    14    15    2
    51   103   106    1
    52   103   104    1
    53   106   107    1
    54   112   114   ar
    55   112   109   ar
    56    96    95    1
    57   123   121   am
    58    37    38    1
    59   114   115   ar
    60    98    95    1
    61    98    99    1
    62   109   107   ar
    63   109   111   ar
    64     6     8   am
    65     6     7    2
    66   107   108   ar
    67    95    94    1
    68   104   116   am
    69   104   105    2
    70   100    99    1
    71   121   122    2
    72   121   120    1
    73   115   113   ar
    74    39    38    1
    75    39    40    2
    76   116   117    1
    77    38    41    1
    78    49    51   ar
    79    49    48   ar
    80    99   101    1
    81    43    44    1
    82   120   117    1
    83    51    52   ar
    84   111   113   ar
    85   111   110   ar
    86   108   110   ar
    87    41    42    1
    88    47    48    1
    89    47    44    1
    90   119   118    2
    91   117   118    1
    92    48    50   ar
    93    44    45    1
    94   118   124   am
    95    52    50   ar
    96    42    58    1
    97    77    76   ar
    98    77    75   ar
    99    45    53   am
   100    45    46    2
   101    76    74   ar
   102    53    54    1
   103    58    57    1
   104   124   125    1
   105   133   131   ar
   106   133   132   ar
   107   131   129   ar
   108    75    73   ar
   109   132   130   ar
   110   125   126    1
   111   125   128    1
   112    57    54    1
   113   129   130   ar
   114   129   128    1
   115    54    55    1
   116    74    72   ar
   117   126   127    2
   118    73    72   ar
   119   147   146   ar
   120   147   145   ar
   121    72    71    1
   122    55    56    2
   123   146   144   ar
   124   145   143   ar
   125    66    64    1
   126    69    70    2
   127    69    68    1
   128    71    68    1
   129   144   141   ar
   130   143   141   ar
   131   143   142   ar
   132    68    67    1
   133   141   139   ar
   134    64    65    1
   135    64    63    1
   136   142   140   ar
   137    63    60    1
   138   139   140   ar
   139   139   138    1
   140   137   136    2
   141   138   135    1
   142    62    61    2
   143    61    60    1
   144    60    59    1
   145   135   136    1
   146   135   134    1
