@<TRIPOS>MOLECULE
tmp/4qutA00.pdb
 132 126 0 0 0
SMALL
GASTEIGER

@<TRIPOS>ATOM
      1  N         25.5580   44.8670   -2.7550 N.3    30  VAL30      -0.1231
      2  CA        25.4350   45.1930   -4.1530 C.3    30  VAL30       0.1692
      3  C         23.9850   45.2660   -4.6620 C.2    30  VAL30       0.2592
      4  O         23.7170   45.9500   -5.6780 O.2    30  VAL30      -0.2718
      5  CB        26.2810   44.2350   -5.0010 C.3    30  VAL30       0.0266
      6  CG1       25.7440   42.8140   -4.9420 C.3    30  VAL30       0.0020
      7  CG2       26.3810   44.7190   -6.4000 C.3    30  VAL30       0.0020
      8  N         23.0750   44.6710   -3.9040 N.am   31  PHE31      -0.1976
      9  CA        21.6540   44.6840   -4.2420 C.3    31  PHE31       0.1639
     10  C         20.8020   45.6790   -3.4500 C.2    31  PHE31       0.2290
     11  O         19.5650   45.7120   -3.6050 O.2    31  PHE31      -0.2864
     12  CB        21.0620   43.2940   -4.0580 C.3    31  PHE31       0.0560
     13  CG        21.8390   42.2220   -4.7530 C.ar   31  PHE31      -0.0200
     14  CD1       21.9630   42.1970   -6.1190 C.ar   31  PHE31      -0.0042
     15  CD2       22.4680   41.2450   -4.0080 C.ar   31  PHE31      -0.0042
     16  CE1       22.7330   41.2200   -6.7700 C.ar   31  PHE31      -0.0003
     17  CE2       23.2290   40.2600   -4.6260 C.ar   31  PHE31      -0.0003
     18  CZ        23.3810   40.2600   -6.0250 C.ar   31  PHE31      -0.0000
     19  N         21.3680   49.8230   -9.5290 N.3    35  VAL35      -0.1245
     20  CA        22.5580   50.0680  -10.3200 C.3    35  VAL35       0.1561
     21  C         22.5520   51.4950  -10.8160 C.2    35  VAL35       0.2260
     22  O         21.5740   51.9830  -11.3730 O.2    35  VAL35      -0.2867
     23  CB        22.6780   49.0610  -11.4790 C.3    35  VAL35       0.0252
     24  CG1       23.8580   49.3690  -12.3470 C.3    35  VAL35       0.0019
     25  CG2       22.7970   47.6510  -10.9140 C.3    35  VAL35       0.0019
     26  N         26.7730   55.7540  -13.7360 N.3    39  GLU39      -0.1231
     27  CA        28.0450   55.0650  -13.7420 C.3    39  GLU39       0.1699
     28  C         28.0000   53.8080  -14.6430 C.2    39  GLU39       0.2592
     29  O         29.0160   53.3860  -15.1740 O.2    39  GLU39      -0.2718
     30  CB        28.4560   54.7320  -12.3110 C.3    39  GLU39       0.0402
     31  CG        28.6350   55.9890  -11.4570 C.3    39  GLU39       0.1161
     32  CD        28.6410   55.7250   -9.9580 C.2    39  GLU39       0.3649
     33  OE1       27.9060   54.8310   -9.4900 O.co2  39  GLU39      -0.2457
     34  OE2       29.3820   56.4360   -9.2500 O.co2  39  GLU39      -0.2457
     35  N         26.8170   53.2180  -14.8030 N.am   40  VAL40      -0.1980
     36  CA        26.7120   51.9780  -15.6050 C.3    40  VAL40       0.1595
     37  C         25.5970   52.1790  -16.6510 C.2    40  VAL40       0.2287
     38  O         24.5380   51.6110  -16.5280 O.2    40  VAL40      -0.2864
     39  CB        26.3710   50.7680  -14.7360 C.3    40  VAL40       0.0276
     40  CG1       26.5500   49.4920  -15.5420 C.3    40  VAL40       0.0022
     41  CG2       27.2250   50.7580  -13.4650 C.3    40  VAL40       0.0022
     42  N         25.0730   51.1650  -19.6020 N.3    42  ASP42      -0.1225
     43  CA        24.6250   49.9950  -20.3920 C.3    42  ASP42       0.1805
     44  C         23.5620   49.1740  -19.6390 C.2    42  ASP42       0.2597
     45  O         22.7900   48.4080  -20.2560 O.2    42  ASP42      -0.2718
     46  CB        25.8020   49.0700  -20.7310 C.3    42  ASP42       0.1424
     47  CG        26.7640   49.6580  -21.7490 C.2    42  ASP42       0.3668
     48  OD1       26.4480   50.6550  -22.4010 O.co2  42  ASP42      -0.2456
     49  OD2       27.8360   49.0560  -21.9630 O.co2  42  ASP42      -0.2456
     50  N         23.5020   49.3020  -18.3240 N.am   43  TYR43      -0.1976
     51  CA        22.6290   48.4370  -17.5400 C.3    43  TYR43       0.1639
     52  C         21.1610   48.5480  -17.9390 C.2    43  TYR43       0.2290
     53  O         20.4890   47.5280  -18.1470 O.2    43  TYR43      -0.2864
     54  CB        22.7580   48.7530  -16.0340 C.3    43  TYR43       0.0560
     55  CG        22.1450   47.7040  -15.1810 C.ar   43  TYR43      -0.0198
     56  CD1       20.8450   47.8400  -14.7100 C.ar   43  TYR43      -0.0009
     57  CD2       22.8170   46.4930  -14.9110 C.ar   43  TYR43      -0.0009
     58  CE1       20.2620   46.8360  -13.9130 C.ar   43  TYR43       0.0417
     59  CE2       22.2310   45.5030  -14.1350 C.ar   43  TYR43       0.0417
     60  CZ        20.9570   45.6710  -13.6530 C.ar   43  TYR43       0.1957
     61  OH        20.3590   44.6750  -12.8970 O.3    43  TYR43      -0.2866
     62  N         20.3030   46.6820  -21.2320 N.3    46  VAL46      -0.1245
     63  CA        20.2910   45.2160  -21.1410 C.3    46  VAL46       0.1561
     64  C         19.1910   44.6650  -20.2570 C.2    46  VAL46       0.2260
     65  O         18.5020   43.7180  -20.6340 O.2    46  VAL46      -0.2867
     66  CB        21.6910   44.6770  -20.6820 C.3    46  VAL46       0.0252
     67  CG1       21.6450   43.1570  -20.5200 C.3    46  VAL46       0.0019
     68  CG2       22.7570   45.0820  -21.6690 C.3    46  VAL46       0.0019
     69  N         20.8290   39.7520  -12.0730 N.3    82  ALA82      -0.1245
     70  CA        22.2780   39.5890  -11.8260 C.3    82  ALA82       0.1562
     71  C         22.8950   38.4680  -12.6780 C.2    82  ALA82       0.2260
     72  O         24.0130   38.6020  -13.1840 O.2    82  ALA82      -0.2867
     73  CB        22.5640   39.3410  -10.3630 C.3    82  ALA82       0.0290
     74  N         23.0120   39.8970  -16.4400 N.3    85  TYR85      -0.1227
     75  CA        23.9550   40.9710  -16.6940 C.3    85  TYR85       0.1736
     76  C         25.4130   40.5610  -16.4620 C.2    85  TYR85       0.2595
     77  O         26.3140   41.1330  -17.0510 O.2    85  TYR85      -0.2718
     78  CB        23.6420   42.1870  -15.8230 C.3    85  TYR85       0.0548
     79  CG        24.3730   43.4360  -16.2950 C.ar   85  TYR85      -0.0200
     80  CD1       25.5420   43.8810  -15.6570 C.ar   85  TYR85      -0.0009
     81  CD2       23.9840   44.0780  -17.4490 C.ar   85  TYR85      -0.0009
     82  CE1       26.2190   44.9670  -16.1310 C.ar   85  TYR85       0.0417
     83  CE2       24.6670   45.1590  -17.9110 C.ar   85  TYR85       0.0417
     84  CZ        25.7710   45.5940  -17.2340 C.ar   85  TYR85       0.1957
     85  OH        26.4420   46.6680  -17.7120 O.3    85  TYR85      -0.2866
     86  N         25.6100   39.5510  -15.6070 N.am   86  ASN86      -0.1961
     87  CA        26.9470   39.0850  -15.2160 C.3    86  ASN86       0.1804
     88  C         27.1280   37.5590  -15.4610 C.2    86  ASN86       0.2463
     89  O         27.3010   36.7980  -14.5280 O.2    86  ASN86      -0.2730
     90  CB        27.1870   39.4260  -13.7410 C.3    86  ASN86       0.1195
     91  CG        26.8700   40.8820  -13.4100 C.2    86  ASN86       0.2630
     92  OD1       27.6620   41.8020  -13.6660 O.2    86  ASN86      -0.2716
     93  ND2       25.6900   41.0930  -12.8310 N.am   86  ASN86      -0.0877
     94  N         27.0890   37.1210  -16.7150 N.am   87  PRO87      -0.2716
     95  CA        26.9830   35.7030  -17.0060 C.3    87  PRO87       0.1536
     96  C         28.2880   34.9280  -17.1980 C.2    87  PRO87       0.2598
     97  O         28.2240   33.7000  -17.3730 O.2    87  PRO87      -0.2715
     98  CB        26.2210   35.7110  -18.3220 C.3    87  PRO87       0.0310
     99  CG        26.8010   36.8970  -19.0300 C.3    87  PRO87       0.0237
    100  CD        26.9260   37.9320  -17.9290 C.3    87  PRO87       0.0939
    101  N         29.4190   35.6070  -17.1140 N.am   88  ASP88      -0.1972
    102  CA        30.6890   35.0380  -17.5710 C.3    88  ASP88       0.1709
    103  C         31.4330   34.3090  -16.4640 C.2    88  ASP88       0.2293
    104  O         30.9930   34.3040  -15.3060 O.2    88  ASP88      -0.2864
    105  CB        31.5390   36.0990  -18.2140 C.3    88  ASP88       0.1436
    106  CG        30.8740   36.6660  -19.4770 C.2    88  ASP88       0.3671
    107  OD1       30.1620   35.9120  -20.1570 O.co2  88  ASP88      -0.2456
    108  OD2       31.1320   37.8170  -19.7800 O.co2  88  ASP88      -0.2456
    109  N         34.4500   34.7650  -15.2750 N.3    90  ASP90      -0.1239
    110  CA        35.4280   35.5220  -14.4670 C.3    90  ASP90       0.1674
    111  C         34.9710   35.6890  -13.0240 C.2    90  ASP90       0.2266
    112  O         33.7780   35.6730  -12.7550 O.2    90  ASP90      -0.2867
    113  CB        35.7070   36.8700  -15.0370 C.3    90  ASP90       0.1410
    114  CG        34.5180   37.7370  -15.0400 C.2    90  ASP90       0.3668
    115  OD1       33.7100   37.5570  -15.9690 O.co2  90  ASP90      -0.2456
    116  OD2       34.3640   38.5620  -14.1150 O.co2  90  ASP90      -0.2456
    117  N         32.0630   38.1620  -11.9840 N.3    93  ASP93      -0.1239
    118  CA        30.7320   37.7590  -12.3880 C.3    93  ASP93       0.1674
    119  C         30.2930   36.5850  -11.4950 C.2    93  ASP93       0.2266
    120  O         29.1830   36.5440  -11.0030 O.2    93  ASP93      -0.2867
    121  CB        30.6650   37.3210  -13.8500 C.3    93  ASP93       0.1410
    122  CG        30.5700   38.4770  -14.8390 C.2    93  ASP93       0.3668
    123  OD1       30.9120   39.6180  -14.4450 O.co2  93  ASP93      -0.2456
    124  OD2       30.0860   38.2050  -16.0020 O.co2  93  ASP93      -0.2456
    125  N         29.1680   37.8540   -8.0160 N.3    96  ILE96      -0.1245
    126  CA        27.8610   38.4920   -7.9640 C.3    96  ILE96       0.1561
    127  C         26.7480   37.4770   -8.1930 C.2    96  ILE96       0.2260
    128  O         25.6730   37.5630   -7.5300 O.2    96  ILE96      -0.2867
    129  CB        27.7730   39.7450   -8.8660 C.3    96  ILE96       0.0252
    130  CG1       26.5450   40.5570   -8.4960 C.3    96  ILE96       0.0019
    131  CG2       27.7630   39.3820  -10.3150 C.3    96  ILE96       0.0019
    132  CD1       26.5820   41.9930   -9.0370 C.3    96  ILE96       0.0001
@<TRIPOS>BOND
     1    48    47   ar
     2    49    47   ar
     3    47    46    1
     4    68    66    1
     5    62    63    1
     6    63    66    1
     7    63    64    1
     8    46    43    1
     9    66    67    1
    10    65    64    2
    11    43    44    1
    12    43    42    1
    13    45    44    2
    14   107   106   ar
    15   108   106   ar
    16    44    50   am
    17   106   105    1
    18    99    98    1
    19    99   100    1
    20    50    51    1
    21    98    95    1
    22   105   102    1
    23    53    52    2
    24    52    51    1
    25   100    94    1
    26    83    81   ar
    27    83    84   ar
    28    85    84    1
    29   102   101    1
    30   102   103    1
    31    51    54    1
    32    81    79   ar
    33    97    96    2
    34    84    82   ar
    35    96   101   am
    36    96    95    1
    37    77    76    2
    38    95    94    1
    39    94    88   am
    40    75    76    1
    41    75    74    1
    42    75    78    1
    43    37    38    2
    44    37    36    1
    45   103   104    2
    46    76    86   am
    47    79    78    1
    48    79    80   ar
    49    82    80   ar
    50    54    55    1
    51   124   122   ar
    52   115   114   ar
    53    86    87    1
    54    36    35    1
    55    36    39    1
    56    40    39    1
    57    88    87    1
    58    88    89    2
    59   109   110    1
    60    87    90    1
    61    55    57   ar
    62    55    56   ar
    63    29    28    2
    64   114   113    1
    65   114   116   ar
    66   113   110    1
    67    57    59   ar
    68   122   123   ar
    69   122   121    1
    70    35    28   am
    71    39    41    1
    72    56    58   ar
    73    28    27    1
    74   110   111    1
    75    59    60   ar
    76    58    60   ar
    77   121   118    1
    78    27    26    1
    79    27    30    1
    80    90    91    1
    81    92    91    2
    82    60    61    1
    83    91    93   am
    84    72    71    2
    85   111   112    2
    86    71    70    1
    87   118   117    1
    88   118   119    1
    89    24    23    1
    90    30    31    1
    91    69    70    1
    92    70    73    1
    93   119   120    2
    94    23    25    1
    95    23    20    1
    96    31    32    1
    97    22    21    2
    98    21    20    1
    99    20    19    1
   100   131   129    1
   101    32    33   ar
   102    32    34   ar
   103   132   130    1
   104   129   130    1
   105   129   126    1
   106   127   126    1
   107   127   128    2
   108   125   126    1
   109    16    14   ar
   110    16    18   ar
   111     7     5    1
   112    14    13   ar
   113    18    17   ar
   114     4     3    2
   115     5     6    1
   116     5     2    1
   117    13    12    1
   118    13    15   ar
   119     3     2    1
   120     3     8   am
   121    17    15   ar
   122     9    12    1
   123     9     8    1
   124     9    10    1
   125     2     1    1
   126    11    10    2
