@<TRIPOS>MOLECULE
tmp/4quuA00.pdb
 136 130 0 0 0
SMALL
GASTEIGER

@<TRIPOS>ATOM
      1  N         25.2920   45.1050   -3.0730 N.3    30  VAL30      -0.1231
      2  CA        25.1540   45.4520   -4.4620 C.3    30  VAL30       0.1692
      3  C         23.6810   45.4610   -4.9240 C.2    30  VAL30       0.2592
      4  O         23.3800   46.0870   -5.9170 O.2    30  VAL30      -0.2718
      5  CB        25.9690   44.5410   -5.3690 C.3    30  VAL30       0.0266
      6  CG1       25.3330   43.1540   -5.4550 C.3    30  VAL30       0.0020
      7  CG2       26.1250   45.1540   -6.7460 C.3    30  VAL30       0.0020
      8  N         22.7990   44.8290   -4.1650 N.am   31  PHE31      -0.1976
      9  CA        21.3700   44.7860   -4.4850 C.3    31  PHE31       0.1639
     10  C         20.5370   45.8100   -3.6940 C.2    31  PHE31       0.2290
     11  O         19.2960   45.8000   -3.7940 O.2    31  PHE31      -0.2864
     12  CB        20.8240   43.3930   -4.2020 C.3    31  PHE31       0.0560
     13  CG        21.5990   42.2880   -4.8870 C.ar   31  PHE31      -0.0200
     14  CD1       21.7320   42.2460   -6.2850 C.ar   31  PHE31      -0.0042
     15  CD2       22.2460   41.3360   -4.1420 C.ar   31  PHE31      -0.0042
     16  CE1       22.5210   41.2950   -6.8940 C.ar   31  PHE31      -0.0003
     17  CE2       23.0070   40.3250   -4.7610 C.ar   31  PHE31      -0.0003
     18  CZ        23.1440   40.3190   -6.1380 C.ar   31  PHE31      -0.0000
     19  N         20.9210   49.9490   -9.8790 N.3    35  VAL35      -0.1245
     20  CA        22.1070   50.1000  -10.6650 C.3    35  VAL35       0.1561
     21  C         22.0600   51.5010  -11.2750 C.2    35  VAL35       0.2260
     22  O         21.0300   51.9170  -11.8670 O.2    35  VAL35      -0.2867
     23  CB        22.1700   49.0250  -11.7640 C.3    35  VAL35       0.0252
     24  CG1       23.3430   49.2640  -12.6780 C.3    35  VAL35       0.0019
     25  CG2       22.1870   47.6410  -11.1200 C.3    35  VAL35       0.0019
     26  N         26.5400   52.7850  -15.0930 N.3    40  VAL40      -0.1245
     27  CA        26.4430   51.6080  -15.9530 C.3    40  VAL40       0.1561
     28  C         25.3930   51.8780  -17.0470 C.2    40  VAL40       0.2260
     29  O         24.2840   51.3290  -16.9860 O.2    40  VAL40      -0.2867
     30  CB        26.0340   50.3490  -15.1450 C.3    40  VAL40       0.0252
     31  CG1       26.3520   49.0720  -15.9150 C.3    40  VAL40       0.0019
     32  CG2       26.7340   50.3220  -13.7740 C.3    40  VAL40       0.0019
     33  N         25.1190   50.8520  -19.9600 N.3    42  ASP42      -0.1225
     34  CA        24.7500   49.6090  -20.6750 C.3    42  ASP42       0.1805
     35  C         23.6080   48.7970  -20.0550 C.2    42  ASP42       0.2597
     36  O         22.9670   47.9570  -20.7280 O.2    42  ASP42      -0.2718
     37  CB        25.9900   48.7300  -20.6850 C.3    42  ASP42       0.1424
     38  CG        25.8030   47.4690  -21.4700 C.2    42  ASP42       0.3668
     39  OD1       25.5640   47.5830  -22.6880 O.co2  42  ASP42      -0.2456
     40  OD2       25.9120   46.3740  -20.8700 O.co2  42  ASP42      -0.2456
     41  N         23.3920   48.9760  -18.7510 N.am   43  TYR43      -0.1976
     42  CA        22.5210   48.0920  -18.0190 C.3    43  TYR43       0.1639
     43  C         21.0980   47.9730  -18.6250 C.2    43  TYR43       0.2290
     44  O         20.5810   46.8710  -18.8070 O.2    43  TYR43      -0.2864
     45  CB        22.4340   48.5570  -16.5700 C.3    43  TYR43       0.0560
     46  CG        21.8030   47.5560  -15.6470 C.ar   43  TYR43      -0.0198
     47  CD1       20.5200   47.7560  -15.1310 C.ar   43  TYR43      -0.0009
     48  CD2       22.4770   46.3790  -15.2960 C.ar   43  TYR43      -0.0009
     49  CE1       19.9590   46.8490  -14.2780 C.ar   43  TYR43       0.0417
     50  CE2       21.9100   45.4560  -14.4320 C.ar   43  TYR43       0.0417
     51  CZ        20.6410   45.6910  -13.9290 C.ar   43  TYR43       0.1957
     52  OH        20.0460   44.7840  -13.1180 O.3    43  TYR43      -0.2866
     53  N         20.1740   45.7200  -21.5490 N.3    46  VAL46      -0.1245
     54  CA        20.0590   44.3130  -21.2780 C.3    46  VAL46       0.1561
     55  C         18.9290   44.0290  -20.3530 C.2    46  VAL46       0.2260
     56  O         18.1880   43.0960  -20.5910 O.2    46  VAL46      -0.2867
     57  CB        21.3820   43.7050  -20.7210 C.3    46  VAL46       0.0252
     58  CG1       21.1670   42.2400  -20.3620 C.3    46  VAL46       0.0019
     59  CG2       22.4910   43.8660  -21.7330 C.3    46  VAL46       0.0019
     60  N         20.5550   39.7160  -12.0940 N.3    82  ALA82      -0.1245
     61  CA        22.0150   39.6320  -11.8280 C.3    82  ALA82       0.1562
     62  C         22.6190   38.4690  -12.6480 C.2    82  ALA82       0.2260
     63  O         23.7440   38.5660  -13.1250 O.2    82  ALA82      -0.2867
     64  CB        22.2430   39.3910  -10.3380 C.3    82  ALA82       0.0290
     65  N         21.4940   37.2770  -15.4660 N.3    84  GLU84      -0.1231
     66  CA        21.4090   37.6710  -16.8800 C.3    84  GLU84       0.1699
     67  C         22.4280   38.7580  -17.2570 C.2    84  GLU84       0.2592
     68  O         23.0200   38.7190  -18.3300 O.2    84  GLU84      -0.2718
     69  CB        19.9630   38.1460  -17.2670 C.3    84  GLU84       0.0402
     70  CG        19.8900   38.7410  -18.6770 C.3    84  GLU84       0.1161
     71  CD        18.4920   39.0900  -19.2170 C.2    84  GLU84       0.3649
     72  OE1       17.6610   39.6400  -18.4920 O.co2  84  GLU84      -0.2457
     73  OE2       18.2900   38.8950  -20.4280 O.co2  84  GLU84      -0.2457
     74  N         22.6400   39.7460  -16.3740 N.am   85  TYR85      -0.1962
     75  CA        23.5440   40.8380  -16.6810 C.3    85  TYR85       0.1771
     76  C         25.0220   40.4450  -16.4600 C.2    85  TYR85       0.2620
     77  O         25.9150   41.0150  -17.0690 O.2    85  TYR85      -0.2715
     78  CB        23.2530   42.1270  -15.8830 C.3    85  TYR85       0.0574
     79  CG        24.0000   43.2910  -16.4400 C.ar   85  TYR85      -0.0198
     80  CD1       23.6520   43.8010  -17.6890 C.ar   85  TYR85      -0.0009
     81  CD2       25.1340   43.8280  -15.8070 C.ar   85  TYR85      -0.0009
     82  CE1       24.3610   44.8280  -18.2570 C.ar   85  TYR85       0.0417
     83  CE2       25.8590   44.8570  -16.3850 C.ar   85  TYR85       0.0417
     84  CZ        25.4370   45.3760  -17.6020 C.ar   85  TYR85       0.1957
     85  OH        26.1210   46.3770  -18.2050 O.3    85  TYR85      -0.2866
     86  N         25.2680   39.4560  -15.6060 N.am   86  ASN86      -0.1959
     87  CA        26.6460   39.0860  -15.2200 C.3    86  ASN86       0.1804
     88  C         26.8970   37.5670  -15.4220 C.2    86  ASN86       0.2463
     89  O         27.2160   36.8600  -14.4640 O.2    86  ASN86      -0.2730
     90  CB        26.8770   39.4610  -13.7600 C.3    86  ASN86       0.1195
     91  CG        26.5630   40.9150  -13.4620 C.2    86  ASN86       0.2630
     92  OD1       27.3600   41.8030  -13.7200 O.2    86  ASN86      -0.2716
     93  ND2       25.4040   41.1470  -12.8880 N.am   86  ASN86      -0.0877
     94  N         26.7750   37.0500  -16.6600 N.am   87  PRO87      -0.2716
     95  CA        26.8020   35.5740  -16.8360 C.3    87  PRO87       0.1536
     96  C         28.1940   34.9450  -17.0040 C.2    87  PRO87       0.2598
     97  O         28.2870   33.7220  -17.0270 O.2    87  PRO87      -0.2715
     98  CB        26.0560   35.3630  -18.1550 C.3    87  PRO87       0.0310
     99  CG        26.3040   36.6300  -18.9290 C.3    87  PRO87       0.0237
    100  CD        26.2500   37.7220  -17.8650 C.3    87  PRO87       0.0939
    101  N         29.2080   35.7510  -17.1990 N.am   88  ASP88      -0.1972
    102  CA        30.5480   35.2170  -17.6600 C.3    88  ASP88       0.1709
    103  C         31.2820   34.4820  -16.5630 C.2    88  ASP88       0.2293
    104  O         30.8670   34.5120  -15.4060 O.2    88  ASP88      -0.2864
    105  CB        31.4010   36.3290  -18.2480 C.3    88  ASP88       0.1436
    106  CG        30.8220   36.8830  -19.5650 C.2    88  ASP88       0.3671
    107  OD1       29.8660   36.2890  -20.1100 O.co2  88  ASP88      -0.2456
    108  OD2       31.3430   37.9030  -20.0650 O.co2  88  ASP88      -0.2456
    109  N         34.2710   34.9500  -15.3560 N.3    90  ASP90      -0.1239
    110  CA        35.2620   35.7170  -14.5740 C.3    90  ASP90       0.1674
    111  C         34.7810   35.7550  -13.1170 C.2    90  ASP90       0.2266
    112  O         33.6000   35.7120  -12.8540 O.2    90  ASP90      -0.2867
    113  CB        35.4480   37.1430  -15.1120 C.3    90  ASP90       0.1410
    114  CG        34.1910   38.0050  -14.9670 C.2    90  ASP90       0.3668
    115  OD1       33.2370   37.8930  -15.8100 O.co2  90  ASP90      -0.2456
    116  OD2       34.1280   38.8260  -14.0110 O.co2  90  ASP90      -0.2456
    117  N         34.5610   38.0640  -10.8040 N.3    92  GLY92      -0.1210
    118  CA        33.6730   39.1580  -10.3370 C.3    92  GLY92       0.1956
    119  C         32.2100   38.8580  -10.6380 C.2    92  GLY92       0.2611
    120  O         31.3300   39.0890   -9.8090 O.2    92  GLY92      -0.2717
    121  N         31.9580   38.3150  -11.8290 N.am   93  ASP93      -0.1973
    122  CA        30.6340   37.9520  -12.2100 C.3    93  ASP93       0.1709
    123  C         30.1440   36.6990  -11.4250 C.2    93  ASP93       0.2293
    124  O         28.9910   36.6700  -10.9680 O.2    93  ASP93      -0.2864
    125  CB        30.5650   37.7940  -13.7340 C.3    93  ASP93       0.1436
    126  CG        30.7050   39.1700  -14.4750 C.2    93  ASP93       0.3671
    127  OD1       30.3440   40.2300  -13.9070 O.co2  93  ASP93      -0.2456
    128  OD2       31.2390   39.2100  -15.5660 O.co2  93  ASP93      -0.2456
    129  N         29.0410   37.9420   -7.9650 N.3    96  ILE96      -0.1245
    130  CA        27.6970   38.5920   -8.0110 C.3    96  ILE96       0.1561
    131  C         26.5980   37.5320   -8.1680 C.2    96  ILE96       0.2260
    132  O         25.5260   37.5730   -7.4880 O.2    96  ILE96      -0.2867
    133  CB        27.6010   39.6540   -9.1230 C.3    96  ILE96       0.0252
    134  CG1       28.4860   40.8750   -8.8070 C.3    96  ILE96       0.0019
    135  CG2       26.1490   40.1360   -9.2610 C.3    96  ILE96       0.0019
    136  CD1       29.0810   41.5790  -10.0060 C.3    96  ILE96       0.0001
@<TRIPOS>BOND
     1    39    38   ar
     2    59    57    1
     3    53    54    1
     4    38    40   ar
     5    38    37    1
     6    54    57    1
     7    54    55    1
     8    36    35    2
     9    57    58    1
    10    37    34    1
    11    34    35    1
    12    34    33    1
    13    56    55    2
    14    73    71   ar
    15   107   106   ar
    16   108   106   ar
    17    35    41   am
    18   106   105    1
    19    71    70    1
    20    71    72   ar
    21    99    98    1
    22    99   100    1
    23    44    43    2
    24    41    42    1
    25    70    69    1
    26    43    42    1
    27    68    67    2
    28    82    80   ar
    29    82    84   ar
    30   105   102    1
    31    85    84    1
    32    98    95    1
    33    42    45    1
    34   100    94    1
    35    80    79   ar
    36   102   101    1
    37   102   103    1
    38    84    83   ar
    39    69    66    1
    40    67    66    1
    41    67    74   am
    42   101    96   am
    43    77    76    2
    44    28    29    2
    45    28    27    1
    46    97    96    2
    47    96    95    1
    48    66    65    1
    49    95    94    1
    50    75    76    1
    51    75    74    1
    52    75    78    1
    53    94    88   am
    54    45    46    1
    55   103   104    2
    56    76    86   am
    57    79    78    1
    58    79    81   ar
    59    83    81   ar
    60    27    30    1
    61    27    26    1
    62    31    30    1
    63   115   114   ar
    64    46    48   ar
    65    46    47   ar
    66    86    87    1
    67   128   126   ar
    68    88    87    1
    69    88    89    2
    70   109   110    1
    71    48    50   ar
    72    87    90    1
    73    30    32    1
    74    47    49   ar
    75   113   114    1
    76   113   110    1
    77   114   116   ar
    78   110   111    1
    79   126   127   ar
    80   126   125    1
    81    50    51   ar
    82    49    51   ar
    83    51    52    1
    84    90    91    1
    85   125   122    1
    86    92    91    2
    87    91    93   am
    88    63    62    2
    89   111   112    2
    90    24    23    1
    91    62    61    1
    92   122   121    1
    93   122   123    1
    94    60    61    1
    95    22    21    2
    96   121   119   am
    97    61    64    1
    98    23    25    1
    99    23    20    1
   100   123   124    2
   101    21    20    1
   102   117   118    1
   103    20    19    1
   104   119   118    1
   105   119   120    2
   106   136   134    1
   107   135   133    1
   108   133   134    1
   109   133   130    1
   110   131   130    1
   111   131   132    2
   112   130   129    1
   113    16    14   ar
   114    16    18   ar
   115     7     5    1
   116    14    13   ar
   117    18    17   ar
   118     4     3    2
   119     6     5    1
   120     5     2    1
   121     3     2    1
   122     3     8   am
   123    13    12    1
   124    13    15   ar
   125    17    15   ar
   126     9    12    1
   127     9     8    1
   128     9    10    1
   129     2     1    1
   130    11    10    2
