@<TRIPOS>MOLECULE
tmp/4quvA00.pdb
 236 230 0 0 0
SMALL
GASTEIGER

@<TRIPOS>ATOM
      1  N        -22.4150  -13.1710   14.3850 N.3   217  ALA217     -0.1231
      2  CA       -22.6000  -12.5920   15.7070 C.3   217  ALA217      0.1694
      3  C        -23.9300  -12.9700   16.3360 C.2   217  ALA217      0.2591
      4  O        -23.9650  -13.2580   17.5380 O.2   217  ALA217     -0.2718
      5  CB       -22.4590  -11.0830   15.6470 C.3   217  ALA217      0.0304
      6  N        -25.0050  -13.0230   15.5340 N.am  218  VAL218     -0.1980
      7  CA       -26.3320  -13.3290   16.0790 C.3   218  VAL218      0.1595
      8  C        -26.4570  -14.7700   16.5540 C.2   218  VAL218      0.2287
      9  O        -27.5290  -15.1730   16.9910 O.2   218  VAL218     -0.2864
     10  CB       -27.5180  -13.0210   15.1030 C.3   218  VAL218      0.0276
     11  CG1      -27.3370  -11.6620   14.4210 C.3   218  VAL218      0.0022
     12  CG2      -27.7130  -14.1450   14.0720 C.3   218  VAL218      0.0022
     13  N        -25.0620  -15.6830   19.1830 N.3   220  THR220     -0.1203
     14  CA       -24.8590  -15.5710   20.6280 C.3   220  THR220      0.1994
     15  C        -26.0220  -14.8810   21.3620 C.2   220  THR220      0.2619
     16  O        -26.0030  -14.7790   22.5920 O.2   220  THR220     -0.2717
     17  CB       -23.5400  -14.8170   20.9550 C.3   220  THR220      0.1784
     18  OG1      -23.7500  -13.4040   20.8600 O.3   220  THR220     -0.2211
     19  CG2      -22.4300  -15.2270   19.9930 C.3   220  THR220      0.0376
     20  N        -27.0180  -14.4130   20.6030 N.am  221  THR221     -0.1938
     21  CA       -28.1550  -13.6380   21.1280 C.3   221  THR221      0.2028
     22  C        -29.2230  -14.4750   21.8430 C.2   221  THR221      0.2642
     23  O        -29.3530  -15.6760   21.5950 O.2   221  THR221     -0.2714
     24  CB       -28.8470  -12.8480   20.0090 C.3   221  THR221      0.1808
     25  OG1      -29.9480  -12.1050   20.5510 O.3   221  THR221     -0.2208
     26  CG2      -29.3610  -13.7870   18.9380 C.3   221  THR221      0.0379
     27  N        -29.9840  -13.8220   22.7230 N.am  222  TRP222     -0.1973
     28  CA       -31.0100  -14.4690   23.5550 C.3   222  TRP222      0.1640
     29  C        -32.0090  -15.2950   22.7310 C.2   222  TRP222      0.2290
     30  O        -32.3480  -16.4180   23.1160 O.2   222  TRP222     -0.2864
     31  CB       -31.7500  -13.4130   24.3860 C.3   222  TRP222      0.0576
     32  CG       -32.6890  -13.9530   25.4320 C.ar  222  TRP222      0.0006
     33  CD1      -32.3870  -14.8550   26.4070 C.ar  222  TRP222      0.0946
     34  CD2      -34.0690  -13.5880   25.6350 C.ar  222  TRP222      0.0152
     35  NE1      -33.4910  -15.0920   27.1920 N.ar  222  TRP222     -0.2442
     36  CE2      -34.5370  -14.3280   26.7400 C.ar  222  TRP222      0.0810
     37  CE3      -34.9560  -12.7170   24.9830 C.ar  222  TRP222      0.0012
     38  CZ2      -35.8560  -14.2210   27.2140 C.ar  222  TRP222      0.0191
     39  CZ3      -36.2690  -12.6110   25.4580 C.ar  222  TRP222      0.0001
     40  CH2      -36.6990  -13.3580   26.5630 C.ar  222  TRP222      0.0015
     41  N        -29.7300  -18.3130   21.5920 N.3   225  LYS225     -0.1245
     42  CA       -29.1010  -19.0870   22.6620 C.3   225  LYS225      0.1561
     43  C        -30.1580  -19.6700   23.5840 C.2   225  LYS225      0.2260
     44  O        -30.1340  -20.8580   23.8900 O.2   225  LYS225     -0.2867
     45  CB       -28.1190  -18.2310   23.4820 C.3   225  LYS225      0.0271
     46  CG       -26.7540  -18.0080   22.8340 C.3   225  LYS225      0.0035
     47  CD       -25.6060  -18.0670   23.8500 C.3   225  LYS225      0.0206
     48  CE       -25.4970  -16.8320   24.7470 C.3   225  LYS225      0.1093
     49  NZ       -24.3280  -16.9150   25.6840 N.3   225  LYS225     -0.1314
     50  N        -18.5340   -3.0150   19.9170 N.3   282  ASN282     -0.1240
     51  CA       -18.3870   -4.4560   19.6680 C.3   282  ASN282      0.1653
     52  C        -17.0090   -4.8350   19.1560 C.2   282  ASN282      0.2266
     53  O        -16.3440   -5.7320   19.7100 O.2   282  ASN282     -0.2867
     54  CB       -19.4620   -4.9780   18.7200 C.3   282  ASN282      0.1155
     55  CG       -20.7140   -5.4150   19.4510 C.2   282  ASN282      0.2627
     56  OD1      -21.8050   -4.8520   19.2610 O.2   282  ASN282     -0.2716
     57  ND2      -20.5630   -6.4250   20.3110 N.am  282  ASN282     -0.0877
     58  N        -14.5270   -4.4850   22.1890 N.3   285  LYS285     -0.1245
     59  CA       -14.6410   -5.6600   23.0470 C.3   285  LYS285      0.1561
     60  C        -13.8480   -6.7920   22.4570 C.2   285  LYS285      0.2260
     61  O        -12.9810   -7.3310   23.1240 O.2   285  LYS285     -0.2867
     62  CB       -16.0870   -6.1020   23.2220 C.3   285  LYS285      0.0271
     63  CG       -16.2250   -7.3180   24.1100 C.3   285  LYS285      0.0035
     64  CD       -17.6870   -7.6010   24.4190 C.3   285  LYS285      0.0206
     65  CE       -18.3210   -8.4980   23.3730 C.3   285  LYS285      0.1093
     66  NZ       -19.7860   -8.5390   23.5420 N.3   285  LYS285     -0.1314
     67  N        -10.4430   -8.4950   23.6430 N.3   289  ARG289     -0.1245
     68  CA       -10.5330   -9.8470   24.1780 C.3   289  ARG289      0.1563
     69  C         -9.7680  -10.8850   23.3570 C.2   289  ARG289      0.2260
     70  O         -9.7770  -12.0640   23.6990 O.2   289  ARG289     -0.2867
     71  CB       -11.9930  -10.2720   24.3400 C.3   289  ARG289      0.0307
     72  CG       -12.5610   -9.9840   25.7260 C.3   289  ARG289      0.0489
     73  CD       -14.0560  -10.3200   25.7750 C.3   289  ARG289      0.2205
     74  NE       -14.5580  -10.4570   27.1390 N.pl3 289  ARG289     -0.0865
     75  CZ       -15.7200  -11.0230   27.4580 C.cat 289  ARG289      0.5346
     76  NH1      -16.0900  -11.1090   28.7290 N.pl3 289  ARG289      0.1354
     77  NH2      -16.5030  -11.5240   26.5120 N.pl3 289  ARG289      0.1354
     78  N        -12.5480  -11.9320   30.6550 N.3   311  LEU311     -0.1231
     79  CA       -12.0580  -10.5900   30.9320 C.3   311  LEU311      0.1693
     80  C        -13.1380   -9.5650   30.6540 C.2   311  LEU311      0.2592
     81  O        -13.8900   -9.6810   29.6780 O.2   311  LEU311     -0.2718
     82  CB       -10.8020  -10.2840   30.1190 C.3   311  LEU311      0.0284
     83  CG        -9.5830  -11.1460   30.4180 C.3   311  LEU311      0.0019
     84  CD1       -8.6180  -11.0720   29.2660 C.3   311  LEU311      0.0001
     85  CD2       -8.9360  -10.6690   31.6950 C.3   311  LEU311      0.0001
     86  N        -13.2090   -8.5580   31.5170 N.am  312  LEU312     -0.1966
     87  CA       -14.2170   -7.5170   31.3710 C.3   312  LEU312      0.1728
     88  C        -13.4920   -6.2060   31.1180 C.2   312  LEU312      0.2616
     89  O        -12.7650   -5.7350   31.9830 O.2   312  LEU312     -0.2715
     90  CB       -15.0760   -7.4070   32.6450 C.3   312  LEU312      0.0311
     91  CG       -15.8790   -8.5880   33.2240 C.3   312  LEU312      0.0022
     92  CD1      -16.7430   -8.1270   34.3790 C.3   312  LEU312      0.0001
     93  CD2      -16.7290   -9.3220   32.2080 C.3   312  LEU312      0.0001
     94  N        -13.6270   -5.6460   29.9230 N.am  313  LEU313     -0.1977
     95  CA       -12.9770   -4.3690   29.6350 C.3   313  LEU313      0.1596
     96  C        -13.5770   -3.2640   30.4830 C.2   313  LEU313      0.2287
     97  O        -14.7990   -3.0770   30.4660 O.2   313  LEU313     -0.2864
     98  CB       -13.1470   -3.9920   28.1570 C.3   313  LEU313      0.0297
     99  CG       -12.2720   -2.8790   27.5600 C.3   313  LEU313      0.0022
    100  CD1      -10.8030   -3.1950   27.6120 C.3   313  LEU313      0.0001
    101  CD2      -12.7090   -2.6290   26.1300 C.3   313  LEU313      0.0001
    102  N        -16.7570    0.5810   26.9610 N.3   318  TRP318     -0.1241
    103  CA       -17.1670   -0.2420   28.0920 C.3   318  TRP318      0.1605
    104  C        -16.7660    0.3870   29.4300 C.2   318  TRP318      0.2264
    105  O        -17.2050   -0.0510   30.4930 O.2   318  TRP318     -0.2867
    106  CB       -16.5620   -1.6380   27.9640 C.3   318  TRP318      0.0550
    107  CG       -16.8750   -2.2790   26.6570 C.ar  318  TRP318      0.0003
    108  CD1      -16.1200   -2.2270   25.5300 C.ar  318  TRP318      0.0946
    109  CD2      -18.0430   -3.0360   26.3240 C.ar  318  TRP318      0.0152
    110  NE1      -16.7320   -2.9160   24.5170 N.ar  318  TRP318     -0.2442
    111  CE2      -17.9190   -3.4200   24.9760 C.ar  318  TRP318      0.0810
    112  CE3      -19.1830   -3.4270   27.0360 C.ar  318  TRP318      0.0012
    113  CZ2      -18.8830   -4.1830   24.3220 C.ar  318  TRP318      0.0191
    114  CZ3      -20.1500   -4.1830   26.3820 C.ar  318  TRP318      0.0001
    115  CH2      -19.9880   -4.5560   25.0410 C.ar  318  TRP318      0.0015
    116  N        -21.9410    0.6350   30.8340 N.3   322  ARG322     -0.1231
    117  CA       -22.0020   -0.7930   30.5800 C.3   322  ARG322      0.1694
    118  C        -22.6600   -1.1250   29.2230 C.2   322  ARG322      0.2592
    119  O        -22.4030   -2.1760   28.6330 O.2   322  ARG322     -0.2718
    120  CB       -22.7430   -1.4790   31.7150 C.3   322  ARG322      0.0321
    121  CG       -21.9370   -1.6020   32.9670 C.3   322  ARG322      0.0489
    122  CD       -22.6000   -2.5540   33.9310 C.3   322  ARG322      0.2205
    123  NE       -23.1960   -1.8570   35.0590 N.pl3 322  ARG322     -0.0865
    124  CZ       -24.4990   -1.7890   35.2530 C.cat 322  ARG322      0.5346
    125  NH1      -24.9950   -1.1570   36.3160 N.pl3 322  ARG322      0.1354
    126  NH2      -25.3010   -2.3600   34.3620 N.pl3 322  ARG322      0.1354
    127  N        -23.4850   -0.2280   28.7020 N.am  323  HIS323     -0.1976
    128  CA       -24.0700   -0.4890   27.3920 C.3   323  HIS323      0.1656
    129  C        -24.1160    0.7290   26.4750 C.2   323  HIS323      0.2291
    130  O        -25.1750    1.3050   26.2260 O.2   323  HIS323     -0.2864
    131  CB       -25.4350   -1.1600   27.5090 C.3   323  HIS323      0.0771
    132  CG       -25.3560   -2.6530   27.5990 C.ar  323  HIS323      0.0820
    133  ND1      -24.6010   -3.4090   26.7250 N.ar  323  HIS323     -0.2267
    134  CD2      -25.9580   -3.5330   28.4350 C.ar  323  HIS323      0.1154
    135  CE1      -24.7340   -4.6880   27.0250 C.ar  323  HIS323      0.1986
    136  NE2      -25.5540   -4.7920   28.0580 N.ar  323  HIS323     -0.2212
    137  N        -23.1320    0.4300   23.3730 N.3   325  ASN325     -0.1225
    138  CA       -23.6590   -0.1570   22.1360 C.3   325  ASN325      0.1785
    139  C        -25.1870   -0.0460   21.9610 C.2   325  ASN325      0.2597
    140  O        -25.6720    0.3140   20.8790 O.2   325  ASN325     -0.2718
    141  CB       -23.2340   -1.6190   22.0260 C.3   325  ASN325      0.1169
    142  CG       -23.6510   -2.4250   23.2270 C.2   325  ASN325      0.2627
    143  OD1      -23.8140   -1.8830   24.3210 O.2   325  ASN325     -0.2716
    144  ND2      -23.8270   -3.7260   23.0380 N.am  325  ASN325     -0.0877
    145  N        -25.9440   -0.3420   23.0140 N.am  326  TYR326     -0.1976
    146  CA       -27.3870   -0.1920   22.9490 C.3   326  TYR326      0.1639
    147  C        -27.7060    1.2400   22.6040 C.2   326  TYR326      0.2290
    148  O        -28.5730    1.5000   21.7840 O.2   326  TYR326     -0.2864
    149  CB       -28.0330   -0.5690   24.2700 C.3   326  TYR326      0.0560
    150  CG       -27.9930   -2.0550   24.5130 C.ar  326  TYR326     -0.0198
    151  CD1      -27.5770   -2.9210   23.5110 C.ar  326  TYR326     -0.0009
    152  CD2      -28.3710   -2.5980   25.7320 C.ar  326  TYR326     -0.0009
    153  CE1      -27.5380   -4.2840   23.7130 C.ar  326  TYR326      0.0417
    154  CE2      -28.3330   -3.9650   25.9420 C.ar  326  TYR326      0.0417
    155  CZ       -27.9160   -4.7990   24.9250 C.ar  326  TYR326      0.1957
    156  OH       -27.8640   -6.1590   25.1160 O.3   326  TYR326     -0.2866
    157  N        -33.9330   -5.6540   27.3630 N.3   361  ARG361     -0.1245
    158  CA       -32.7440   -6.4300   27.0090 C.3   361  ARG361      0.1563
    159  C        -31.6480   -6.1510   28.0170 C.2   361  ARG361      0.2260
    160  O        -31.0270   -7.0940   28.5340 O.2   361  ARG361     -0.2867
    161  CB       -32.2690   -6.0880   25.6100 C.3   361  ARG361      0.0307
    162  CG       -31.7720   -7.2610   24.7940 C.3   361  ARG361      0.0489
    163  CD       -31.9610   -6.8800   23.3320 C.3   361  ARG361      0.2205
    164  NE       -30.9860   -7.4470   22.4110 N.pl3 361  ARG361     -0.0865
    165  CZ       -30.8850   -7.0810   21.1380 C.cat 361  ARG361      0.5346
    166  NH1      -31.6900   -6.1410   20.6540 N.pl3 361  ARG361      0.1354
    167  NH2      -29.9790   -7.6450   20.3500 N.pl3 361  ARG361      0.1354
    168  N        -29.6430   -8.8870   30.3250 N.3   365  ASP365     -0.1239
    169  CA       -28.2120   -9.1180   30.1970 C.3   365  ASP365      0.1674
    170  C        -27.5340   -8.8670   31.5260 C.2   365  ASP365      0.2266
    171  O        -26.7050   -9.6800   31.9690 O.2   365  ASP365     -0.2867
    172  CB       -27.6410   -8.2170   29.1080 C.3   365  ASP365      0.1410
    173  CG       -26.1330   -8.2450   29.0480 C.2   365  ASP365      0.3668
    174  OD1      -25.5270   -9.3210   29.2330 O.co2 365  ASP365     -0.2456
    175  OD2      -25.5520   -7.1630   28.8160 O.co2 365  ASP365     -0.2456
    176  N        -28.0000  -11.7740   33.6860 N.3   368  MET368     -0.1230
    177  CA       -27.2710  -12.9370   33.1980 C.3   368  MET368      0.1702
    178  C        -25.8230  -12.8990   33.6850 C.2   368  MET368      0.2592
    179  O        -25.3110  -13.8820   34.2490 O.2   368  MET368     -0.2718
    180  CB       -27.3450  -13.0420   31.6690 C.3   368  MET368      0.0401
    181  CG       -27.5070  -14.4720   31.1560 C.3   368  MET368      0.0596
    182  SD       -28.8580  -15.3550   31.9850 S.3   368  MET368     -0.1393
    183  CE       -28.2860  -17.0580   31.8960 C.3   368  MET368      0.0692
    184  N        -25.1960  -11.7340   33.5410 N.am  369  CYS369     -0.1970
    185  CA       -23.7930  -11.6050   33.8910 C.3   369  CYS369      0.1712
    186  C        -23.5640  -11.5260   35.3820 C.2   369  CYS369      0.2296
    187  O        -22.4230  -11.6200   35.8460 O.2   369  CYS369     -0.2864
    188  CB       -23.1670  -10.4190   33.1800 C.3   369  CYS369      0.0983
    189  SG       -23.0290  -10.7360   31.3960 S.3   369  CYS369     -0.0798
    190  N        -23.4240  -15.2370   36.1410 N.3   372  LYS372     -0.1231
    191  CA       -22.1800  -15.8010   35.6330 C.3   372  LYS372      0.1693
    192  C        -20.9060  -15.2630   36.3080 C.2   372  LYS372      0.2592
    193  O        -19.9900  -16.0290   36.6000 O.2   372  LYS372     -0.2718
    194  CB       -22.0880  -15.6170   34.1170 C.3   372  LYS372      0.0285
    195  CG       -21.5930  -16.8420   33.3630 C.3   372  LYS372      0.0035
    196  CD       -21.0900  -16.4570   31.9860 C.3   372  LYS372      0.0206
    197  CE       -19.7340  -15.7690   32.0910 C.3   372  LYS372      0.1093
    198  NZ       -19.0130  -15.7560   30.7820 N.3   372  LYS372     -0.1314
    199  N        -20.8320  -13.9520   36.5280 N.am  373  TYR373     -0.1976
    200  CA       -19.5950  -13.3200   37.0140 C.3   373  TYR373      0.1639
    201  C        -19.5770  -12.9660   38.5030 C.2   373  TYR373      0.2290
    202  O        -18.5440  -12.5290   39.0310 O.2   373  TYR373     -0.2864
    203  CB       -19.2880  -12.0640   36.2050 C.3   373  TYR373      0.0560
    204  CG       -18.8450  -12.3330   34.7870 C.ar  373  TYR373     -0.0198
    205  CD1      -17.7230  -13.1060   34.5270 C.ar  373  TYR373     -0.0009
    206  CD2      -19.5490  -11.8140   33.7100 C.ar  373  TYR373     -0.0009
    207  CE1      -17.3060  -13.3500   33.2370 C.ar  373  TYR373      0.0417
    208  CE2      -19.1450  -12.0550   32.4130 C.ar  373  TYR373      0.0417
    209  CZ       -18.0200  -12.8230   32.1810 C.ar  373  TYR373      0.1957
    210  OH       -17.6090  -13.0720   30.8900 O.3   373  TYR373     -0.2866
    211  N        -18.5860   -9.1930   38.4850 N.3   377  TRP377     -0.1241
    212  CA       -19.5910   -8.3230   37.8880 C.3   377  TRP377      0.1605
    213  C        -19.9340   -7.1720   38.8130 C.2   377  TRP377      0.2264
    214  O        -20.0300   -6.0270   38.3730 O.2   377  TRP377     -0.2867
    215  CB       -20.8750   -9.0770   37.5320 C.3   377  TRP377      0.0550
    216  CG       -21.7590   -8.3060   36.5790 C.ar  377  TRP377      0.0003
    217  CD1      -23.0390   -7.8760   36.8010 C.ar  377  TRP377      0.0946
    218  CD2      -21.4130   -7.8620   35.2550 C.ar  377  TRP377      0.0152
    219  NE1      -23.5130   -7.2080   35.6920 N.ar  377  TRP377     -0.2442
    220  CE2      -22.5350   -7.1890   34.7310 C.ar  377  TRP377      0.0810
    221  CE3      -20.2660   -7.9840   34.4580 C.ar  377  TRP377      0.0012
    222  CZ2      -22.5420   -6.6300   33.4480 C.ar  377  TRP377      0.0191
    223  CZ3      -20.2810   -7.4360   33.1790 C.ar  377  TRP377      0.0001
    224  CH2      -21.4120   -6.7630   32.6900 C.ar  377  TRP377      0.0015
    225  N        -17.3730   -4.7860   38.6900 N.3   380  TYR380     -0.1241
    226  CA       -17.5650   -4.0810   37.4340 C.3   380  TYR380      0.1605
    227  C        -18.6710   -3.0390   37.5140 C.2   380  TYR380      0.2264
    228  O        -18.5320   -1.9220   37.0170 O.2   380  TYR380     -0.2867
    229  CB       -17.9030   -5.0610   36.3240 C.3   380  TYR380      0.0534
    230  CG       -18.0690   -4.3880   34.9910 C.ar  380  TYR380     -0.0201
    231  CD1      -17.0620   -3.5990   34.4690 C.ar  380  TYR380     -0.0009
    232  CD2      -19.2290   -4.5390   34.2580 C.ar  380  TYR380     -0.0009
    233  CE1      -17.2000   -2.9790   33.2400 C.ar  380  TYR380      0.0417
    234  CE2      -19.3810   -3.9270   33.0150 C.ar  380  TYR380      0.0417
    235  CZ       -18.3600   -3.1450   32.5190 C.ar  380  TYR380      0.1957
    236  OH       -18.4900   -2.5300   31.3110 O.3   380  TYR380     -0.2866
@<TRIPOS>BOND
     1    12    10    1
     2     1     2    1
     3    11    10    1
     4    10     7    1
     5     6     7    1
     6     6     3   am
     7     5     2    1
     8     2     3    1
     9     7     8    1
    10     3     4    2
    11     8     9    2
    12    54    55    1
    13    54    51    1
    14    26    24    1
    15    52    51    1
    16    52    53    2
    17    13    14    1
    18    56    55    2
    19    55    57   am
    20    51    50    1
    21    19    17    1
    22    24    25    1
    23    24    21    1
    24   167   165    1
    25    20    21    1
    26    20    15   am
    27    14    17    1
    28    14    15    1
    29   166   165    1
    30    18    17    1
    31   140   139    2
    32    21    22    1
    33   165   164    2
    34    15    16    2
    35    41    42    1
    36    23    22    2
    37   148   147    2
    38    22    27   am
    39   139   138    1
    40   139   145   am
    41   141   138    1
    42   141   142    1
    43   138   137    1
    44    58    59    1
    45   164   163    1
    46    60    59    1
    47    60    61    2
    48   147   146    1
    49    42    45    1
    50    42    43    1
    51    27    28    1
    52    29    30    2
    53    29    28    1
    54    46    45    1
    55    46    47    1
    56   146   145    1
    57   146   149    1
    58   144   142   am
    59    59    62    1
    60    62    63    1
    61   142   143    2
    62   163   162    1
    63    69    70    2
    64    69    68    1
    65    65    66    1
    66    65    64    1
    67   151   153   ar
    68   151   150   ar
    69    28    31    1
    70    43    44    2
    71    67    68    1
    72   153   155   ar
    73    47    48    1
    74    63    64    1
    75    68    71    1
    76   149   150    1
    77   113   111   ar
    78   113   115   ar
    79    71    72    1
    80    31    32    1
    81   150   152   ar
    82   110   111   ar
    83   110   108   ar
    84    48    49    1
    85   162   161    1
    86   155   156    1
    87   155   154   ar
    88   111   109   ar
    89    37    39   ar
    90    37    34   ar
    91   115   114   ar
    92    32    34   ar
    93    32    33   ar
    94    39    40   ar
    95   108   107   ar
    96   161   158    1
    97    34    36   ar
    98    72    73    1
    99   152   154   ar
   100    73    74    1
   101   101    99    1
   102   130   129    2
   103   109   107   ar
   104   109   112   ar
   105   114   112   ar
   106    33    35   ar
   107   129   128    1
   108    77    75    1
   109    40    38   ar
   110   107   106    1
   111   133   135   ar
   112   133   132   ar
   113    36    35   ar
   114    36    38   ar
   115   102   103    1
   116   158   157    1
   117   158   159    1
   118   135   136   ar
   119    74    75    2
   120   128   131    1
   121   128   127    1
   122    75    76    1
   123   131   132    1
   124    99   100    1
   125    99    98    1
   126   132   134   ar
   127   106   103    1
   128   159   160    2
   129   136   134   ar
   130   103   104    1
   131    98    95    1
   132   119   118    2
   133   127   118   am
   134   175   173   ar
   135   173   172    1
   136   173   174   ar
   137   172   169    1
   138   118   117    1
   139    84    83    1
   140   104   105    2
   141    95    94    1
   142    95    96    1
   143    81    80    2
   144    94    88   am
   145    82    83    1
   146    82    79    1
   147   169   168    1
   148   169   170    1
   149    83    85    1
   150    97    96    2
   151   117   116    1
   152   117   120    1
   153    80    79    1
   154    80    86   am
   155    78    79    1
   156   198   197    1
   157   210   209    1
   158    88    87    1
   159    88    89    2
   160   181   180    1
   161   181   182    1
   162   236   235    1
   163    87    86    1
   164    87    90    1
   165   189   188    1
   166   170   171    2
   167   180   177    1
   168   120   121    1
   169   183   182    1
   170   196   197    1
   171   196   195    1
   172   209   208   ar
   173   209   207   ar
   174    93    91    1
   175   208   206   ar
   176   235   234   ar
   177   235   233   ar
   178    90    91    1
   179   224   223   ar
   180   224   222   ar
   181   121   122    1
   182   234   232   ar
   183   223   221   ar
   184   188   185    1
   185   177   178    1
   186   177   176    1
   187    91    92    1
   188   207   205   ar
   189   233   231   ar
   190   195   194    1
   191   222   220   ar
   192   184   178   am
   193   184   185    1
   194   178   179    2
   195   206   204   ar
   196   185   186    1
   197   122   123    1
   198   194   191    1
   199   232   230   ar
   200   126   124    1
   201   221   218   ar
   202   231   230   ar
   203   205   204   ar
   204   220   218   ar
   205   220   219   ar
   206   204   203    1
   207   230   229    1
   208   123   124    2
   209   124   125    1
   210   218   216   ar
   211   186   187    2
   212   191   190    1
   213   191   192    1
   214   219   217   ar
   215   203   200    1
   216   192   199   am
   217   192   193    2
   218   229   226    1
   219   199   200    1
   220   216   217   ar
   221   216   215    1
   222   200   201    1
   223   228   227    2
   224   226   227    1
   225   226   225    1
   226   215   212    1
   227   212   211    1
   228   212   213    1
   229   214   213    2
   230   201   202    2
