@<TRIPOS>MOLECULE
tmp/4quwA00.pdb
 217 205 0 0 0
SMALL
GASTEIGER

@<TRIPOS>ATOM
      1  N          3.4090   14.3670    6.5890 N.3    13  TYR13      -0.1241
      2  CA         2.5600   15.1970    5.7590 C.3    13  TYR13       0.1605
      3  C          1.8520   14.3860    4.6770 C.2    13  TYR13       0.2264
      4  O          0.7220   14.7170    4.2840 O.2    13  TYR13      -0.2867
      5  CB         3.3290   16.3280    5.1130 C.3    13  TYR13       0.0534
      6  CG         2.4460   17.5270    4.7850 C.ar   13  TYR13      -0.0201
      7  CD1        2.2450   18.5400    5.7260 C.ar   13  TYR13      -0.0009
      8  CD2        1.8420   17.6620    3.5330 C.ar   13  TYR13      -0.0009
      9  CE1        1.4730   19.6440    5.4380 C.ar   13  TYR13       0.0417
     10  CE2        1.0590   18.7590    3.2300 C.ar   13  TYR13       0.0417
     11  CZ         0.8420   19.7340    4.1940 C.ar   13  TYR13       0.1957
     12  OH         0.0630   20.8260    3.9300 O.3    13  TYR13      -0.2866
     13  N         -1.2730   13.0200    6.6640 N.3    16  ILE16      -0.1231
     14  CA        -2.1690   14.1120    7.0790 C.3    16  ILE16       0.1692
     15  C         -2.8200   14.8180    5.8960 C.2    16  ILE16       0.2592
     16  O         -4.0410   15.0000    5.8640 O.2    16  ILE16      -0.2718
     17  CB        -1.4280   15.1550    7.9190 C.3    16  ILE16       0.0266
     18  CG1       -0.8590   14.5030    9.1790 C.3    16  ILE16       0.0019
     19  CG2       -2.3210   16.3460    8.2490 C.3    16  ILE16       0.0020
     20  CD1       -1.9130   14.1080   10.1410 C.3    16  ILE16       0.0001
     21  N         -2.0240   15.2210    4.9180 N.am   17  ASN17      -0.1974
     22  CA        -2.5740   15.9160    3.7450 C.3    17  ASN17       0.1688
     23  C         -3.5360   15.0160    2.9860 C.2    17  ASN17       0.2292
     24  O         -4.5600   15.4870    2.4500 O.2    17  ASN17      -0.2864
     25  CB        -1.4310   16.4110    2.8410 C.3    17  ASN17       0.1181
     26  CG        -1.9190   17.1480    1.6170 C.2    17  ASN17       0.2629
     27  OD1       -1.5450   16.8130    0.4880 O.2    17  ASN17      -0.2716
     28  ND2       -2.7690   18.1380    1.8260 N.am   17  ASN17      -0.0877
     29  N         -5.4360   12.6090    4.2820 N.3    19  ILE19      -0.1231
     30  CA        -6.6400   12.6100    5.1010 C.3    19  ILE19       0.1692
     31  C         -7.5540   13.7850    4.7520 C.2    19  ILE19       0.2591
     32  O         -8.7410   13.5950    4.5140 O.2    19  ILE19      -0.2718
     33  CB        -6.2880   12.5890    6.6070 C.3    19  ILE19       0.0266
     34  CG1       -5.8280   11.1670    6.9830 C.3    19  ILE19       0.0019
     35  CG2       -7.4790   13.0100    7.4500 C.3    19  ILE19       0.0020
     36  CD1       -5.1740   11.0980    8.3470 C.3    19  ILE19       0.0001
     37  N         -6.9860   14.9890    4.6710 N.am   20  VAL20      -0.1980
     38  CA        -7.7910   16.1600    4.3690 C.3    20  VAL20       0.1595
     39  C         -8.3440   16.1130    2.9450 C.2    20  VAL20       0.2287
     40  O         -9.5460   16.3850    2.7290 O.2    20  VAL20      -0.2864
     41  CB        -7.0030   17.4610    4.6120 C.3    20  VAL20       0.0276
     42  CG1       -7.8870   18.6260    4.3440 C.3    20  VAL20       0.0022
     43  CG2       -6.5860   17.5300    6.0540 C.3    20  VAL20       0.0022
     44  N        -11.1100   13.5180    3.0190 N.3    23  GLY23      -0.1210
     45  CA       -12.2320   14.0600    3.7700 C.3    23  GLY23       0.1956
     46  C        -13.0180   15.0420    2.9210 C.2    23  GLY23       0.2611
     47  O        -14.2530   15.0220    2.9130 O.2    23  GLY23      -0.2717
     48  N        -12.3050   15.9150    2.1970 N.am   24  GLU24      -0.1979
     49  CA       -12.9950   16.8650    1.2990 C.3    24  GLU24       0.1602
     50  C        -13.7070   16.1580    0.1490 C.2    24  GLU24       0.2287
     51  O        -14.8450   16.4860   -0.1640 O.2    24  GLU24      -0.2864
     52  CB       -12.0500   17.9620    0.7950 C.3    24  GLU24       0.0415
     53  CG       -11.5490   18.9500    1.8550 C.3    24  GLU24       0.1163
     54  CD       -12.6510   19.8630    2.4050 C.2    24  GLU24       0.3649
     55  OE1      -13.8640   19.6220    2.1310 O.co2  24  GLU24      -0.2457
     56  OE2      -12.3040   20.8370    3.1020 O.co2  24  GLU24      -0.2457
     57  N        -16.8130   14.6330    1.5400 N.3    27  ALA27      -0.1245
     58  CA       -17.7430   15.7220    1.8400 C.3    27  ALA27       0.1562
     59  C        -18.4750   16.1280    0.5770 C.2    27  ALA27       0.2260
     60  O        -19.6890   16.3480    0.5940 O.2    27  ALA27      -0.2867
     61  CB       -17.0030   16.9110    2.4210 C.3    27  ALA27       0.0290
     62  N        -16.4410   22.2760   -1.2440 N.3    52  GLU52      -0.1245
     63  CA       -15.4980   21.3230   -0.6400 C.3    52  GLU52       0.1567
     64  C        -14.5470   20.7750   -1.6830 C.2    52  GLU52       0.2260
     65  O        -13.4090   20.3950   -1.3750 O.2    52  GLU52      -0.2867
     66  CB       -16.2320   20.1740    0.1010 C.3    52  GLU52       0.0388
     67  CG       -17.1810   20.5870    1.2200 C.3    52  GLU52       0.1160
     68  CD       -16.6110   21.6420    2.1790 C.2    52  GLU52       0.3649
     69  OE1      -15.4330   21.5370    2.5800 O.co2  52  GLU52      -0.2457
     70  OE2      -17.3470   22.6050    2.5340 O.co2  52  GLU52      -0.2457
     71  N         -5.9600   21.9050   -0.9650 N.3    59  PHE59      -0.1241
     72  CA        -5.1040   21.0540   -0.1280 C.3    59  PHE59       0.1605
     73  C         -4.1820   20.1890   -0.9810 C.2    59  PHE59       0.2264
     74  O         -3.0430   19.9240   -0.6000 O.2    59  PHE59      -0.2867
     75  CB        -5.9300   20.1990    0.8650 C.3    59  PHE59       0.0534
     76  CG        -6.6830   21.0190    1.8940 C.ar   59  PHE59      -0.0203
     77  CD1       -6.0190   21.8890    2.7560 C.ar   59  PHE59      -0.0042
     78  CD2       -8.0680   20.9190    1.9940 C.ar   59  PHE59      -0.0042
     79  CE1       -6.7240   22.6600    3.6810 C.ar   59  PHE59      -0.0003
     80  CE2       -8.7800   21.6510    2.9380 C.ar   59  PHE59      -0.0003
     81  CZ        -8.1030   22.5120    3.7930 C.ar   59  PHE59      -0.0000
     82  N         -1.4540   22.1940   -1.6390 N.3    62  CYS62      -0.1235
     83  CA        -0.5820   22.2910   -0.4750 C.3    62  CYS62       0.1677
     84  C          0.4320   21.1810   -0.5330 C.2    62  CYS62       0.2270
     85  O          1.5810   21.3680   -0.1430 O.2    62  CYS62      -0.2867
     86  CB        -1.3800   22.2560    0.8410 C.3    62  CYS62       0.0956
     87  SG        -2.3350   23.7650    1.1780 S.3    62  CYS62      -0.0801
     88  N         -8.6510    5.3780    6.5090 N.3    78  PHE78      -0.1227
     89  CA        -8.8360    6.1850    7.7190 C.3    78  PHE78       0.1736
     90  C        -10.3040    6.5800    7.8480 C.2    78  PHE78       0.2595
     91  O        -10.8710    6.5700    8.9360 O.2    78  PHE78      -0.2718
     92  CB        -7.9390    7.4090    7.5980 C.3    78  PHE78       0.0547
     93  CG        -7.9930    8.3600    8.7600 C.ar   78  PHE78      -0.0202
     94  CD1       -7.2300    8.1220    9.9080 C.ar   78  PHE78      -0.0042
     95  CD2       -8.7610    9.5230    8.6990 C.ar   78  PHE78      -0.0042
     96  CE1       -7.2240    9.0250   10.9670 C.ar   78  PHE78      -0.0003
     97  CE2       -8.7750   10.4350    9.7690 C.ar   78  PHE78      -0.0003
     98  CZ        -7.9880   10.1980   10.8990 C.ar   78  PHE78      -0.0000
     99  N        -10.9410    6.8850    6.7200 N.am   79  PHE79      -0.1976
    100  CA       -12.3350    7.2940    6.7500 C.3    79  PHE79       0.1639
    101  C        -13.3440    6.1540    6.5740 C.2    79  PHE79       0.2290
    102  O        -14.5590    6.4050    6.6380 O.2    79  PHE79      -0.2864
    103  CB       -12.5900    8.3360    5.6670 C.3    79  PHE79       0.0560
    104  CG       -12.2050    9.7350    6.0590 C.ar   79  PHE79      -0.0200
    105  CD1      -13.0540   10.5070    6.8540 C.ar   79  PHE79      -0.0042
    106  CD2      -11.0250   10.2990    5.6110 C.ar   79  PHE79      -0.0042
    107  CE1      -12.7050   11.8040    7.2290 C.ar   79  PHE79      -0.0003
    108  CE2      -10.6740   11.6160    5.9860 C.ar   79  PHE79      -0.0003
    109  CZ       -11.5090   12.3650    6.7890 C.ar   79  PHE79      -0.0000
    110  N        -21.6950   13.9860    8.6610 N.3   102  GLN102     -0.1245
    111  CA       -21.0180   14.9640    7.8120 C.3   102  GLN102      0.1566
    112  C        -21.0710   16.3680    8.3900 C.2   102  GLN102      0.2260
    113  O        -20.0310   16.9890    8.5900 O.2   102  GLN102     -0.2867
    114  CB       -21.5660   14.9360    6.3700 C.3   102  GLN102      0.0367
    115  CG       -21.0260   16.0710    5.4930 C.3   102  GLN102      0.0905
    116  CD       -19.5360   15.9780    5.2390 C.2   102  GLN102      0.2608
    117  OE1      -18.9900   14.8850    5.0130 O.2   102  GLN102     -0.2717
    118  NE2      -18.8470   17.1290    5.3030 N.am  102  GLN102     -0.0878
    119  N        -17.7300   15.1410   11.1500 N.3   106  ILE106     -0.1231
    120  CA       -16.6690   15.3870   10.1690 C.3   106  ILE106      0.1692
    121  C        -16.2540   16.8590   10.1520 C.2   106  ILE106      0.2591
    122  O        -15.0610   17.1740   10.2480 O.2   106  ILE106     -0.2718
    123  CB       -17.1130   14.9590    8.7620 C.3   106  ILE106      0.0266
    124  CG1      -17.2220   13.4290    8.6920 C.3   106  ILE106      0.0019
    125  CG2      -16.1560   15.4800    7.7170 C.3   106  ILE106      0.0020
    126  CD1      -15.9220   12.7330    8.4300 C.3   106  ILE106      0.0001
    127  N        -17.2340   17.7530   10.0450 N.am  107  GLU107     -0.1979
    128  CA       -16.9520   19.1990    9.9230 C.3   107  GLU107      0.1602
    129  C        -16.4400   19.8400   11.2300 C.2   107  GLU107      0.2287
    130  O        -15.7010   20.8130   11.1980 O.2   107  GLU107     -0.2864
    131  CB       -18.1910   19.9240    9.3760 C.3   107  GLU107      0.0415
    132  CG       -18.2780   19.8350    7.8660 C.3   107  GLU107      0.1163
    133  CD       -19.6220   20.2020    7.2740 C.2   107  GLU107      0.3649
    134  OE1      -20.3510   20.9760    7.8920 O.co2 107  GLU107     -0.2457
    135  OE2      -19.9550   19.6880    6.1840 O.co2 107  GLU107     -0.2457
    136  N        -14.4700   18.0730   13.2810 N.3   109  PHE109     -0.1227
    137  CA       -13.1160   17.5220   13.2630 C.3   109  PHE109      0.1736
    138  C        -12.2090   18.3920   12.3800 C.2   109  PHE109      0.2595
    139  O        -11.0660   18.7040   12.7510 O.2   109  PHE109     -0.2718
    140  CB       -13.1960   16.1110   12.6630 C.3   109  PHE109      0.0547
    141  CG       -11.9930   15.2430   12.9260 C.ar  109  PHE109     -0.0202
    142  CD1      -11.1330   15.5000   13.9980 C.ar  109  PHE109     -0.0042
    143  CD2      -11.7240   14.1500   12.1040 C.ar  109  PHE109     -0.0042
    144  CE1      -10.0280   14.6820   14.2430 C.ar  109  PHE109     -0.0003
    145  CE2      -10.6150   13.3310   12.3480 C.ar  109  PHE109     -0.0003
    146  CZ        -9.7830   13.5790   13.4230 C.ar  109  PHE109     -0.0000
    147  N        -12.7250   18.8120   11.2230 N.am  110  ALA110     -0.1980
    148  CA       -11.9710   19.6290   10.2850 C.3   110  ALA110      0.1597
    149  C        -11.7110   21.0420   10.7790 C.2   110  ALA110      0.2287
    150  O        -10.5710   21.5430   10.7250 O.2   110  ALA110     -0.2864
    151  CB       -12.6700   19.6490    8.8940 C.3   110  ALA110      0.0319
    152  N         -9.0620   20.7950   13.2500 N.3   113  ALA113     -0.1231
    153  CA        -7.7500   20.5480   12.6390 C.3   113  ALA113      0.1694
    154  C         -7.1760   21.8010   11.9790 C.2   113  ALA113      0.2592
    155  O         -5.9930   22.1190   12.1440 O.2   113  ALA113     -0.2718
    156  CB        -7.8440   19.4220   11.6280 C.3   113  ALA113      0.0304
    157  N         -8.0190   22.5020   11.2190 N.am  114  TYR114     -0.1976
    158  CA        -7.5930   23.7120   10.4920 C.3   114  TYR114      0.1639
    159  C         -7.0510   24.7980   11.4430 C.2   114  TYR114      0.2290
    160  O         -5.9950   25.3970   11.1740 O.2   114  TYR114     -0.2864
    161  CB        -8.7330   24.2560    9.6110 C.3   114  TYR114      0.0560
    162  CG        -9.2210   23.2640    8.5480 C.ar  114  TYR114     -0.0198
    163  CD1       -8.4310   22.1740    8.1380 C.ar  114  TYR114     -0.0009
    164  CD2      -10.4710   23.4110    7.9610 C.ar  114  TYR114     -0.0009
    165  CE1       -8.8950   21.2580    7.1860 C.ar  114  TYR114      0.0417
    166  CE2      -10.9330   22.5060    6.9920 C.ar  114  TYR114      0.0417
    167  CZ       -10.1440   21.4440    6.6320 C.ar  114  TYR114      0.1957
    168  OH       -10.6020   20.5750    5.7040 O.3   114  TYR114     -0.2866
    169  N         -3.7730   23.7780   12.7850 N.3   117  TYR117     -0.1241
    170  CA        -2.7650   23.7020   11.7080 C.3   117  TYR117      0.1605
    171  C         -2.1600   25.0480   11.3030 C.2   117  TYR117      0.2264
    172  O         -0.9340   25.1830   11.2110 O.2   117  TYR117     -0.2867
    173  CB        -3.3470   23.0210   10.4720 C.3   117  TYR117      0.0534
    174  CG        -2.4170   22.9590    9.2910 C.ar  117  TYR117     -0.0201
    175  CD1       -1.1470   22.3550    9.4030 C.ar  117  TYR117     -0.0009
    176  CD2       -2.7960   23.4600    8.0530 C.ar  117  TYR117     -0.0009
    177  CE1       -0.2860   22.2740    8.3060 C.ar  117  TYR117      0.0417
    178  CE2       -1.9470   23.3780    6.9630 C.ar  117  TYR117      0.0417
    179  CZ        -0.7060   22.7770    7.0880 C.ar  117  TYR117      0.1957
    180  OH         0.1200   22.7140    5.9940 O.3   117  TYR117     -0.2866
    181  N        -15.9150   28.4520    5.5820 N.3   136  GLU136     -0.1245
    182  CA       -16.7680   27.7200    6.5220 C.3   136  GLU136      0.1567
    183  C        -17.5470   28.6060    7.4860 C.2   136  GLU136      0.2260
    184  O        -18.6660   28.2710    7.8660 O.2   136  GLU136     -0.2867
    185  CB       -15.9530   26.6890    7.3200 C.3   136  GLU136      0.0388
    186  CG       -15.1790   25.7030    6.4400 C.3   136  GLU136      0.1160
    187  CD       -16.0480   24.9750    5.4200 C.2   136  GLU136      0.3649
    188  OE1      -17.2330   24.7500    5.7110 O.co2 136  GLU136     -0.2457
    189  OE2      -15.5510   24.6040    4.3400 O.co2 136  GLU136     -0.2457
    190  N         -4.2110    9.7300   14.1710 N.3   176  VAL176     -0.1245
    191  CA        -3.6320   10.8910   13.4960 C.3   176  VAL176      0.1561
    192  C         -2.5920   11.5630   14.4100 C.2   176  VAL176      0.2260
    193  O         -1.8730   12.4600   13.9990 O.2   176  VAL176     -0.2867
    194  CB        -4.7530   11.8820   13.1000 C.3   176  VAL176      0.0252
    195  CG1       -5.1540   12.8280   14.2450 C.3   176  VAL176      0.0019
    196  CG2       -4.3560   12.6830   11.8950 C.3   176  VAL176      0.0019
    197  N          0.4910   14.1530   13.3830 N.3   180  ALA180     -0.1245
    198  CA         0.0960   15.5480   13.6210 C.3   180  ALA180      0.1562
    199  C          1.0970   16.2430   14.5220 C.2   180  ALA180      0.2260
    200  O          1.3750   17.4420   14.3390 O.2   180  ALA180     -0.2867
    201  CB        -1.2970   15.6380   14.2240 C.3   180  ALA180      0.0290
    202  N          1.2240   19.8920   15.4570 N.3   185  MET185     -0.1245
    203  CA        -0.1620   19.9880   15.9620 C.3   185  MET185      0.1570
    204  C         -0.3540   19.0920   17.1800 C.2   185  MET185      0.2261
    205  O         -0.2980   17.8610   17.0680 O.2   185  MET185     -0.2867
    206  CB        -1.1840   19.5980   14.8920 C.3   185  MET185      0.0387
    207  CG        -1.2010   20.5320   13.7010 C.3   185  MET185      0.0595
    208  SD        -1.8930   19.7210   12.2740 S.3   185  MET185     -0.1393
    209  CE        -3.6140   20.0740   12.5970 C.3   185  MET185      0.0692
    210  N         -6.2170   19.2490   19.6440 N.3   190  LEU190     -0.1245
    211  CA        -7.1860   18.7690   18.6450 C.3   190  LEU190      0.1561
    212  C         -8.4310   18.2020   19.3060 C.2   190  LEU190      0.2260
    213  O         -9.5480   18.4740   18.8760 O.2   190  LEU190     -0.2867
    214  CB        -6.5680   17.6970   17.7640 C.3   190  LEU190      0.0270
    215  CG        -5.5060   18.0460   16.7180 C.3   190  LEU190      0.0019
    216  CD1       -4.7880   16.7500   16.3030 C.3   190  LEU190      0.0001
    217  CD2       -6.1300   18.7380   15.5070 C.3   190  LEU190      0.0001
@<TRIPOS>BOND
     1    64    65    2
     2    64    63    1
     3    82    83    1
     4    62    63    1
     5    73    74    2
     6    73    72    1
     7    71    72    1
     8    63    66    1
     9    84    83    1
    10    84    85    2
    11    83    86    1
    12    51    50    2
    13    72    75    1
    14    66    67    1
    15    50    49    1
    16    27    26    2
    17    59    60    2
    18    59    58    1
    19    52    49    1
    20    52    53    1
    21    86    87    1
    22    75    76    1
    23    67    68    1
    24    49    48    1
    25    57    58    1
    26    26    28   am
    27    26    25    1
    28    58    61    1
    29    53    54    1
    30    76    78   ar
    31    76    77   ar
    32    78    80   ar
    33    55    54   ar
    34    68    70   ar
    35    68    69   ar
    36    48    46   am
    37    54    56   ar
    38    24    23    2
    39    40    39    2
    40    77    79   ar
    41    25    22    1
    42    47    46    2
    43    46    45    1
    44    80    81   ar
    45    39    38    1
    46    23    22    1
    47    44    45    1
    48    10     8   ar
    49    10    11   ar
    50     8     6   ar
    51    79    81   ar
    52    22    21    1
    53    12    11    1
    54    11     9   ar
    55    29    30    1
    56     4     3    2
    57   189   187   ar
    58    42    41    1
    59    38    41    1
    60    38    37    1
    61    32    31    2
    62    41    43    1
    63    37    31   am
    64     3     2    1
    65    31    30    1
    66     6     5    1
    67     6     7   ar
    68    21    15   am
    69   117   116    2
    70    30    33    1
    71     5     2    1
    72   116   118   am
    73   116   115    1
    74   187   188   ar
    75   187   186    1
    76     9     7   ar
    77   115   114    1
    78   181   182    1
    79   106   108   ar
    80   106   104   ar
    81   103   104    1
    82   103   100    1
    83   168   167    1
    84     2     1    1
    85    16    15    2
    86    15    14    1
    87   108   109   ar
    88   180   179    1
    89   104   105   ar
    90   135   133   ar
    91   114   111    1
    92   186   185    1
    93    88    89    1
    94   182   185    1
    95   182   183    1
    96   101   102    2
    97   101   100    1
    98    33    34    1
    99    33    35    1
   100   167   166   ar
   101   167   165   ar
   102    13    14    1
   103    99   100    1
   104    99    90   am
   105   109   107   ar
   106   105   107   ar
   107   178   179   ar
   108   178   176   ar
   109    34    36    1
   110   166   164   ar
   111    14    17    1
   112   179   177   ar
   113   165   163   ar
   114   133   132    1
   115   133   134   ar
   116   183   184    2
   117    92    89    1
   118    92    93    1
   119   125   123    1
   120    89    90    1
   121   111   112    1
   122   111   110    1
   123    90    91    2
   124   132   131    1
   125    17    19    1
   126    17    18    1
   127   164   162   ar
   128   176   174   ar
   129   163   162   ar
   130   177   175   ar
   131   112   113    2
   132   126   124    1
   133   162   161    1
   134   124   123    1
   135    95    93   ar
   136    95    97   ar
   137    93    94   ar
   138   123   120    1
   139   151   148    1
   140    18    20    1
   141   174   175   ar
   142   174   173    1
   143   131   128    1
   144   161   158    1
   145    97    98   ar
   146    94    96   ar
   147   128   127    1
   148   128   129    1
   149   127   121   am
   150   121   120    1
   151   121   122    2
   152   120   119    1
   153   148   149    1
   154   148   147    1
   155   173   170    1
   156   158   157    1
   157   158   159    1
   158   150   149    2
   159    98    96   ar
   160   160   159    2
   161   130   129    2
   162   172   171    2
   163   157   154   am
   164   147   138   am
   165   171   170    1
   166   156   153    1
   167   170   169    1
   168   196   194    1
   169   154   155    2
   170   154   153    1
   171   143   145   ar
   172   143   141   ar
   173   208   209    1
   174   208   207    1
   175   145   146   ar
   176   138   139    2
   177   138   137    1
   178   153   152    1
   179   140   141    1
   180   140   137    1
   181   141   142   ar
   182   194   191    1
   183   194   195    1
   184   137   136    1
   185   197   198    1
   186   146   144   ar
   187   191   190    1
   188   191   192    1
   189   198   201    1
   190   198   199    1
   191   207   206    1
   192   142   144   ar
   193   193   192    2
   194   200   199    2
   195   206   203    1
   196   202   203    1
   197   217   215    1
   198   203   204    1
   199   216   215    1
   200   215   214    1
   201   205   204    2
   202   214   211    1
   203   211   212    1
   204   211   210    1
   205   213   212    2
