@<TRIPOS>MOLECULE
tmp/4qvbB01.pdb
 123 118 0 0 0
SMALL
GASTEIGER

@<TRIPOS>ATOM
      1  N          0.9550   -3.4390   15.8070 N.3    23  LYS23      -0.1231
      2  CA         1.4400   -4.8190   15.7930 C.3    23  LYS23       0.1693
      3  C          1.0180   -5.6360   17.0210 C.2    23  LYS23       0.2592
      4  O          0.6470   -5.0790   18.0630 O.2    23  LYS23      -0.2718
      5  CB         2.9670   -4.8590   15.7210 C.3    23  LYS23       0.0285
      6  CG         3.6040   -4.3840   14.4410 C.3    23  LYS23       0.0035
      7  CD         5.0840   -4.6840   14.5110 C.3    23  LYS23       0.0206
      8  CE         5.8070   -4.1400   13.3120 C.3    23  LYS23       0.1093
      9  NZ         7.2620   -4.4090   13.4190 N.3    23  LYS23      -0.1314
     10  N          1.1310   -6.9600   16.9070 N.am   24  HIS24      -0.1976
     11  CA         0.7990   -7.8410   18.0170 C.3    24  HIS24       0.1656
     12  C          1.6940   -7.5580   19.2190 C.2    24  HIS24       0.2291
     13  O          1.2670   -7.7030   20.3600 O.2    24  HIS24      -0.2864
     14  CB         0.8970   -9.3210   17.6000 C.3    24  HIS24       0.0771
     15  CG         2.2950   -9.8190   17.4220 C.ar   24  HIS24       0.0820
     16  ND1        3.2960   -9.0570   16.8540 N.ar   24  HIS24      -0.2267
     17  CD2        2.8620  -11.0080   17.7360 C.ar   24  HIS24       0.1154
     18  CE1        4.4170   -9.7550   16.8270 C.ar   24  HIS24       0.1986
     19  NE2        4.1810  -10.9440   17.3550 N.ar   24  HIS24      -0.2212
     20  N          2.9730   -0.1150   13.3100 N.3    29  GLN29      -0.1231
     21  CA         3.3300   -0.5140   11.9740 C.3    29  GLN29       0.1698
     22  C          2.9270    0.6320   11.0480 C.2    29  GLN29       0.2592
     23  O          1.8000    1.1150   11.1350 O.2    29  GLN29      -0.2718
     24  CB         2.6220   -1.8010   11.5900 C.3    29  GLN29       0.0381
     25  CG         2.9560   -2.2860   10.1880 C.3    29  GLN29       0.0905
     26  CD         1.9550   -1.8220    9.1370 C.2    29  GLN29       0.2608
     27  OE1        0.8520   -1.3500    9.4570 O.2    29  GLN29      -0.2717
     28  NE2        2.3320   -1.9680    7.8710 N.am   29  GLN29      -0.0878
     29  N          3.8330    1.0590   10.1720 N.am   30  LEU30      -0.1966
     30  CA         3.5860    2.2430    9.3400 C.3    30  LEU30       0.1728
     31  C          3.6880    1.9280    7.8610 C.2    30  LEU30       0.2617
     32  O          4.5310    1.1260    7.4550 O.2    30  LEU30      -0.2715
     33  CB         4.5800    3.3670    9.6770 C.3    30  LEU30       0.0311
     34  CG         4.8420    3.7350   11.1430 C.3    30  LEU30       0.0022
     35  CD1        5.9520    4.8120   11.2870 C.3    30  LEU30       0.0001
     36  CD2        3.5610    4.1480   11.8260 C.3    30  LEU30       0.0001
     37  N          2.8490    2.5870    7.0620 N.am   31  SER31      -0.1936
     38  CA         2.9010    2.4790    5.6030 C.3    31  SER31       0.2055
     39  C          2.1900    3.6540    4.9630 C.2    31  SER31       0.2643
     40  O          1.3860    4.3400    5.6100 O.2    31  SER31      -0.2714
     41  CB         2.2560    1.1810    5.1200 C.3    31  SER31       0.2130
     42  OG         0.8770    1.1480    5.4630 O.3    31  SER31      -0.2179
     43  N          2.4710    3.8850    3.6850 N.am   32  ASN32      -0.1957
     44  CA         1.7630    4.9300    2.9630 C.3    32  ASN32       0.1819
     45  C          0.4620    4.4210    2.3960 C.2    32  ASN32       0.2621
     46  O          0.3860    3.2880    1.9050 O.2    32  ASN32      -0.2715
     47  CB         2.6220    5.4960    1.8490 C.3    32  ASN32       0.1195
     48  CG         3.6100    6.5090    2.3530 C.2    32  ASN32       0.2630
     49  OD1        3.4260    7.0900    3.4270 O.2    32  ASN32      -0.2716
     50  ND2        4.6670    6.7350    1.5860 N.am   32  ASN32      -0.0877
     51  N         -0.5720    5.2490    2.4890 N.am   33  VAL33      -0.1977
     52  CA        -1.8400    4.9170    1.8740 C.3    33  VAL33       0.1596
     53  C         -2.3960    6.1190    1.1240 C.2    33  VAL33       0.2287
     54  O         -2.1380    7.2750    1.4770 O.2    33  VAL33      -0.2864
     55  CB        -2.8810    4.4260    2.8930 C.3    33  VAL33       0.0276
     56  CG1       -2.3530    3.2440    3.6690 C.3    33  VAL33       0.0022
     57  CG2       -3.2680    5.5390    3.8490 C.3    33  VAL33       0.0022
     58  N         -2.4420   -8.1210    3.7960 N.3    52  ARG52      -0.1231
     59  CA        -1.3730   -7.2050    4.2090 C.3    52  ARG52       0.1694
     60  C         -1.2970   -7.0550    5.7350 C.2    52  ARG52       0.2592
     61  O         -2.2910   -7.2350    6.4330 O.2    52  ARG52      -0.2718
     62  CB        -1.5580   -5.8340    3.5620 C.3    52  ARG52       0.0321
     63  CG        -1.4820   -5.8390    2.0410 C.3    52  ARG52       0.0489
     64  CD        -0.0500   -5.9840    1.5030 C.3    52  ARG52       0.2205
     65  NE         0.4010   -7.3750    1.4200 N.pl3  52  ARG52      -0.0865
     66  CZ         0.0060   -8.2420    0.4860 C.cat  52  ARG52       0.5346
     67  NH1       -0.8620   -7.8740   -0.4520 N.pl3  52  ARG52       0.1354
     68  NH2        0.4680   -9.4860    0.4990 N.pl3  52  ARG52       0.1354
     69  N         -0.1080   -6.7320    6.2340 N.am   53  ALA53      -0.1966
     70  CA         0.1110   -6.5230    7.6660 C.3    53  ALA53       0.1728
     71  C         -0.8470   -5.4910    8.2690 C.2    53  ALA53       0.2616
     72  O         -1.3760   -5.6950    9.3680 O.2    53  ALA53      -0.2715
     73  CB         1.5530   -6.1050    7.9270 C.3    53  ALA53       0.0334
     74  N         -1.0800   -4.3960    7.5440 N.am   54  LYS54      -0.1977
     75  CA        -1.9120   -3.3150    8.0570 C.3    54  LYS54       0.1596
     76  C         -3.3390   -3.7900    8.2610 C.2    54  LYS54       0.2287
     77  O         -3.9900   -3.4000    9.2320 O.2    54  LYS54      -0.2864
     78  CB        -1.8730   -2.0820    7.1190 C.3    54  LYS54       0.0298
     79  CG        -2.6610   -2.1880    5.8110 C.3    54  LYS54       0.0038
     80  CD        -2.3570   -1.0150    4.8810 C.3    54  LYS54       0.0206
     81  CE        -1.0940   -1.2720    4.0990 C.3    54  LYS54       0.1093
     82  NZ        -0.4690   -0.0150    3.6130 N.3    54  LYS54      -0.1314
     83  N         -4.3790   -7.0930    8.7290 N.3    56  ARG56      -0.1231
     84  CA        -4.3840   -8.0500    9.8210 C.3    56  ARG56       0.1694
     85  C         -4.3080   -7.3320   11.1650 C.2    56  ARG56       0.2592
     86  O         -5.0130   -7.6860   12.1100 O.2    56  ARG56      -0.2718
     87  CB        -3.2260   -9.0360    9.6470 C.3    56  ARG56       0.0321
     88  CG        -3.2830   -9.7780    8.3030 C.3    56  ARG56       0.0489
     89  CD        -2.3160  -10.9430    8.2570 C.3    56  ARG56       0.2205
     90  NE        -0.9320  -10.4850    8.2620 N.pl3  56  ARG56      -0.0865
     91  CZ        -0.0340  -10.8080    7.3350 C.cat  56  ARG56       0.5346
     92  NH1        1.2080  -10.3390    7.4170 N.pl3  56  ARG56       0.1354
     93  NH2       -0.3750  -11.6100    6.3330 N.pl3  56  ARG56       0.1354
     94  N         -3.4930   -6.2820   11.2420 N.am   57  ASN57      -0.1974
     95  CA        -3.4180   -5.5140   12.4830 C.3    57  ASN57       0.1688
     96  C         -4.7470   -4.8950   12.8580 C.2    57  ASN57       0.2292
     97  O         -5.1340   -4.8930   14.0300 O.2    57  ASN57      -0.2864
     98  CB        -2.3480   -4.4390   12.3820 C.3    57  ASN57       0.1181
     99  CG        -0.9710   -5.0320   12.3540 C.2    57  ASN57       0.2629
    100  OD1       -0.8060   -6.2290   12.6080 O.2    57  ASN57      -0.2716
    101  ND2        0.0290   -4.2170   12.0500 N.am   57  ASN57      -0.0877
    102  N         -7.3310   -7.1600   14.1700 N.3    60  ARG60      -0.1245
    103  CA        -7.0030   -7.5080   15.5500 C.3    60  ARG60       0.1563
    104  C         -7.2710   -6.3640   16.5280 C.2    60  ARG60       0.2260
    105  O         -7.8250   -6.5800   17.6030 O.2    60  ARG60      -0.2867
    106  CB        -5.5420   -7.9500   15.6640 C.3    60  ARG60       0.0307
    107  CG        -5.1910   -8.5220   17.0340 C.3    60  ARG60       0.0489
    108  CD        -3.6950   -8.7450   17.1940 C.3    60  ARG60       0.2205
    109  NE        -3.1090   -7.6600   17.9570 N.pl3  60  ARG60      -0.0865
    110  CZ        -2.5670   -6.5710   17.4250 C.cat  60  ARG60       0.5346
    111  NH1       -2.5150   -6.4370   16.1060 N.pl3  60  ARG60       0.1354
    112  NH2       -2.0670   -5.6270   18.2180 N.pl3  60  ARG60       0.1354
    113  N         -9.6480   -7.1880   -1.7070 N.3   126  ARG126     -0.1245
    114  CA        -9.5950   -5.8170   -1.2210 C.3   126  ARG126      0.1563
    115  C        -10.6800   -5.5610   -0.2070 C.2   126  ARG126      0.2260
    116  O        -11.7620   -6.1540   -0.2610 O.2   126  ARG126     -0.2867
    117  CB        -9.7150   -4.8180   -2.3720 C.3   126  ARG126      0.0307
    118  CG        -8.4570   -4.6960   -3.2050 C.3   126  ARG126      0.0489
    119  CD        -7.4750   -3.7680   -2.5490 C.3   126  ARG126      0.2205
    120  NE        -6.2100   -3.6940   -3.2700 N.pl3 126  ARG126     -0.0865
    121  CZ        -5.3000   -2.7440   -3.0790 C.cat 126  ARG126      0.5346
    122  NH1       -4.1690   -2.7520   -3.7730 N.pl3 126  ARG126      0.1354
    123  NH2       -5.5160   -1.7830   -2.1940 N.pl3 126  ARG126      0.1354
@<TRIPOS>BOND
     1   122   121    1
     2   120   121    2
     3   120   119    1
     4   118   119    1
     5   118   117    1
     6   121   123    1
     7   117   114    1
     8   113   114    1
     9   114   115    1
    10    67    66    1
    11   116   115    2
    12    66    68    1
    13    66    65    2
    14    53    54    2
    15    53    52    1
    16    65    64    1
    17    64    63    1
    18    50    48   am
    19    47    48    1
    20    47    44    1
    21    52    51    1
    22    52    55    1
    23    46    45    2
    24    63    62    1
    25    48    49    2
    26    45    51   am
    27    45    44    1
    28    55    56    1
    29    55    57    1
    30    44    43    1
    31    62    59    1
    32    82    81    1
    33    43    39   am
    34    58    59    1
    35    81    80    1
    36    59    60    1
    37    80    79    1
    38    39    38    1
    39    39    40    2
    40    41    42    1
    41    41    38    1
    42    38    37    1
    43    60    69   am
    44    60    61    2
    45    79    78    1
    46    69    70    1
    47    93    91    1
    48    37    31   am
    49    78    75    1
    50    91    92    1
    51    91    90    2
    52    32    31    2
    53    74    75    1
    54    74    71   am
    55    70    73    1
    56    70    71    1
    57    31    30    1
    58    28    26   am
    59    75    76    1
    60    89    90    1
    61    89    88    1
    62    76    77    2
    63    71    72    2
    64    88    87    1
    65    83    84    1
    66    26    27    2
    67    26    25    1
    68    30    33    1
    69    30    29    1
    70    87    84    1
    71    33    34    1
    72    84    85    1
    73    29    22   am
    74    25    24    1
    75    22    23    2
    76    22    21    1
    77    34    35    1
    78    34    36    1
    79    85    94   am
    80    85    86    2
    81    94    95    1
    82    24    21    1
    83    21    20    1
    84   101    99   am
    85    99    98    1
    86    99   100    2
    87    98    95    1
    88    95    96    1
    89    96    97    2
    90     8     9    1
    91     8     7    1
    92   102   103    1
    93     6     7    1
    94     6     5    1
    95   103   106    1
    96   103   104    1
    97   106   107    1
    98     5     2    1
    99     2     1    1
   100     2     3    1
   101   111   110    1
   102   104   105    2
   103    18    16   ar
   104    18    19   ar
   105    16    15   ar
   106    10     3   am
   107    10    11    1
   108     3     4    2
   109   107   108    1
   110   108   109    1
   111    19    17   ar
   112    15    14    1
   113    15    17   ar
   114   110   109    2
   115   110   112    1
   116    14    11    1
   117    11    12    1
   118    12    13    2
