@<TRIPOS>MOLECULE
tmp/4qvbA00.pdb
 109 103 0 0 0
SMALL
GASTEIGER

@<TRIPOS>ATOM
      1  N         13.6980   14.4090    6.5900 N.3    16  ILE16      -0.1245
      2  CA        12.4860   14.5220    7.3820 C.3    16  ILE16       0.1561
      3  C         11.7200   13.2070    7.3160 C.2    16  ILE16       0.2260
      4  O         11.6150   12.5750    6.2580 O.2    16  ILE16      -0.2867
      5  CB        11.5920   15.6930    6.9150 C.3    16  ILE16       0.0252
      6  CG1       10.3200   15.7760    7.7720 C.3    16  ILE16       0.0019
      7  CG2       11.2310   15.5460    5.4420 C.3    16  ILE16       0.0019
      8  CD1        9.4210   16.9240    7.3930 C.3    16  ILE16       0.0001
      9  N          1.6050    7.3980   18.3750 N.3    29  GLN29      -0.1245
     10  CA         1.5750    8.8520   18.3410 C.3    29  GLN29       0.1566
     11  C          2.4880    9.2710   17.1990 C.2    29  GLN29       0.2260
     12  O          3.6240    8.7980   17.1160 O.2    29  GLN29      -0.2867
     13  CB         2.0260    9.4440   19.6890 C.3    29  GLN29       0.0367
     14  CG         2.0400   10.9670   19.7900 C.3    29  GLN29       0.0905
     15  CD         3.3680   11.5900   19.3650 C.2    29  GLN29       0.2608
     16  OE1        4.3960   10.9190   19.3170 O.2    29  GLN29      -0.2717
     17  NE2        3.3440   12.8880   19.0500 N.am   29  GLN29      -0.0878
     18  N          4.2800   12.1890   14.4440 N.3    31  SER31      -0.1202
     19  CA         4.7210   13.5520   14.2380 C.3    31  SER31       0.2020
     20  C          5.8960   13.5740   13.2750 C.2    31  SER31       0.2619
     21  O          6.5920   12.5790   13.1220 O.2    31  SER31      -0.2717
     22  CB         5.1060   14.2150   15.5700 C.3    31  SER31       0.2103
     23  OG         6.3230   13.6870   16.0490 O.3    31  SER31      -0.2182
     24  N          6.1040   14.7100   12.6160 N.am   32  ASN32      -0.1960
     25  CA         7.2570   14.8600   11.7330 C.3    32  ASN32       0.1819
     26  C          8.4860   15.2130   12.5320 C.2    32  ASN32       0.2621
     27  O          8.4180   15.9860   13.4860 O.2    32  ASN32      -0.2715
     28  CB         7.0100   15.9260   10.6630 C.3    32  ASN32       0.1195
     29  CG         6.2460   15.3870    9.4700 C.2    32  ASN32       0.2630
     30  OD1        6.2870   14.1900    9.1860 O.2    32  ASN32      -0.2716
     31  ND2        5.5490   16.2620    8.7670 N.am   32  ASN32      -0.0877
     32  N          9.6150   14.6280   12.1610 N.am   33  VAL33      -0.1963
     33  CA        10.8870   15.0450   12.7420 C.3    33  VAL33       0.1727
     34  C         11.9330   15.2330   11.6630 C.2    33  VAL33       0.2616
     35  O         11.8370   14.6650   10.5730 O.2    33  VAL33      -0.2715
     36  CB        11.4100   14.0400   13.7660 C.3    33  VAL33       0.0290
     37  CG1       10.5270   14.0570   15.0040 C.3    33  VAL33       0.0023
     38  CG2       11.5180   12.6280   13.1400 C.3    33  VAL33       0.0023
     39  N         12.9240   16.0520   11.9650 N.am   34  GLN34      -0.1977
     40  CA        14.0800   16.1810   11.1000 C.3    34  GLN34       0.1601
     41  C         15.1490   15.2710   11.6750 C.2    34  GLN34       0.2287
     42  O         15.2790   15.1720   12.8890 O.2    34  GLN34      -0.2864
     43  CB        14.5620   17.6250   11.0290 C.3    34  GLN34       0.0394
     44  CG        15.5640   17.9000    9.9340 C.3    34  GLN34       0.0908
     45  CD        15.8750   19.3800    9.8120 C.2    34  GLN34       0.2608
     46  OE1       16.3000   20.0080   10.7780 O.2    34  GLN34      -0.2717
     47  NE2       15.6540   19.9460    8.6300 N.am   34  GLN34      -0.0878
     48  N         17.9790   12.5350   16.1290 N.3    46  VAL46      -0.1231
     49  CA        16.8720   13.4840   16.0870 C.3    46  VAL46       0.1692
     50  C         16.9270   14.4100   17.2990 C.2    46  VAL46       0.2593
     51  O         17.1860   13.9620   18.4080 O.2    46  VAL46      -0.2718
     52  CB        15.4770   12.7580   16.0530 C.3    46  VAL46       0.0266
     53  CG1       14.3470   13.7690   16.0780 C.3    46  VAL46       0.0020
     54  CG2       15.3450   11.8710   14.8240 C.3    46  VAL46       0.0020
     55  N         16.6970   15.7010   17.0760 N.am   47  SER47      -0.1938
     56  CA        16.5990   16.6640   18.1640 C.3    47  SER47       0.2055
     57  C         15.1650   16.8470   18.6200 C.2    47  SER47       0.2643
     58  O         14.3550   17.3780   17.8770 O.2    47  SER47      -0.2714
     59  CB        17.1650   18.0170   17.7540 C.3    47  SER47       0.2130
     60  OG        16.8980   18.9690   18.7720 O.3    47  SER47      -0.2179
     61  N         14.8490   16.4060   19.8360 N.am   48  ILE48      -0.1963
     62  CA        13.4950   16.5620   20.3440 C.3    48  ILE48       0.1727
     63  C         13.5170   17.3370   21.6530 C.2    48  ILE48       0.2616
     64  O         14.5630   17.7980   22.0860 O.2    48  ILE48      -0.2715
     65  CB        12.7990   15.1980   20.5450 C.3    48  ILE48       0.0290
     66  CG1       13.4600   14.4100   21.6800 C.3    48  ILE48       0.0022
     67  CG2       12.7810   14.4040   19.2410 C.3    48  ILE48       0.0023
     68  CD1       12.9390   12.9660   21.8120 C.3    48  ILE48       0.0001
     69  N         12.3720   17.4830   22.2960 N.am   49  ALA49      -0.1977
     70  CA        12.3240   18.3050   23.4830 C.3    49  ALA49       0.1597
     71  C         11.5490   17.6170   24.5890 C.2    49  ALA49       0.2287
     72  O         10.5280   16.9740   24.3410 O.2    49  ALA49      -0.2864
     73  CB        11.7180   19.6710   23.1580 C.3    49  ALA49       0.0319
     74  N          7.5770   17.5040   25.1890 N.3    52  ARG52      -0.1231
     75  CA         6.7010   17.0320   24.1300 C.3    52  ARG52       0.1694
     76  C          6.1550   15.6460   24.4210 C.2    52  ARG52       0.2592
     77  O          6.7440   14.8740   25.1750 O.2    52  ARG52      -0.2718
     78  CB         7.4340   17.0380   22.8010 C.3    52  ARG52       0.0321
     79  CG         7.9280   18.4160   22.3710 C.3    52  ARG52       0.0489
     80  CD         6.8140   19.3010   21.7980 C.3    52  ARG52       0.2205
     81  NE         5.9270   19.8860   22.8110 N.pl3  52  ARG52      -0.0865
     82  CZ         6.2290   20.9510   23.5580 C.cat  52  ARG52       0.5346
     83  NH1        7.4150   21.5440   23.4250 N.pl3  52  ARG52       0.1354
     84  NH2        5.3510   21.4230   24.4480 N.pl3  52  ARG52       0.1354
     85  N          5.0080   15.3550   23.8260 N.am   53  ALA53      -0.1966
     86  CA         4.3760   14.0560   23.9460 C.3    53  ALA53       0.1728
     87  C          5.3200   12.9660   23.4890 C.2    53  ALA53       0.2616
     88  O          5.4590   11.9420   24.1550 O.2    53  ALA53      -0.2715
     89  CB         3.0860   14.0120   23.1300 C.3    53  ALA53       0.0334
     90  N          5.9630   13.1840   22.3460 N.am   54  LYS54      -0.1977
     91  CA         6.8410   12.1660   21.7780 C.3    54  LYS54       0.1596
     92  C          7.9410   11.7680   22.7810 C.2    54  LYS54       0.2287
     93  O          8.3020   10.5980   22.8780 O.2    54  LYS54      -0.2864
     94  CB         7.4590   12.6460   20.4590 C.3    54  LYS54       0.0298
     95  CG         8.2720   13.9300   20.5750 C.3    54  LYS54       0.0038
     96  CD         9.1760   14.1680   19.3710 C.3    54  LYS54       0.0206
     97  CE         8.3940   14.5930   18.1370 C.3    54  LYS54       0.1093
     98  NZ         7.6590   15.8730   18.3060 N.3    54  LYS54      -0.1314
     99  N         15.8980   20.6910   25.3570 N.3   126  ARG126     -0.1245
    100  CA        16.0640   19.8810   24.1800 C.3   126  ARG126      0.1563
    101  C         16.7540   18.5720   24.5310 C.2   126  ARG126      0.2260
    102  O         17.5710   18.5140   25.4470 O.2   126  ARG126     -0.2867
    103  CB        16.8570   20.6640   23.1320 C.3   126  ARG126      0.0307
    104  CG        16.5270   20.3160   21.6970 C.3   126  ARG126      0.0489
    105  CD        15.2210   20.9600   21.2340 C.3   126  ARG126      0.2205
    106  NE        14.7420   20.3110   20.0140 N.pl3 126  ARG126     -0.0865
    107  CZ        13.6680   20.6830   19.3260 C.cat 126  ARG126      0.5346
    108  NH1       12.9440   21.7270   19.7250 N.pl3 126  ARG126      0.1354
    109  NH2       13.3300   20.0120   18.2300 N.pl3 126  ARG126      0.1354
@<TRIPOS>BOND
     1     7     5    1
     2     4     3    2
     3     1     2    1
     4     5     2    1
     5     5     6    1
     6     3     2    1
     7     8     6    1
     8    47    45   am
     9    31    29   am
    10    30    29    2
    11    29    28    1
    12    45    44    1
    13    45    46    2
    14    44    43    1
    15    35    34    2
    16    28    25    1
    17    43    40    1
    18    40    41    1
    19    40    39    1
    20    34    39   am
    21    34    33    1
    22    41    42    2
    23    25    26    1
    24    25    24    1
    25    32    26   am
    26    32    33    1
    27    26    27    2
    28    24    20   am
    29    33    36    1
    30    21    20    2
    31    38    36    1
    32    20    19    1
    33    36    37    1
    34    19    18    1
    35    19    22    1
    36    54    52    1
    37    22    23    1
    38    52    53    1
    39    52    49    1
    40    49    48    1
    41    49    50    1
    42    55    50   am
    43    55    56    1
    44    12    11    2
    45    11    10    1
    46    50    51    2
    47    59    56    1
    48    59    60    1
    49    58    57    2
    50    97    98    1
    51    97    96    1
    52    56    57    1
    53   109   107    1
    54    10     9    1
    55    10    13    1
    56    57    61   am
    57    17    15   am
    58    67    65    1
    59    16    15    2
    60   107   108    1
    61   107   106    2
    62    15    14    1
    63    96    95    1
    64    13    14    1
    65    61    62    1
    66   106   105    1
    67    62    65    1
    68    62    63    1
    69    94    95    1
    70    94    91    1
    71    65    66    1
    72   105   104    1
    73    63    64    2
    74    63    69   am
    75    66    68    1
    76   104   103    1
    77    91    90    1
    78    91    92    1
    79    80    79    1
    80    80    81    1
    81    69    70    1
    82    90    87   am
    83    79    78    1
    84    92    93    2
    85    78    75    1
    86    81    82    2
    87    89    86    1
    88   103   100    1
    89    73    70    1
    90    83    82    1
    91    70    71    1
    92    87    86    1
    93    87    88    2
    94    82    84    1
    95    85    86    1
    96    85    76   am
    97    75    76    1
    98    75    74    1
    99   100   101    1
   100   100    99    1
   101    72    71    2
   102    76    77    2
   103   101   102    2
