@<TRIPOS>MOLECULE
tmp/4qvcD00.pdb
 78 73 0 0 0
SMALL
GASTEIGER

@<TRIPOS>ATOM
      1  N          6.3400   16.0880   -6.2500 N.3    20  TYR20      -0.1241
      2  CA         4.9400   16.5160   -6.2230 C.3    20  TYR20       0.1605
      3  C          4.0800   15.2720   -6.2710 C.2    20  TYR20       0.2264
      4  O          4.2870   14.3690   -7.1240 O.2    20  TYR20      -0.2867
      5  CB         4.6110   17.4130   -7.4050 C.3    20  TYR20       0.0534
      6  CG         5.3060   18.7260   -7.4110 C.ar   20  TYR20      -0.0201
      7  CD1        6.5750   18.8510   -7.9420 C.ar   20  TYR20      -0.0009
      8  CD2        4.6890   19.8630   -6.8930 C.ar   20  TYR20      -0.0009
      9  CE1        7.2130   20.0730   -7.9980 C.ar   20  TYR20       0.0417
     10  CE2        5.3340   21.1040   -6.9220 C.ar   20  TYR20       0.0417
     11  CZ         6.6080   21.1920   -7.4600 C.ar   20  TYR20       0.1957
     12  OH         7.2790   22.3980   -7.4930 O.3    20  TYR20      -0.2866
     13  N         -2.0360   14.2080   -5.2850 N.3    23  ASN23      -0.1225
     14  CA        -3.0070   15.0370   -4.5680 C.3    23  ASN23       0.1785
     15  C         -2.6110   16.5330   -4.4250 C.2    23  ASN23       0.2598
     16  O         -3.2850   17.3070   -3.7280 O.2    23  ASN23      -0.2718
     17  CB        -3.2980   14.4130   -3.1820 C.3    23  ASN23       0.1169
     18  CG        -2.0630   14.3680   -2.2740 C.2    23  ASN23       0.2627
     19  OD1       -1.0260   14.9930   -2.5510 O.2    23  ASN23      -0.2716
     20  ND2       -2.1770   13.6180   -1.1790 N.am   23  ASN23      -0.0877
     21  N         -1.5150   16.9400   -5.0640 N.am   24  GLY24      -0.1942
     22  CA        -1.0630   18.3260   -4.9840 C.3    24  GLY24       0.2014
     23  C          0.0280   18.6160   -3.9500 C.2    24  GLY24       0.2639
     24  O          0.6480   19.6600   -4.0130 O.2    24  GLY24      -0.2714
     25  N          0.2640   17.7090   -2.9990 N.am   25  ILE25      -0.1963
     26  CA         1.3010   17.9250   -1.9860 C.3    25  ILE25       0.1727
     27  C          2.7070   18.0610   -2.6420 C.2    25  ILE25       0.2616
     28  O          3.0380   17.3210   -3.5850 O.2    25  ILE25      -0.2715
     29  CB         1.2830   16.7890   -0.9430 C.3    25  ILE25       0.0290
     30  CG1        0.0240   16.9430   -0.0430 C.3    25  ILE25       0.0022
     31  CG2        2.5630   16.7680   -0.1090 C.3    25  ILE25       0.0023
     32  CD1       -0.1650   15.8560    1.0050 C.3    25  ILE25       0.0001
     33  N          3.4870   19.0260   -2.1720 N.am   26  LYS26      -0.1977
     34  CA         4.8830   19.2000   -2.6060 C.3    26  LYS26       0.1596
     35  C          5.7730   18.8340   -1.4470 C.2    26  LYS26       0.2287
     36  O          5.6640   19.4440   -0.3850 O.2    26  LYS26      -0.2864
     37  CB         5.1520   20.6380   -3.0180 C.3    26  LYS26       0.0298
     38  CG         6.6200   20.9460   -3.3520 C.3    26  LYS26       0.0038
     39  CD         6.7390   22.3650   -3.8690 C.3    26  LYS26       0.0206
     40  CE         8.1910   22.7270   -4.1310 C.3    26  LYS26       0.1093
     41  NZ         8.2960   24.1780   -4.4730 N.3    26  LYS26      -0.1314
     42  N          9.8080   18.3480   -0.1960 N.3    28  GLN28      -0.1245
     43  CA        11.1400   18.9030   -0.5090 C.3    28  GLN28       0.1566
     44  C         12.2030   18.1590    0.3030 C.2    28  GLN28       0.2260
     45  O         12.1070   18.0520    1.5250 O.2    28  GLN28      -0.2867
     46  CB        11.1980   20.3990   -0.2280 C.3    28  GLN28       0.0367
     47  CG        12.4830   21.1040   -0.7110 C.3    28  GLN28       0.0905
     48  CD        12.5910   21.3380   -2.2230 C.2    28  GLN28       0.2608
     49  OE1       13.6500   21.7720   -2.7250 O.2    28  GLN28      -0.2717
     50  NE2       11.5210   21.1070   -2.9440 N.am   28  GLN28      -0.0878
     51  N         14.5670   14.8270    4.4590 N.3    43  ASN43      -0.1240
     52  CA        14.7450   16.2050    4.9600 C.3    43  ASN43       0.1653
     53  C         14.9870   16.1480    6.4860 C.2    43  ASN43       0.2266
     54  O         15.9580   15.5450    6.8940 O.2    43  ASN43      -0.2867
     55  CB        13.5980   17.1230    4.5470 C.3    43  ASN43       0.1155
     56  CG        12.2290   16.5100    4.7830 C.2    43  ASN43       0.2627
     57  OD1       11.9970   15.7800    5.7810 O.2    43  ASN43      -0.2716
     58  ND2       11.3100   16.8090    3.8870 N.am   43  ASN43      -0.0877
     59  N          3.3990   12.4110   -8.8400 N.3    55  SER55      -0.1202
     60  CA         3.2010   12.8980  -10.1840 C.3    55  SER55       0.2020
     61  C          4.5290   13.1760  -10.8700 C.2    55  SER55       0.2619
     62  O          4.7530   12.7290  -11.9920 O.2    55  SER55      -0.2717
     63  CB         2.2870   14.1270  -10.2180 C.3    55  SER55       0.2103
     64  OG         2.7220   15.2050   -9.4120 O.3    55  SER55      -0.2182
     65  N          5.3930   13.9400  -10.1990 N.am   56  THR56      -0.1952
     66  CA         6.6420   14.4200  -10.7840 C.3    56  THR56       0.1897
     67  C          7.7520   14.4890   -9.7600 C.2    56  THR56       0.2313
     68  O          7.5090   14.6860   -8.5430 O.2    56  THR56      -0.2863
     69  CB         6.5040   15.8370  -11.3940 C.3    56  THR56       0.1794
     70  OG1        6.2780   16.8140  -10.3600 O.3    56  THR56      -0.2208
     71  CG2        5.3870   15.8850  -12.3690 C.3    56  THR56       0.0378
     72  N         11.3330   16.6610   -9.5060 N.3    58  VAL58      -0.1245
     73  CA        11.8620   17.8760  -10.1330 C.3    58  VAL58       0.1561
     74  C         13.1080   18.3460   -9.3600 C.2    58  VAL58       0.2260
     75  O         12.9700   18.8400   -8.2440 O.2    58  VAL58      -0.2867
     76  CB        10.8010   19.0130  -10.1050 C.3    58  VAL58       0.0252
     77  CG1       11.2710   20.2730  -10.8430 C.3    58  VAL58       0.0019
     78  CG2        9.4670   18.5310  -10.6530 C.3    58  VAL58       0.0019
@<TRIPOS>BOND
     1    71    69    1
     2    62    61    2
     3    69    66    1
     4    69    70    1
     5    61    65   am
     6    61    60    1
     7    77    76    1
     8    66    65    1
     9    66    67    1
    10    78    76    1
    11    63    60    1
    12    63    64    1
    13    60    59    1
    14    73    76    1
    15    73    72    1
    16    73    74    1
    17    67    68    2
    18    74    75    2
    19     9     7   ar
    20     9    11   ar
    21     7     6   ar
    22    12    11    1
    23    11    10   ar
    24     6     5    1
    25     6     8   ar
    26     5     2    1
    27     4     3    2
    28    10     8   ar
    29     3     2    1
    30     1     2    1
    31    13    14    1
    32    21    22    1
    33    21    15   am
    34    22    23    1
    35    14    15    1
    36    14    17    1
    37    41    40    1
    38    15    16    2
    39    40    39    1
    40    24    23    2
    41    23    25   am
    42    39    38    1
    43    28    27    2
    44    38    37    1
    45    17    18    1
    46    37    34    1
    47    25    26    1
    48    50    48   am
    49    49    48    2
    50    27    33   am
    51    27    26    1
    52    34    33    1
    53    34    35    1
    54    19    18    2
    55    18    20   am
    56    48    47    1
    57    26    29    1
    58    35    36    2
    59    29    31    1
    60    29    30    1
    61    47    46    1
    62    43    46    1
    63    43    42    1
    64    43    44    1
    65    30    32    1
    66    44    45    2
    67    58    56   am
    68    51    52    1
    69    55    56    1
    70    55    52    1
    71    56    57    2
    72    52    53    1
    73    53    54    2
