@<TRIPOS>MOLECULE
tmp/4qvdD00.pdb
 86 82 0 0 0
SMALL
GASTEIGER

@<TRIPOS>ATOM
      1  N          6.6780   15.8770   -6.2540 N.3    21  TYR21      -0.1241
      2  CA         5.2890   16.3090   -6.2450 C.3    21  TYR21       0.1605
      3  C          4.4190   15.0780   -6.2700 C.2    21  TYR21       0.2264
      4  O          4.6460   14.1820   -7.0840 O.2    21  TYR21      -0.2867
      5  CB         4.9730   17.1670   -7.4580 C.3    21  TYR21       0.0534
      6  CG         5.6730   18.5000   -7.4600 C.ar   21  TYR21      -0.0201
      7  CD1        6.9760   18.6240   -7.9470 C.ar   21  TYR21      -0.0009
      8  CD2        5.0490   19.6300   -6.9550 C.ar   21  TYR21      -0.0009
      9  CE1        7.6350   19.8480   -7.9470 C.ar   21  TYR21       0.0417
     10  CE2        5.6900   20.8600   -6.9570 C.ar   21  TYR21       0.0417
     11  CZ         6.9800   20.9590   -7.4430 C.ar   21  TYR21       0.1957
     12  OH         7.6040   22.1810   -7.4410 O.3    21  TYR21      -0.2866
     13  N         -1.6690   14.1830   -5.4550 N.3    24  ASN24      -0.1225
     14  CA        -2.6380   15.0630   -4.8000 C.3    24  ASN24       0.1785
     15  C         -2.1930   16.5350   -4.6670 C.2    24  ASN24       0.2598
     16  O         -2.8630   17.3400   -4.0020 O.2    24  ASN24      -0.2718
     17  CB        -2.9710   14.5090   -3.4130 C.3    24  ASN24       0.1169
     18  CG        -1.7520   14.4290   -2.4990 C.2    24  ASN24       0.2627
     19  OD1       -0.6920   15.0070   -2.7840 O.2    24  ASN24      -0.2716
     20  ND2       -1.8950   13.7070   -1.3990 N.am   24  ASN24      -0.0877
     21  N         -1.0520   16.8730   -5.2600 N.am   25  GLY25      -0.1942
     22  CA        -0.5690   18.2430   -5.2630 C.3    25  GLY25       0.2014
     23  C          0.5000   18.5300   -4.2130 C.2    25  GLY25       0.2639
     24  O          1.2060   19.5280   -4.3270 O.2    25  GLY25      -0.2714
     25  N          0.6390   17.6610   -3.2130 N.am   26  ILE26      -0.1963
     26  CA         1.6220   17.8670   -2.1390 C.3    26  ILE26       0.1727
     27  C          3.0450   17.9330   -2.7000 C.2    26  ILE26       0.2616
     28  O          3.4140   17.1650   -3.5860 O.2    26  ILE26      -0.2715
     29  CB         1.5200   16.7590   -1.0780 C.3    26  ILE26       0.0290
     30  CG1        0.2680   17.0030   -0.2260 C.3    26  ILE26       0.0022
     31  CG2        2.7910   16.6620   -0.2380 C.3    26  ILE26       0.0023
     32  CD1        0.0640   16.0010    0.8990 C.3    26  ILE26       0.0001
     33  N          3.8290   18.8800   -2.2050 N.am   27  LYS27      -0.1963
     34  CA         5.2380   18.9560   -2.5920 C.3    27  LYS27       0.1728
     35  C          6.1010   18.5810   -1.3980 C.2    27  LYS27       0.2616
     36  O          5.9180   19.1260   -0.2980 O.2    27  LYS27      -0.2715
     37  CB         5.5630   20.3530   -3.1260 C.3    27  LYS27       0.0311
     38  CG         7.0350   20.6200   -3.3970 C.3    27  LYS27       0.0038
     39  CD         7.1820   22.0760   -3.8140 C.3    27  LYS27       0.0206
     40  CE         8.6310   22.4610   -3.9590 C.3    27  LYS27       0.1093
     41  NZ         8.7350   23.8550   -4.4760 N.3    27  LYS27      -0.1314
     42  N          6.9980   17.6220   -1.6030 N.am   28  LEU28      -0.1963
     43  CA         7.9600   17.1760   -0.5920 C.3    28  LEU28       0.1728
     44  C          9.3440   17.6280   -1.0620 C.2    28  LEU28       0.2616
     45  O          9.6360   17.5790   -2.2480 O.2    28  LEU28      -0.2715
     46  CB         7.9490   15.6530   -0.4560 C.3    28  LEU28       0.0311
     47  CG         6.5910   15.0260   -0.1160 C.3    28  LEU28       0.0022
     48  CD1        6.6790   13.5150   -0.1700 C.3    28  LEU28       0.0001
     49  CD2        6.1020   15.4860    1.2530 C.3    28  LEU28       0.0001
     50  N         10.1800   18.0560   -0.1320 N.am   29  GLN29      -0.1977
     51  CA        11.4860   18.6580   -0.4620 C.3    29  GLN29       0.1601
     52  C         12.5730   17.9610    0.3420 C.2    29  GLN29       0.2287
     53  O         12.4970   17.9040    1.5550 O.2    29  GLN29      -0.2864
     54  CB        11.4760   20.1520   -0.1340 C.3    29  GLN29       0.0394
     55  CG        12.7120   20.9360   -0.6170 C.3    29  GLN29       0.0908
     56  CD        12.8260   21.1340   -2.1360 C.2    29  GLN29       0.2608
     57  OE1       13.9170   21.4730   -2.6520 O.2    29  GLN29      -0.2717
     58  NE2       11.7310   20.9360   -2.8580 N.am   29  GLN29      -0.0878
     59  N         14.9080   14.6450    4.7000 N.3    44  ASN44      -0.1240
     60  CA        15.1200   16.0490    5.0820 C.3    44  ASN44       0.1653
     61  C         15.4710   16.0460    6.5750 C.2    44  ASN44       0.2266
     62  O         16.4990   15.4890    6.9230 O.2    44  ASN44      -0.2867
     63  CB        13.9400   16.9450    4.6930 C.3    44  ASN44       0.1155
     64  CG        12.5820   16.2910    4.9410 C.2    44  ASN44       0.2627
     65  OD1       12.3420   15.6690    5.9810 O.2    44  ASN44      -0.2716
     66  ND2       11.6910   16.4360    3.9790 N.am   44  ASN44      -0.0877
     67  N          3.7630   12.1600   -8.7740 N.3    56  SER56      -0.1202
     68  CA         3.5810   12.6180  -10.1380 C.3    56  SER56       0.2020
     69  C          4.9200   12.9070  -10.8220 C.2    56  SER56       0.2619
     70  O          5.2060   12.3820  -11.9230 O.2    56  SER56      -0.2717
     71  CB         2.6240   13.8280  -10.1710 C.3    56  SER56       0.2103
     72  OG         3.1460   14.9770   -9.5140 O.3    56  SER56      -0.2182
     73  N          5.7550   13.7200  -10.1720 N.am   57  THR57      -0.1952
     74  CA         7.0190   14.1540  -10.7610 C.3    57  THR57       0.1897
     75  C          8.0920   14.2410   -9.7170 C.2    57  THR57       0.2313
     76  O          7.8010   14.4910   -8.5390 O.2    57  THR57      -0.2863
     77  CB         6.9290   15.5600  -11.3680 C.3    57  THR57       0.1794
     78  OG1        6.6550   16.5140  -10.3260 O.3    57  THR57      -0.2208
     79  CG2        5.8430   15.6330  -12.3690 C.3    57  THR57       0.0378
     80  N         11.6220   16.4310   -9.4280 N.3    59  VAL59      -0.1245
     81  CA        12.1830   17.6120  -10.0640 C.3    59  VAL59       0.1561
     82  C         13.4250   18.0530   -9.2900 C.2    59  VAL59       0.2260
     83  O         13.3050   18.4770   -8.1390 O.2    59  VAL59      -0.2867
     84  CB        11.1720   18.7630  -10.0730 C.3    59  VAL59       0.0252
     85  CG1       11.7100   19.9460  -10.8920 C.3    59  VAL59       0.0019
     86  CG2        9.8280   18.2820  -10.5950 C.3    59  VAL59       0.0019
@<TRIPOS>BOND
     1    79    77    1
     2    70    69    2
     3    77    74    1
     4    77    78    1
     5    85    84    1
     6    69    73   am
     7    69    68    1
     8    74    73    1
     9    74    75    1
    10    86    84    1
    11    71    68    1
    12    71    72    1
    13    68    67    1
    14    84    81    1
    15    81    80    1
    16    81    82    1
    17    75    76    2
    18    82    83    2
    19     9     7   ar
    20     9    11   ar
    21     7     6   ar
    22     6     5    1
    23     6     8   ar
    24     5     2    1
    25    11    12    1
    26    11    10   ar
    27     4     3    2
    28    10     8   ar
    29     3     2    1
    30     1     2    1
    31    13    14    1
    32    22    21    1
    33    22    23    1
    34    21    15   am
    35    14    15    1
    36    14    17    1
    37    15    16    2
    38    41    40    1
    39    24    23    2
    40    23    25   am
    41    40    39    1
    42    39    38    1
    43    28    27    2
    44    17    18    1
    45    38    37    1
    46    25    26    1
    47    37    34    1
    48    58    56   am
    49    19    18    2
    50    27    33   am
    51    27    26    1
    52    57    56    2
    53    34    33    1
    54    34    35    1
    55    18    20   am
    56    45    44    2
    57    26    29    1
    58    56    55    1
    59    42    35   am
    60    42    43    1
    61    35    36    2
    62    29    31    1
    63    29    30    1
    64    44    43    1
    65    44    50   am
    66    55    54    1
    67    43    46    1
    68    51    54    1
    69    51    50    1
    70    51    52    1
    71    46    47    1
    72    30    32    1
    73    48    47    1
    74    47    49    1
    75    52    53    2
    76    66    64   am
    77    63    64    1
    78    63    60    1
    79    59    60    1
    80    64    65    2
    81    60    61    1
    82    61    62    2
