@<TRIPOS>MOLECULE
tmp/4qvhA00.pdb
 179 175 0 0 0
SMALL
GASTEIGER

@<TRIPOS>ATOM
      1  N         94.3500    0.9000  150.8150 N.3    12  ASN12      -0.1240
      2  CA        93.3440   -0.0900  150.5320 C.3    12  ASN12       0.1653
      3  C         93.7070   -1.0570  149.4730 C.2    12  ASN12       0.2266
      4  O         94.4440   -0.7450  148.5600 O.2    12  ASN12      -0.2867
      5  CB        92.0190    0.5790  150.2070 C.3    12  ASN12       0.1155
      6  CG        90.8080   -0.3060  150.5900 C.2    12  ASN12       0.2627
      7  OD1       90.7310   -0.9180  151.6720 O.2    12  ASN12      -0.2716
      8  ND2       89.8920   -0.3550  149.7330 N.am   12  ASN12      -0.0877
      9  N         92.2170   -2.4130  147.0090 N.3    14  ASP14      -0.1225
     10  CA        91.7890   -2.1890  145.6300 C.3    14  ASP14       0.1805
     11  C         92.6240   -1.1430  144.9130 C.2    14  ASP14       0.2597
     12  O         92.4550   -0.9770  143.7160 O.2    14  ASP14      -0.2718
     13  CB        90.2810   -1.7730  145.5660 C.3    14  ASP14       0.1424
     14  CG        89.8720   -0.4890  146.5100 C.2    14  ASP14       0.3668
     15  OD1       90.7860    0.0900  147.1930 O.co2  14  ASP14      -0.2456
     16  OD2       88.6100   -0.1550  146.6020 O.co2  14  ASP14      -0.2456
     17  N         93.5590   -0.4830  145.6090 N.am   15  LYS15      -0.1979
     18  CA        94.4020    0.5150  144.9840 C.3    15  LYS15       0.1596
     19  C         95.7500   -0.0610  144.5740 C.2    15  LYS15       0.2287
     20  O         96.0430   -1.2260  144.8280 O.2    15  LYS15      -0.2864
     21  CB        94.6690    1.6630  145.9480 C.3    15  LYS15       0.0298
     22  CG        93.4460    2.1850  146.6960 C.3    15  LYS15       0.0038
     23  CD        92.5510    3.0330  145.9420 C.3    15  LYS15       0.0206
     24  CE        91.4650    3.5190  146.9370 C.3    15  LYS15       0.1093
     25  NZ        90.3440    3.6860  146.0790 N.3    15  LYS15      -0.1314
     26  N         90.2320    1.5270  157.2830 N.3    44  GLU44      -0.1245
     27  CA        89.5810    2.7820  157.6550 C.3    44  GLU44       0.1567
     28  C         88.9640    2.7140  159.0630 C.2    44  GLU44       0.2260
     29  O         88.8800    3.7620  159.7420 O.2    44  GLU44      -0.2867
     30  CB        88.5890    3.2270  156.5950 C.3    44  GLU44       0.0388
     31  CG        87.2160    2.6160  156.6340 C.3    44  GLU44       0.1160
     32  CD        87.1760    1.2230  156.0560 C.2    44  GLU44       0.3649
     33  OE1       88.2390    0.6120  155.8080 O.co2  44  GLU44      -0.2457
     34  OE2       86.0400    0.8030  155.7890 O.co2  44  GLU44      -0.2457
     35  N         93.4540    7.0100  152.6470 N.3    62  TRP62      -0.1227
     36  CA        92.0060    6.7550  152.4920 C.3    62  TRP62       0.1737
     37  C         91.3690    7.9400  151.8310 C.2    62  TRP62       0.2595
     38  O         91.9420    9.0190  151.8290 O.2    62  TRP62      -0.2718
     39  CB        91.3310    6.4180  153.8830 C.3    62  TRP62       0.0564
     40  CG        89.9550    5.8070  153.6900 C.ar   62  TRP62       0.0003
     41  CD1       88.7740    6.4660  153.6250 C.ar   62  TRP62       0.0946
     42  CD2       89.6630    4.4420  153.3510 C.ar   62  TRP62       0.0152
     43  NE1       87.7510    5.5940  153.3360 N.ar   62  TRP62      -0.2442
     44  CE2       88.2740    4.3410  153.1790 C.ar   62  TRP62       0.0810
     45  CE3       90.4350    3.2870  153.2280 C.ar   62  TRP62       0.0012
     46  CZ2       87.6440    3.1520  152.8840 C.ar   62  TRP62       0.0191
     47  CZ3       89.7860    2.0810  152.9190 C.ar   62  TRP62       0.0001
     48  CH2       88.4160    2.0350  152.7570 C.ar   62  TRP62       0.0015
     49  N         90.1730    7.8130  151.2830 N.am   63  ALA63      -0.1980
     50  CA        89.3730    8.9870  150.9390 C.3    63  ALA63       0.1597
     51  C         89.2490    9.9840  152.1430 C.2    63  ALA63       0.2287
     52  O         89.2610    9.5930  153.3240 O.2    63  ALA63      -0.2864
     53  CB        87.9900    8.6000  150.4220 C.3    63  ALA63       0.0319
     54  N         87.0230   11.6670  153.5000 N.3    65  ASP65      -0.1225
     55  CA        85.8580   11.7360  154.3680 C.3    65  ASP65       0.1805
     56  C         86.1000   11.1950  155.7920 C.2    65  ASP65       0.2597
     57  O         85.4210   11.6160  156.7260 O.2    65  ASP65      -0.2718
     58  CB        84.6080   11.0800  153.7480 C.3    65  ASP65       0.1424
     59  CG        84.7680    9.5500  153.5410 C.2    65  ASP65       0.3668
     60  OD1       85.7320    9.1400  152.8650 O.co2  65  ASP65      -0.2456
     61  OD2       83.9670    8.7610  154.1190 O.co2  65  ASP65      -0.2456
     62  N         86.9740   10.2070  155.9270 N.am   66  ARG66      -0.1979
     63  CA        87.2590    9.6210  157.2360 C.3    66  ARG66       0.1597
     64  C         88.1880   10.4810  158.1670 C.2    66  ARG66       0.2287
     65  O         88.3620   10.1820  159.3710 O.2    66  ARG66      -0.2864
     66  CB        87.9070    8.2580  157.0810 C.3    66  ARG66       0.0334
     67  CG        86.9240    7.2380  156.5260 C.3    66  ARG66       0.0492
     68  CD        86.2730    6.3720  157.5690 C.3    66  ARG66       0.2205
     69  NE        85.0860    5.6860  157.0100 N.pl3  66  ARG66      -0.0865
     70  CZ        84.2570    4.9870  157.7630 C.cat  66  ARG66       0.5346
     71  NH1       84.5380    4.8190  159.0820 N.pl3  66  ARG66       0.1354
     72  NH2       83.1750    4.4230  157.2410 N.pl3  66  ARG66       0.1354
     73  N         88.4100   10.7030  143.0680 N.3   111  GLU111     -0.1245
     74  CA        87.6930    9.4830  142.7200 C.3   111  GLU111      0.1567
     75  C         86.1960    9.7490  142.6170 C.2   111  GLU111      0.2260
     76  O         85.5860   10.3560  143.5140 O.2   111  GLU111     -0.2867
     77  CB        87.8190    8.4690  143.8650 C.3   111  GLU111      0.0388
     78  CG        89.2230    8.1150  144.2630 C.3   111  GLU111      0.1160
     79  CD        89.3100    7.1820  145.4500 C.2   111  GLU111      0.3649
     80  OE1       88.3080    6.9510  146.1840 O.co2 111  GLU111     -0.2457
     81  OE2       90.3740    6.5780  145.5900 O.co2 111  GLU111     -0.2457
     82  N         78.3680   -3.6210  143.6440 N.3   150  ASN150     -0.1240
     83  CA        78.4770   -3.9090  145.0660 C.3   150  ASN150      0.1653
     84  C         77.3320   -3.3070  145.8350 C.2   150  ASN150      0.2266
     85  O         77.3600   -2.1300  146.1220 O.2   150  ASN150     -0.2867
     86  CB        79.7850   -3.3840  145.6000 C.3   150  ASN150      0.1155
     87  CG        80.0750   -3.8010  147.0520 C.2   150  ASN150      0.2627
     88  OD1       79.3480   -4.5670  147.6230 O.2   150  ASN150     -0.2716
     89  ND2       81.1950   -3.2710  147.6310 N.am  150  ASN150     -0.0877
     90  N         78.1920   -2.0210  150.0700 N.3   153  GLU153     -0.1231
     91  CA        78.7900   -0.7240  150.5090 C.3   153  GLU153      0.1684
     92  C         77.9560    0.3970  149.9580 C.2   153  GLU153      0.2434
     93  O         77.7600    0.4870  148.7340 O.2   153  GLU153     -0.2733
     94  CB        80.2160   -0.6090  150.0150 C.3   153  GLU153      0.0402
     95  CG        81.2410   -1.4240  150.8200 C.3   153  GLU153      0.1161
     96  CD        81.4210   -0.8720  152.2470 C.2   153  GLU153      0.3649
     97  OE1       81.0570    0.2820  152.5460 O.co2 153  GLU153     -0.2457
     98  OE2       81.8300   -1.6690  153.0940 O.co2 153  GLU153     -0.2457
     99  N         77.4660    1.2770  150.8360 N.am  154  PRO154     -0.2718
    100  CA        76.5380    2.3050  150.4310 C.3   154  PRO154      0.1535
    101  C         77.1290    3.3260  149.5090 C.2   154  PRO154      0.2599
    102  O         76.3700    4.0470  148.8310 O.2   154  PRO154     -0.2715
    103  CB        76.0760    2.9430  151.7450 C.3   154  PRO154      0.0310
    104  CG        77.2340    2.6710  152.6860 C.3   154  PRO154      0.0237
    105  CD        77.6990    1.3170  152.2970 C.3   154  PRO154      0.0939
    106  N         78.4530    3.3390  149.3860 N.am  155  TYR155     -0.1960
    107  CA        79.1210    4.2290  148.3980 C.3   155  TYR155      0.1771
    108  C         78.5370    4.0100  147.0370 C.2   155  TYR155      0.2619
    109  O         78.3900    4.9750  146.2600 O.2   155  TYR155     -0.2715
    110  CB        80.5790    3.9290  148.3790 C.3   155  TYR155      0.0574
    111  CG        81.4940    4.7510  147.4740 C.ar  155  TYR155     -0.0198
    112  CD1       81.7850    6.0400  147.7600 C.ar  155  TYR155     -0.0009
    113  CD2       82.1670    4.1510  146.3770 C.ar  155  TYR155     -0.0009
    114  CE1       82.6900    6.7880  146.9770 C.ar  155  TYR155      0.0417
    115  CE2       83.0570    4.8690  145.6160 C.ar  155  TYR155      0.0417
    116  CZ        83.2970    6.1800  145.9000 C.ar  155  TYR155      0.1957
    117  OH        84.2090    6.8660  145.1240 O.3   155  TYR155     -0.2866
    118  N         78.2590    2.7470  146.7020 N.am  156  PHE156     -0.1974
    119  CA        77.8520    2.3700  145.3250 C.3   156  PHE156      0.1639
    120  C         76.3490    2.6480  145.0340 C.2   156  PHE156      0.2290
    121  O         75.9610    2.8460  143.8780 O.2   156  PHE156     -0.2864
    122  CB        78.1830    0.8570  144.9970 C.3   156  PHE156      0.0560
    123  CG        79.6640    0.5580  145.0160 C.ar  156  PHE156     -0.0200
    124  CD1       80.2900    0.3410  146.2290 C.ar  156  PHE156     -0.0042
    125  CD2       80.4450    0.6150  143.8510 C.ar  156  PHE156     -0.0042
    126  CE1       81.6510    0.1530  146.3030 C.ar  156  PHE156     -0.0003
    127  CE2       81.8430    0.4330  143.9390 C.ar  156  PHE156     -0.0003
    128  CZ        82.4240    0.1590  145.1430 C.ar  156  PHE156     -0.0000
    129  N         90.0460    2.6190  139.9100 N.3   230  TRP230     -0.1241
    130  CA        90.8950    1.5790  140.3260 C.3   230  TRP230      0.1605
    131  C         90.5090    0.2850  139.5920 C.2   230  TRP230      0.2264
    132  O         91.3320   -0.6140  139.4950 O.2   230  TRP230     -0.2867
    133  CB        90.8240    1.3600  141.8600 C.3   230  TRP230      0.0550
    134  CG        89.4660    1.2720  142.3880 C.ar  230  TRP230      0.0003
    135  CD1       88.7140    0.1440  142.5060 C.ar  230  TRP230      0.0946
    136  CD2       88.6440    2.3510  142.7940 C.ar  230  TRP230      0.0152
    137  NE1       87.4290    0.4480  142.9070 N.ar  230  TRP230     -0.2442
    138  CE2       87.3660    1.7880  143.1610 C.ar  230  TRP230      0.0810
    139  CE3       88.8460    3.7440  142.9350 C.ar  230  TRP230      0.0012
    140  CZ2       86.3140    2.5580  143.6430 C.ar  230  TRP230      0.0191
    141  CZ3       87.7390    4.5380  143.4520 C.ar  230  TRP230      0.0001
    142  CH2       86.5060    3.9280  143.7790 C.ar  230  TRP230      0.0015
    143  N         85.3320   11.3210  146.4410 N.3   259  GLY259     -0.1225
    144  CA        86.4180   11.1790  147.4220 C.3   259  GLY259      0.1811
    145  C         87.7300   11.7130  146.8590 C.2   259  GLY259      0.2280
    146  O         87.9970   11.5800  145.6430 O.2   259  GLY259     -0.2866
    147  N         82.5180   14.7470  149.3120 N.3   329  MET329     -0.1245
    148  CA        82.0560   14.3400  150.6280 C.3   329  MET329      0.1570
    149  C         82.4660   15.3590  151.6790 C.2   329  MET329      0.2261
    150  O         83.5280   15.9300  151.5880 O.2   329  MET329     -0.2867
    151  CB        82.6550   13.0090  151.0270 C.3   329  MET329      0.0387
    152  CG        82.1300   11.8530  150.2470 C.3   329  MET329      0.0595
    153  SD        82.7090   10.2360  150.7120 S.3   329  MET329     -0.1393
    154  CE        84.2870   10.2150  150.0400 C.3   329  MET329      0.0692
    155  N         77.7930    6.8520  157.2680 N.3   339  TRP339     -0.1241
    156  CA        78.0080    5.6820  156.4560 C.3   339  TRP339      0.1605
    157  C         77.4690    4.4130  157.0760 C.2   339  TRP339      0.2264
    158  O         76.9410    3.6140  156.3890 O.2   339  TRP339     -0.2867
    159  CB        79.4650    5.4950  156.0600 C.3   339  TRP339      0.0550
    160  CG        79.9460    6.4380  154.9650 C.ar  339  TRP339      0.0003
    161  CD1       81.0000    7.3130  155.0530 C.ar  339  TRP339      0.0946
    162  CD2       79.3870    6.6170  153.6340 C.ar  339  TRP339      0.0152
    163  NE1       81.1640    7.9830  153.8290 N.ar  339  TRP339     -0.2442
    164  CE2       80.1950    7.5640  152.9540 C.ar  339  TRP339      0.0810
    165  CE3       78.3100    6.0560  152.9460 C.ar  339  TRP339      0.0012
    166  CZ2       79.9480    7.9290  151.6270 C.ar  339  TRP339      0.0191
    167  CZ3       78.0810    6.4120  151.6210 C.ar  339  TRP339      0.0001
    168  CH2       78.8880    7.3430  150.9900 C.ar  339  TRP339      0.0015
    169  N         74.7380    2.2130  155.2060 N.3   343  ARG343     -0.1245
    170  CA        75.0720    0.8240  154.9200 C.3   343  ARG343      0.1563
    171  C         74.0040   -0.1240  155.4260 C.2   343  ARG343      0.2260
    172  O         73.5820   -1.0570  154.7340 O.2   343  ARG343     -0.2867
    173  CB        76.4550    0.4520  155.4980 C.3   343  ARG343      0.0307
    174  CG        76.8710   -1.0190  155.2380 C.3   343  ARG343      0.0489
    175  CD        78.1570   -1.4210  155.9660 C.3   343  ARG343      0.2205
    176  NE        79.2620   -0.6340  155.4850 N.pl3 343  ARG343     -0.0865
    177  CZ        79.9410    0.3430  156.1020 C.cat 343  ARG343      0.5346
    178  NH1       79.7670    0.6930  157.3850 N.pl3 343  ARG343      0.1354
    179  NH2       80.9000    0.9770  155.3720 N.pl3 343  ARG343      0.1354
@<TRIPOS>BOND
     1   132   131    2
     2   131   130    1
     3   129   130    1
     4   130   133    1
     5   133   134    1
     6   134   135   ar
     7   134   136   ar
     8   135   137   ar
     9    75    74    1
    10    75    76    2
    11    74    73    1
    12    74    77    1
    13   136   139   ar
    14   136   138   ar
    15   137   138   ar
    16   139   141   ar
    17   138   140   ar
    18   141   142   ar
    19   140   142   ar
    20    82    83    1
    21    12    11    2
    22   125   127   ar
    23   125   123   ar
    24    77    78    1
    25   121   120    2
    26   127   128   ar
    27    78    79    1
    28    19    20    2
    29    19    18    1
    30    11    17   am
    31    11    10    1
    32    18    17    1
    33    18    21    1
    34   122   123    1
    35   122   119    1
    36   123   124   ar
    37   120   119    1
    38    83    86    1
    39    83    84    1
    40   117   116    1
    41   128   126   ar
    42   119   118    1
    43    79    81   ar
    44    79    80   ar
    45    13    10    1
    46    13    14    1
    47    86    87    1
    48   115   116   ar
    49   115   113   ar
    50    10     9    1
    51   146   145    2
    52    84    85    2
    53   116   114   ar
    54    23    22    1
    55    23    24    1
    56    21    22    1
    57    25    24    1
    58   124   126   ar
    59   109   108    2
    60   113   111   ar
    61   143   144    1
    62    14    16   ar
    63    14    15   ar
    64   118   108   am
    65   145   144    1
    66   114   112   ar
    67   108   107    1
    68    87    88    2
    69    87    89   am
    70   111   112   ar
    71   111   110    1
    72   110   107    1
    73   107   106    1
    74     4     3    2
    75    93    92    2
    76   102   101    2
    77   147   148    1
    78   106   101   am
    79     3     2    1
    80   101   100    1
    81     8     6   am
    82    92    91    1
    83    92    99   am
    84    94    91    1
    85    94    95    1
    86   154   153    1
    87    90    91    1
    88     5     2    1
    89     5     6    1
    90   152   153    1
    91   152   151    1
    92    53    50    1
    93   100    99    1
    94   100   103    1
    95     2     1    1
    96     6     7    2
    97   148   151    1
    98   148   149    1
    99    95    96    1
   100    99   105    1
   101    50    49    1
   102    50    51    1
   103   168   167   ar
   104   168   166   ar
   105    49    37   am
   106   150   149    2
   107   167   165   ar
   108   166   164   ar
   109   103   104    1
   110    38    37    2
   111    37    36    1
   112    51    52    2
   113    96    97   ar
   114    96    98   ar
   115   105   104    1
   116    36    35    1
   117    36    39    1
   118    48    46   ar
   119    48    47   ar
   120    60    59   ar
   121    46    44   ar
   122    47    45   ar
   123   165   162   ar
   124   164   162   ar
   125   164   163   ar
   126    44    43   ar
   127    44    42   ar
   128    45    42   ar
   129    43    41   ar
   130    42    40   ar
   131    54    55    1
   132    59    58    1
   133    59    61   ar
   134    41    40   ar
   135   162   160   ar
   136    40    39    1
   137    58    55    1
   138   163   161   ar
   139    55    56    1
   140   172   171    2
   141   170   169    1
   142   170   171    1
   143   170   173    1
   144   160   161   ar
   145   160   159    1
   146   174   173    1
   147   174   175    1
   148   179   177    1
   149   176   175    1
   150   176   177    2
   151    34    32   ar
   152    56    62   am
   153    56    57    2
   154    33    32   ar
   155    62    63    1
   156    32    31    1
   157   159   156    1
   158   177   178    1
   159   158   157    2
   160   156   157    1
   161   156   155    1
   162    67    66    1
   163    67    68    1
   164    30    31    1
   165    30    27    1
   166    69    68    1
   167    69    70    2
   168    66    63    1
   169    63    64    1
   170    72    70    1
   171    26    27    1
   172    27    28    1
   173    70    71    1
   174    64    65    2
   175    28    29    2
