@<TRIPOS>MOLECULE
tmp/4qvhA01.pdb
 245 242 0 0 0
SMALL
GASTEIGER

@<TRIPOS>ATOM
      1  N         67.6010    1.6370  182.5520 N.3   417  ARG417     -0.1245
      2  CA        67.9500    0.3240  182.0430 C.3   417  ARG417      0.1563
      3  C         67.6560    0.2420  180.5530 C.2   417  ARG417      0.2260
      4  O         68.5020   -0.2410  179.7770 O.2   417  ARG417     -0.2867
      5  CB        67.2260   -0.7670  182.8250 C.3   417  ARG417      0.0307
      6  CG        67.3060   -2.1620  182.2250 C.3   417  ARG417      0.0489
      7  CD        68.7430   -2.6220  182.0880 C.3   417  ARG417      0.2205
      8  NE        68.7810   -3.9790  181.5170 N.pl3 417  ARG417     -0.0865
      9  CZ        69.8670   -4.5170  180.9540 C.cat 417  ARG417      0.5346
     10  NH1       70.9680   -3.8080  180.8110 N.pl3 417  ARG417      0.1354
     11  NH2       69.8280   -5.7450  180.4810 N.pl3 417  ARG417      0.1354
     12  N         70.6620   -0.3570  177.7000 N.3   421  PHE421     -0.1241
     13  CA        70.5140   -1.6020  176.9260 C.3   421  PHE421      0.1605
     14  C         70.5160   -1.2540  175.4440 C.2   421  PHE421      0.2264
     15  O         71.1970   -1.9040  174.6630 O.2   421  PHE421     -0.2867
     16  CB        69.1730   -2.3010  177.3350 C.3   421  PHE421      0.0534
     17  CG        68.7610   -3.4950  176.5170 C.ar  421  PHE421     -0.0203
     18  CD1       68.0940   -3.3690  175.2960 C.ar  421  PHE421     -0.0042
     19  CD2       69.0090   -4.7860  176.9920 C.ar  421  PHE421     -0.0042
     20  CE1       67.6860   -4.4600  174.5880 C.ar  421  PHE421     -0.0003
     21  CE2       68.6110   -5.8920  176.2550 C.ar  421  PHE421     -0.0003
     22  CZ        67.9110   -5.7520  175.0610 C.ar  421  PHE421     -0.0000
     23  N         74.0260    0.4620  174.2220 N.3   424  VAL424     -0.1231
     24  CA        75.1210   -0.4740  174.1020 C.3   424  VAL424      0.1692
     25  C         74.9630   -1.4670  172.9730 C.2   424  VAL424      0.2591
     26  O         75.9720   -1.9050  172.3730 O.2   424  VAL424     -0.2718
     27  CB        75.3870   -1.2020  175.4470 C.3   424  VAL424      0.0266
     28  CG1       74.5360   -2.4170  175.5560 C.3   424  VAL424      0.0020
     29  CG2       76.8580   -1.5130  175.5600 C.3   424  VAL424      0.0020
     30  N         73.7320   -1.8310  172.6530 N.am  425  ARG425     -0.1980
     31  CA        73.5420   -2.7570  171.5310 C.3   425  ARG425      0.1597
     32  C         73.7010   -2.0810  170.1960 C.2   425  ARG425      0.2287
     33  O         74.0220   -2.7310  169.2260 O.2   425  ARG425     -0.2864
     34  CB        72.2250   -3.4990  171.6430 C.3   425  ARG425      0.0334
     35  CG        72.3010   -4.5440  172.7770 C.3   425  ARG425      0.0492
     36  CD        70.9580   -5.0620  173.3120 C.3   425  ARG425      0.2205
     37  NE        71.1780   -6.2940  174.1040 N.pl3 425  ARG425     -0.0865
     38  CZ        71.7590   -6.3220  175.3010 C.cat 425  ARG425      0.5346
     39  NH1       72.1050   -5.2020  175.8850 N.pl3 425  ARG425      0.1354
     40  NH2       72.0100   -7.4650  175.9050 N.pl3 425  ARG425      0.1354
     41  N         70.0660  -12.2520  175.8590 N.3   444  LYS444     -0.1245
     42  CA        70.7440  -12.6120  177.1180 C.3   444  LYS444      0.1561
     43  C         70.4310  -14.0440  177.4460 C.2   444  LYS444      0.2260
     44  O         69.2440  -14.4740  177.3620 O.2   444  LYS444     -0.2867
     45  CB        70.2690  -11.7030  178.2260 C.3   444  LYS444      0.0271
     46  CG        70.7210  -10.2340  178.0940 C.3   444  LYS444      0.0035
     47  CD        70.1590   -9.2650  179.0960 C.3   444  LYS444      0.0206
     48  CE        70.5920   -9.5680  180.5440 C.3   444  LYS444      0.1093
     49  NZ        72.0440   -9.3490  180.7660 N.3   444  LYS444     -0.1314
     50  N         72.5980  -17.5980  179.5300 N.3   446  ASP446     -0.1225
     51  CA        72.9830  -18.1610  180.8160 C.3   446  ASP446      0.1805
     52  C         73.5130  -17.0610  181.7290 C.2   446  ASP446      0.2598
     53  O         74.5630  -16.3590  181.4010 O.2   446  ASP446     -0.2718
     54  CB        74.0880  -19.2490  180.6010 C.3   446  ASP446      0.1424
     55  CG        73.5820  -20.4930  179.8530 C.2   446  ASP446      0.3668
     56  OD1       72.3410  -20.6690  179.7850 O.co2 446  ASP446     -0.2456
     57  OD2       74.4620  -21.2350  179.2880 O.co2 446  ASP446     -0.2456
     58  N         72.8830  -16.9320  182.9230 N.am  447  LYS447     -0.1966
     59  CA        73.2910  -15.9590  183.8970 C.3   447  LYS447      0.1728
     60  C         73.4520  -14.5330  183.2970 C.2   447  LYS447      0.2617
     61  O         74.3200  -13.7670  183.7550 O.2   447  LYS447     -0.2715
     62  CB        74.5840  -16.3720  184.6130 C.3   447  LYS447      0.0311
     63  CG        74.5360  -17.6710  185.4180 C.3   447  LYS447      0.0038
     64  CD        73.4960  -17.5730  186.5220 C.3   447  LYS447      0.0206
     65  CE        73.3710  -18.9420  187.1980 C.3   447  LYS447      0.1093
     66  NZ        72.5370  -18.7930  188.4180 N.3   447  LYS447     -0.1314
     67  N         72.6370  -14.2330  182.3040 N.am  448  GLY448     -0.1940
     68  CA        72.6500  -12.8990  181.6380 C.3   448  GLY448      0.2014
     69  C         73.7130  -12.6330  180.5450 C.2   448  GLY448      0.2639
     70  O         73.7620  -11.5300  180.0290 O.2   448  GLY448     -0.2714
     71  N         74.5380  -13.6440  180.2450 N.am  449  GLU449     -0.1963
     72  CA        75.5730  -13.5900  179.2280 C.3   449  GLU449      0.1718
     73  C         74.9650  -13.1400  177.9030 C.2   449  GLU449      0.2458
     74  O         73.9200  -13.6480  177.4510 O.2   449  GLU449     -0.2730
     75  CB        76.0770  -15.0420  179.0840 C.3   449  GLU449      0.0428
     76  CG        77.1420  -15.2820  178.1060 C.3   449  GLU449      0.1163
     77  CD        77.5120  -16.7510  177.9560 C.2   449  GLU449      0.3649
     78  OE1       77.0220  -17.6820  178.6600 O.co2 449  GLU449     -0.2457
     79  OE2       78.2120  -16.9530  176.9910 O.co2 449  GLU449     -0.2457
     80  N         75.6160  -12.1780  177.2260 N.am  450  PRO450     -0.2727
     81  CA        75.1120  -11.8190  175.9030 C.3   450  PRO450      0.1402
     82  C         75.3080  -12.9020  174.8380 C.2   450  PRO450      0.2269
     83  O         76.2350  -13.6740  174.9110 O.2   450  PRO450     -0.2865
     84  CB        75.8760  -10.5210  175.5940 C.3   450  PRO450      0.0296
     85  CG        77.1570  -10.6610  176.3370 C.3   450  PRO450      0.0237
     86  CD        76.7710  -11.3710  177.6210 C.3   450  PRO450      0.0939
     87  N         81.8440   -8.5470  174.3910 N.3   459  SER459     -0.1202
     88  CA        81.4140   -8.0830  175.7140 C.3   459  SER459      0.2020
     89  C         80.8480   -6.6540  175.6610 C.2   459  SER459      0.2619
     90  O         81.1790   -5.8710  174.7770 O.2   459  SER459     -0.2717
     91  CB        82.5920   -8.2060  176.7230 C.3   459  SER459      0.2103
     92  OG        82.2450   -7.8530  178.0570 O.3   459  SER459     -0.2182
     93  N         79.9210   -6.3820  176.5620 N.am  460  LEU460     -0.1965
     94  CA        79.2320   -5.1340  176.6840 C.3   460  LEU460      0.1728
     95  C         79.4470   -4.5180  178.0470 C.2   460  LEU460      0.2617
     96  O         79.5230   -5.2160  179.0600 O.2   460  LEU460     -0.2715
     97  CB        77.7040   -5.3740  176.5330 C.3   460  LEU460      0.0311
     98  CG        77.2550   -6.0390  175.2570 C.3   460  LEU460      0.0022
     99  CD1       75.7590   -6.3470  175.3230 C.3   460  LEU460      0.0001
    100  CD2       77.5180   -5.1730  174.0630 C.3   460  LEU460      0.0001
    101  N         79.4350   -3.1880  178.1010 N.am  461  THR461     -0.1937
    102  CA        79.5530   -2.4740  179.3820 C.3   461  THR461      0.2028
    103  C         78.8210   -1.1200  179.3230 C.2   461  THR461      0.2642
    104  O         78.7290   -0.4980  178.2620 O.2   461  THR461     -0.2714
    105  CB        81.0440   -2.3050  179.7930 C.3   461  THR461      0.1808
    106  OG1       81.0980   -1.7920  181.1290 O.3   461  THR461     -0.2208
    107  CG2       81.7890   -1.3420  178.9010 C.3   461  THR461      0.0379
    108  N         78.1930   -0.7290  180.4320 N.am  462  HIS462     -0.1973
    109  CA        77.4990    0.5710  180.4970 C.3   462  HIS462      0.1656
    110  C         77.4990    1.0100  181.9270 C.2   462  HIS462      0.2291
    111  O         76.9870    0.2630  182.7860 O.2   462  HIS462     -0.2864
    112  CB        76.0470    0.5190  180.0010 C.3   462  HIS462      0.0771
    113  CG        75.3370   -0.8080  180.1400 C.ar  462  HIS462      0.0820
    114  ND1       75.1590   -1.4730  181.3580 N.ar  462  HIS462     -0.2267
    115  CD2       74.6680   -1.5530  179.2140 C.ar  462  HIS462      0.1154
    116  CE1       74.4900   -2.6030  181.1550 C.ar  462  HIS462      0.1986
    117  NE2       74.1760   -2.6800  179.8570 N.ar  462  HIS462     -0.2212
    118  N         85.0910   -3.9210  180.8420 N.3   483  ASP483     -0.1225
    119  CA        84.2910   -3.3080  181.8780 C.3   483  ASP483      0.1805
    120  C         84.6940   -1.8350  182.0210 C.2   483  ASP483      0.2598
    121  O         85.8700   -1.4980  182.0220 O.2   483  ASP483     -0.2718
    122  CB        84.4750   -3.9950  183.2450 C.3   483  ASP483      0.1424
    123  CG        83.3250   -3.7050  184.1830 C.2   483  ASP483      0.3668
    124  OD1       83.3520   -2.5680  184.7480 O.co2 483  ASP483     -0.2456
    125  OD2       82.3920   -4.5760  184.2910 O.co2 483  ASP483     -0.2456
    126  N         83.6880   -0.9870  182.1220 N.am  484  ALA484     -0.1966
    127  CA        83.9140    0.4300  182.3800 C.3   484  ALA484      0.1728
    128  C         83.3330    0.7610  183.7340 C.2   484  ALA484      0.2616
    129  O         82.1840    0.3480  184.1000 O.2   484  ALA484     -0.2715
    130  CB        83.2550    1.2440  181.2980 C.3   484  ALA484      0.0334
    131  N         84.0670    1.5950  184.4790 N.am  485  GLU485     -0.1977
    132  CA        83.5360    2.1590  185.7440 C.3   485  GLU485      0.1602
    133  C         83.8810    3.6380  185.8260 C.2   485  GLU485      0.2287
    134  O         84.9010    4.0960  185.3250 O.2   485  GLU485     -0.2864
    135  CB        84.1670    1.4890  186.9570 C.3   485  GLU485      0.0415
    136  CG        83.7500    0.0370  187.2030 C.3   485  GLU485      0.1163
    137  CD        82.3640   -0.1350  187.7870 C.2   485  GLU485      0.3649
    138  OE1       82.0460    0.7150  188.6480 O.co2 485  GLU485     -0.2457
    139  OE2       81.6360   -1.1500  187.4620 O.co2 485  GLU485     -0.2457
    140  N         88.1580   -7.0140  188.1820 N.3   525  LYS525     -0.1231
    141  CA        87.5160   -8.2190  188.6460 C.3   525  LYS525      0.1693
    142  C         86.2740   -8.5520  187.7870 C.2   525  LYS525      0.2591
    143  O         85.9810   -9.7090  187.4610 O.2   525  LYS525     -0.2718
    144  CB        87.0500   -8.0710  190.0930 C.3   525  LYS525      0.0285
    145  CG        88.2020   -7.8340  191.1330 C.3   525  LYS525      0.0035
    146  CD        88.6090   -9.0660  191.9280 C.3   525  LYS525      0.0206
    147  CE        89.8400   -8.7930  192.8250 C.3   525  LYS525      0.1093
    148  NZ        90.0880   -9.8380  193.8580 N.3   525  LYS525     -0.1314
    149  N         85.5270   -7.5040  187.4850 N.am  526  GLU526     -0.1979
    150  CA        84.2670   -7.6300  186.7130 C.3   526  GLU526      0.1602
    151  C         84.5820   -8.0360  185.2990 C.2   526  GLU526      0.2287
    152  O         83.8590   -8.8990  184.7630 O.2   526  GLU526     -0.2864
    153  CB        83.5010   -6.3270  186.7340 C.3   526  GLU526      0.0415
    154  CG        82.9870   -5.9900  188.1390 C.3   526  GLU526      0.1163
    155  CD        82.3260   -4.6040  188.1680 C.2   526  GLU526      0.3649
    156  OE1       82.9570   -3.6000  187.7610 O.co2 526  GLU526     -0.2457
    157  OE2       81.1600   -4.5810  188.5490 O.co2 526  GLU526     -0.2457
    158  N         87.0350   -9.7530  184.4430 N.3   528  THR528     -0.1203
    159  CA        87.5220  -11.1220  184.5530 C.3   528  THR528      0.1994
    160  C         86.3320  -12.0670  184.5070 C.2   528  THR528      0.2618
    161  O         86.3320  -13.0500  183.7720 O.2   528  THR528     -0.2717
    162  CB        88.3680  -11.2800  185.8650 C.3   528  THR528      0.1784
    163  OG1       89.5290  -10.4380  185.7860 O.3   528  THR528     -0.2211
    164  CG2       88.8450  -12.6560  186.0190 C.3   528  THR528      0.0376
    165  N         85.3320  -11.8190  185.3030 N.am  529  TYR529     -0.1961
    166  CA        84.1170  -12.6140  185.2450 C.3   529  TYR529      0.1771
    167  C         83.5040  -12.6990  183.8290 C.2   529  TYR529      0.2619
    168  O         83.0890  -13.7510  183.4370 O.2   529  TYR529     -0.2715
    169  CB        83.0680  -12.0600  186.1610 C.3   529  TYR529      0.0574
    170  CG        81.7440  -12.8370  186.1260 C.ar  529  TYR529     -0.0198
    171  CD1       81.5970  -14.0280  186.7780 C.ar  529  TYR529     -0.0009
    172  CD2       80.6300  -12.3390  185.4520 C.ar  529  TYR529     -0.0009
    173  CE1       80.4220  -14.7230  186.8020 C.ar  529  TYR529      0.0417
    174  CE2       79.4180  -13.0110  185.4670 C.ar  529  TYR529      0.0417
    175  CZ        79.3260  -14.2250  186.1350 C.ar  529  TYR529      0.1957
    176  OH        78.1370  -14.9470  186.1320 O.3   529  TYR529     -0.2866
    177  N         83.4440  -11.5910  183.1060 N.am  530  LYS530     -0.1977
    178  CA        82.7950  -11.5880  181.7950 C.3   530  LYS530      0.1596
    179  C         83.5820  -12.4050  180.8210 C.2   530  LYS530      0.2287
    180  O         82.9730  -13.0170  179.9460 O.2   530  LYS530     -0.2864
    181  CB        82.5990  -10.1250  181.3220 C.3   530  LYS530      0.0298
    182  CG        81.6960   -9.2970  182.1800 C.3   530  LYS530      0.0038
    183  CD        81.4420   -7.9610  181.4510 C.3   530  LYS530      0.0206
    184  CE        80.9560   -6.8810  182.3180 C.3   530  LYS530      0.1093
    185  NZ        80.9570   -5.6090  181.5050 N.3   530  LYS530     -0.1314
    186  N         83.0780  -16.4150  182.2160 N.3   533  PHE533     -0.1228
    187  CA        81.8310  -17.1610  182.2750 C.3   533  PHE533      0.1721
    188  C         81.4080  -17.8630  180.9500 C.2   533  PHE533      0.2437
    189  O         80.9920  -19.0120  180.9690 O.2   533  PHE533     -0.2733
    190  CB        80.7040  -16.2720  182.8090 C.3   533  PHE533      0.0547
    191  CG        79.4360  -17.0550  182.9760 C.ar  533  PHE533     -0.0202
    192  CD1       79.1860  -17.7090  184.1650 C.ar  533  PHE533     -0.0042
    193  CD2       78.5400  -17.2070  181.9350 C.ar  533  PHE533     -0.0042
    194  CE1       78.1030  -18.5190  184.3200 C.ar  533  PHE533     -0.0003
    195  CE2       77.3950  -17.9950  182.0880 C.ar  533  PHE533     -0.0003
    196  CZ        77.1980  -18.6610  183.2750 C.ar  533  PHE533     -0.0000
    197  N         81.5840  -17.2100  179.7890 N.am  534  PRO534     -0.2729
    198  CA        81.2090  -17.9380  178.5440 C.3   534  PRO534      0.1401
    199  C         81.9610  -19.2410  178.3260 C.2   534  PRO534      0.2269
    200  O         81.4240  -20.1730  177.7380 O.2   534  PRO534     -0.2865
    201  CB        81.5120  -16.9350  177.4180 C.3   534  PRO534      0.0296
    202  CG        81.3380  -15.6050  178.0870 C.3   534  PRO534      0.0237
    203  CD        81.9220  -15.7910  179.4970 C.3   534  PRO534      0.0939
    204  N         80.1750  -19.7690  188.2830 N.3   539  TRP539     -0.1227
    205  CA        80.4150  -18.5760  189.0920 C.3   539  TRP539      0.1737
    206  C         81.9150  -18.3800  189.3690 C.2   539  TRP539      0.2595
    207  O         82.6850  -19.3510  189.5070 O.2   539  TRP539     -0.2718
    208  CB        79.6420  -18.7110  190.4190 C.3   539  TRP539      0.0564
    209  CG        79.9190  -17.6430  191.4370 C.ar  539  TRP539      0.0003
    210  CD1       80.6510  -17.7930  192.6120 C.ar  539  TRP539      0.0946
    211  CD2       79.5110  -16.2680  191.3880 C.ar  539  TRP539      0.0152
    212  NE1       80.7100  -16.5760  193.2890 N.ar  539  TRP539     -0.2442
    213  CE2       79.9830  -15.6450  192.5890 C.ar  539  TRP539      0.0810
    214  CE3       78.7970  -15.4990  190.4660 C.ar  539  TRP539      0.0012
    215  CZ2       79.7610  -14.2830  192.8680 C.ar  539  TRP539      0.0191
    216  CZ3       78.5190  -14.1360  190.7910 C.ar  539  TRP539      0.0001
    217  CH2       79.0230  -13.5640  191.9700 C.ar  539  TRP539      0.0015
    218  N         82.2990  -17.1160  189.4220 N.am  540  LEU540     -0.1966
    219  CA        83.6000  -16.7010  189.8690 C.3   540  LEU540      0.1728
    220  C         83.3770  -15.5390  190.8140 C.2   540  LEU540      0.2617
    221  O         82.8830  -14.4780  190.3780 O.2   540  LEU540     -0.2715
    222  CB        84.5250  -16.3080  188.7130 C.3   540  LEU540      0.0311
    223  CG        85.9540  -15.9180  189.0800 C.3   540  LEU540      0.0022
    224  CD1       86.7300  -17.1680  189.4080 C.3   540  LEU540      0.0001
    225  CD2       86.6410  -15.1990  187.8910 C.3   540  LEU540      0.0001
    226  N         83.6890  -15.7410  192.1140 N.am  541  GLY541     -0.1940
    227  CA        83.5490  -14.6700  193.0790 C.3   541  GLY541      0.2014
    228  C         84.6950  -13.6600  193.0860 C.2   541  GLY541      0.2638
    229  O         85.7680  -13.8990  192.5520 O.2   541  GLY541     -0.2714
    230  N         84.5170  -12.5380  193.7680 N.am  542  PHE542     -0.1973
    231  CA        85.6110  -11.5590  193.8340 C.3   542  PHE542      0.1639
    232  C         86.8520  -12.0660  194.5890 C.2   542  PHE542      0.2290
    233  O         87.9770  -11.6210  194.3190 O.2   542  PHE542     -0.2864
    234  CB        85.1410  -10.2040  194.4410 C.3   542  PHE542      0.0560
    235  CG        84.1630   -9.4640  193.5970 C.ar  542  PHE542     -0.0200
    236  CD1       84.6190   -8.6160  192.6360 C.ar  542  PHE542     -0.0042
    237  CD2       82.7890   -9.7050  193.7390 C.ar  542  PHE542     -0.0042
    238  CE1       83.6940   -7.9300  191.8420 C.ar  542  PHE542     -0.0003
    239  CE2       81.8840   -9.0430  192.9550 C.ar  542  PHE542     -0.0003
    240  CZ        82.3290   -8.1460  192.0300 C.ar  542  PHE542     -0.0000
    241  N         89.7300  -14.6700  192.5750 N.3   545  ALA545     -0.1245
    242  CA        90.8020  -14.2090  191.7550 C.3   545  ALA545      0.1562
    243  C         91.7180  -13.2100  192.4490 C.2   545  ALA545      0.2260
    244  O         91.2390  -12.2220  193.0700 O.2   545  ALA545     -0.2867
    245  CB        90.3030  -13.5520  190.4700 C.3   545  ALA545      0.0290
@<TRIPOS>BOND
     1    33    32    2
     2    32    31    1
     3    31    34    1
     4    31    30    1
     5    34    35    1
     6    26    25    2
     7    30    25   am
     8    35    36    1
     9    25    24    1
    10    36    37    1
    11   100    98    1
    12    24    23    1
    13    24    27    1
    14    37    38    2
    15    87    88    1
    16    20    22   ar
    17    20    18   ar
    18    15    14    2
    19    90    89    2
    20    82    83    2
    21    82    81    1
    22    22    21   ar
    23    98    99    1
    24    98    97    1
    25    18    17   ar
    26    38    39    1
    27    38    40    1
    28    14    13    1
    29    27    28    1
    30    27    29    1
    31    84    81    1
    32    84    85    1
    33    89    88    1
    34    89    93   am
    35    88    91    1
    36    41    42    1
    37    81    80    1
    38    21    19   ar
    39    85    86    1
    40    17    19   ar
    41    17    16    1
    42    97    94    1
    43    93    94    1
    44    94    95    1
    45    91    92    1
    46    13    16    1
    47    13    12    1
    48    79    77   ar
    49    42    43    1
    50    42    45    1
    51    80    86    1
    52    80    73   am
    53    44    43    2
    54   201   202    1
    55   201   198    1
    56    74    73    2
    57   200   199    2
    58    73    72    1
    59    77    76    1
    60    77    78   ar
    61    95   101   am
    62    95    96    2
    63   202   203    1
    64    46    45    1
    65    46    47    1
    66   101   102    1
    67    76    75    1
    68   104   103    2
    69   199   198    1
    70   198   197    1
    71   107   105    1
    72    75    72    1
    73    47    48    1
    74   115   117   ar
    75   115   113   ar
    76    72    71    1
    77    57    55   ar
    78   103   102    1
    79   103   108   am
    80   102   105    1
    81   203   197    1
    82    50    51    1
    83     4     3    2
    84    56    55   ar
    85   197   188   am
    86   105   106    1
    87    55    54    1
    88   117   116   ar
    89   180   179    2
    90   112   113    1
    91   112   109    1
    92    70    69    2
    93   113   114   ar
    94    71    69   am
    95   108   109    1
    96    11     9    1
    97   109   110    1
    98    48    49    1
    99    69    68    1
   100     3     2    1
   101    54    51    1
   102    10     9    1
   103    51    52    1
   104   179   178    1
   105   118   119    1
   106   188   189    2
   107   188   187    1
   108     9     8    2
   109   116   114   ar
   110   130   127    1
   111   181   178    1
   112   181   182    1
   113    53    52    2
   114   183   182    1
   115   183   184    1
   116   185   184    1
   117     8     7    1
   118    68    67    1
   119    52    58   am
   120   178   177    1
   121   119   120    1
   122   119   122    1
   123   110   111    2
   124   193   195   ar
   125   193   191   ar
   126   120   121    2
   127   120   126   am
   128     2     1    1
   129     2     5    1
   130     7     6    1
   131   195   196   ar
   132   126   127    1
   133   186   187    1
   134     6     5    1
   135   187   190    1
   136    67    60   am
   137   127   128    1
   138   190   191    1
   139    58    59    1
   140   191   192   ar
   141   177   167   am
   142   122   123    1
   143   196   194   ar
   144    60    61    2
   145    60    59    1
   146   168   167    2
   147   128   129    2
   148   128   131   am
   149   161   160    2
   150   167   166    1
   151    59    62    1
   152   192   194   ar
   153   123   125   ar
   154   123   124   ar
   155   158   159    1
   156   131   132    1
   157   160   159    1
   158   160   165   am
   159   159   162    1
   160    62    63    1
   161   152   151    2
   162   166   165    1
   163   166   169    1
   164   151   150    1
   165   134   133    2
   166    63    64    1
   167   172   174   ar
   168   172   170   ar
   169   174   175   ar
   170   132   133    1
   171   132   135    1
   172   163   162    1
   173   162   164    1
   174   170   169    1
   175   170   171   ar
   176   176   175    1
   177   175   173   ar
   178    64    65    1
   179   150   153    1
   180   150   149    1
   181   153   154    1
   182   171   173   ar
   183   135   136    1
   184    65    66    1
   185   136   137    1
   186   143   142    2
   187   139   137   ar
   188   149   142   am
   189   156   155   ar
   190   137   138   ar
   191   142   141    1
   192   225   223    1
   193   154   155    1
   194   155   157   ar
   195   140   141    1
   196   204   205    1
   197   141   144    1
   198   222   223    1
   199   222   219    1
   200   223   224    1
   201   205   206    1
   202   205   208    1
   203   206   218   am
   204   206   207    2
   205   218   219    1
   206   219   220    1
   207   144   145    1
   208   221   220    2
   209   208   209    1
   210   214   216   ar
   211   214   211   ar
   212   245   242    1
   213   216   217   ar
   214   220   226   am
   215   145   146    1
   216   211   209   ar
   217   211   213   ar
   218   209   210   ar
   219   242   243    1
   220   242   241    1
   221   238   240   ar
   222   238   236   ar
   223   146   147    1
   224   217   215   ar
   225   240   239   ar
   226   226   227    1
   227   243   244    2
   228   229   228    2
   229   213   215   ar
   230   213   212   ar
   231   210   212   ar
   232   236   235   ar
   233   147   148    1
   234   239   237   ar
   235   227   228    1
   236   228   230   am
   237   235   237   ar
   238   235   234    1
   239   230   231    1
   240   231   234    1
   241   231   232    1
   242   233   232    2
