@<TRIPOS>MOLECULE
tmp/4qvnN00.pdb
 123 113 0 0 0
SMALL
GASTEIGER

@<TRIPOS>ATOM
      1  N         43.1010 -143.3720   63.4440 N.3     1  THR1       -0.1218
      2  CA        43.0440 -142.2600   64.4340 C.3     1  THR1        0.1862
      3  C         42.0560 -142.6590   65.5240 C.2     1  THR1        0.2287
      4  O         40.9820 -143.1830   65.2390 O.2     1  THR1       -0.2866
      5  CB        42.6150 -140.9410   63.7740 C.3     1  THR1        0.1770
      6  OG1       43.7440 -140.4200   63.0750 O.3     1  THR1       -0.2211
      7  CG2       42.1860 -139.8720   64.7930 C.3     1  THR1        0.0375
      8  N         49.3430 -141.0520   65.7450 N.3    19  ARG19      -0.1231
      9  CA        49.7480 -141.7170   64.5040 C.3    19  ARG19       0.1694
     10  C         49.1600 -141.0520   63.2560 C.2    19  ARG19       0.2593
     11  O         47.9520 -140.8260   63.1760 O.2    19  ARG19      -0.2718
     12  CB        49.3460 -143.1940   64.5430 C.3    19  ARG19       0.0321
     13  CG        49.7670 -143.9820   63.3120 C.3    19  ARG19       0.0489
     14  CD        49.6650 -145.4830   63.5270 C.3    19  ARG19       0.2205
     15  NE        50.6910 -145.9840   64.4420 N.pl3  19  ARG19      -0.0865
     16  CZ        50.8900 -147.2700   64.7260 C.cat  19  ARG19       0.5346
     17  NH1       50.1380 -148.2150   64.1660 N.pl3  19  ARG19       0.1354
     18  NH2       51.8540 -147.6150   65.5710 N.pl3  19  ARG19       0.1354
     19  N         50.0300 -140.7410   62.2950 N.am   20  THR20      -0.1939
     20  CA        49.6170 -140.2920   60.9630 C.3    20  THR20       0.2028
     21  C         50.1290 -141.3010   59.9420 C.2    20  THR20       0.2643
     22  O         51.3150 -141.6360   59.9460 O.2    20  THR20      -0.2714
     23  CB        50.1830 -138.8990   60.6150 C.3    20  THR20       0.1808
     24  OG1       49.8420 -137.9630   61.6460 O.3    20  THR20      -0.2208
     25  CG2       49.6240 -138.4000   59.2800 C.3    20  THR20       0.0379
     26  N         49.2420 -141.7740   59.0680 N.am   21  THR21      -0.1936
     27  CA        49.5790 -142.8550   58.1410 C.3    21  THR21       0.2028
     28  C         49.3210 -142.5220   56.6750 C.2    21  THR21       0.2642
     29  O         48.3000 -141.9270   56.3290 O.2    21  THR21      -0.2714
     30  CB        48.7930 -144.1390   58.4680 C.3    21  THR21       0.1808
     31  OG1       47.4200 -143.8120   58.7200 O.3    21  THR21      -0.2208
     32  CG2       49.3780 -144.8300   59.6840 C.3    21  THR21       0.0379
     33  N         50.2700 -142.9140   55.8280 N.am   22  THR22      -0.1950
     34  CA        50.0820 -142.9530   54.3840 C.3    22  THR22       0.1897
     35  C         49.9610 -144.4250   54.0100 C.2    22  THR22       0.2313
     36  O         50.9640 -145.1060   53.7870 O.2    22  THR22      -0.2863
     37  CB        51.2680 -142.3190   53.6330 C.3    22  THR22       0.1794
     38  OG1       51.5040 -140.9980   54.1320 O.3    22  THR22      -0.2208
     39  CG2       50.9840 -142.2500   52.1340 C.3    22  THR22       0.0378
     40  N         53.7120 -142.1090   58.6500 N.3    27  ALA27      -0.1245
     41  CA        54.4040 -140.8830   58.2520 C.3    27  ALA27       0.1562
     42  C         54.8550 -140.0580   59.4540 C.2    27  ALA27       0.2260
     43  O         55.8890 -139.4000   59.4010 O.2    27  ALA27      -0.2867
     44  CB        53.5120 -140.0480   57.3470 C.3    27  ALA27       0.0290
     45  N         52.4410 -137.3210   66.2620 N.3    31  THR31      -0.1218
     46  CA        51.5530 -136.2420   65.8250 C.3    31  THR31       0.1862
     47  C         50.7520 -135.6570   66.9880 C.2    31  THR31       0.2287
     48  O         50.3630 -136.3790   67.9110 O.2    31  THR31      -0.2866
     49  CB        50.5520 -136.7510   64.7660 C.3    31  THR31       0.1770
     50  OG1       51.2280 -137.6040   63.8350 O.3    31  THR31      -0.2211
     51  CG2       49.9020 -135.5920   64.0160 C.3    31  THR31       0.0375
     52  N         47.3160 -134.2420   67.5460 N.3    33  LYS33      -0.1245
     53  CA        45.9740 -134.1210   66.9740 C.3    33  LYS33       0.1561
     54  C         45.0570 -133.2530   67.8330 C.2    33  LYS33       0.2260
     55  O         43.9490 -132.9140   67.4170 O.2    33  LYS33      -0.2867
     56  CB        45.3560 -135.5070   66.7900 C.3    33  LYS33       0.0271
     57  CG        46.2260 -136.4460   65.9720 C.3    33  LYS33       0.0035
     58  CD        45.6010 -137.8170   65.8310 C.3    33  LYS33       0.0206
     59  CE        46.5570 -138.7650   65.1300 C.3    33  LYS33       0.1093
     60  NZ        45.8730 -140.0120   64.7020 N.3    33  LYS33      -0.1314
     61  N         41.2720 -133.7770   66.0270 N.3    45  ARG45      -0.1231
     62  CA        41.2170 -133.8580   64.5720 C.3    45  ARG45       0.1694
     63  C         41.3500 -135.2980   64.0810 C.2    45  ARG45       0.2593
     64  O         42.2140 -136.0470   64.5470 O.2    45  ARG45      -0.2718
     65  CB        42.3100 -132.9840   63.9580 C.3    45  ARG45       0.0321
     66  CG        42.1350 -131.5050   64.2730 C.3    45  ARG45       0.0489
     67  CD        43.2080 -130.6340   63.6390 C.3    45  ARG45       0.2205
     68  NE        44.5530 -130.9990   64.0820 N.pl3  45  ARG45      -0.0865
     69  CZ        45.4300 -131.7140   63.3760 C.cat  45  ARG45       0.5346
     70  NH1       45.1360 -132.1740   62.1590 N.pl3  45  ARG45       0.1354
     71  NH2       46.6230 -131.9750   63.8970 N.pl3  45  ARG45       0.1354
     72  N         40.4720 -135.6710   63.1490 N.am   46  SER46      -0.1938
     73  CA        40.5230 -136.9730   62.4780 C.3    46  SER46       0.2055
     74  C         40.1500 -136.8240   61.0040 C.2    46  SER46       0.2644
     75  O         39.4400 -135.8900   60.6260 O.2    46  SER46      -0.2714
     76  CB        39.5910 -137.9820   63.1550 C.3    46  SER46       0.2130
     77  OG        38.2290 -137.7140   62.8670 O.3    46  SER46      -0.2179
     78  N         40.6300 -137.7580   60.1870 N.am   47  GLY47      -0.1939
     79  CA        40.4450 -137.7070   58.7370 C.3    47  GLY47       0.2014
     80  C         41.6860 -137.1660   58.0560 C.2    47  GLY47       0.2640
     81  O         42.8050 -137.5300   58.4140 O.2    47  GLY47      -0.2714
     82  N         41.4920 -136.2950   57.0710 N.am   48  SER48      -0.1935
     83  CA        42.6110 -135.6720   56.3590 C.3    48  SER48       0.2055
     84  C         43.3690 -134.6970   57.2620 C.2    48  SER48       0.2643
     85  O         42.7640 -133.8530   57.9250 O.2    48  SER48      -0.2714
     86  CB        42.1160 -134.9370   55.1110 C.3    48  SER48       0.2130
     87  OG        43.0520 -133.9590   54.6910 O.3    48  SER48      -0.2179
     88  N         44.6930 -134.8170   57.2780 N.am   49  ALA49      -0.1963
     89  CA        45.5380 -133.9090   58.0470 C.3    49  ALA49       0.1728
     90  C         45.4950 -132.5110   57.4460 C.2    49  ALA49       0.2616
     91  O         45.3410 -131.5270   58.1620 O.2    49  ALA49      -0.2715
     92  CB        46.9660 -134.4200   58.0870 C.3    49  ALA49       0.0334
     93  N         45.6170 -132.4360   56.1250 N.am   50  ALA50      -0.1977
     94  CA        45.5810 -131.1600   55.4140 C.3    50  ALA50       0.1597
     95  C         44.2580 -130.4220   55.6230 C.2    50  ALA50       0.2287
     96  O         44.2530 -129.2270   55.9270 O.2    50  ALA50      -0.2864
     97  CB        45.8250 -131.3790   53.9310 C.3    50  ALA50       0.0319
     98  N         41.8120 -130.9040   58.0140 N.3    52  THR52      -0.1218
     99  CA        41.5640 -130.5500   59.4170 C.3    52  THR52       0.1862
    100  C         42.4570 -129.4060   59.8950 C.2    52  THR52       0.2287
    101  O         42.0300 -128.5870   60.7090 O.2    52  THR52      -0.2866
    102  CB        41.7430 -131.7550   60.3650 C.3    52  THR52       0.1770
    103  OG1       43.0490 -132.3200   60.1940 O.3    52  THR52      -0.2211
    104  CG2       40.6710 -132.8110   60.0980 C.3    52  THR52       0.0375
    105  N         37.3730 -134.0490   54.0140 N.3    94  THR94      -0.1218
    106  CA        37.3060 -135.2840   54.7790 C.3    94  THR94       0.1862
    107  C         37.8340 -134.9690   56.1760 C.2    94  THR94       0.2287
    108  O         39.0230 -135.1240   56.4580 O.2    94  THR94      -0.2866
    109  CB        38.1230 -136.4090   54.1190 C.3    94  THR94       0.1770
    110  OG1       37.6830 -136.5860   52.7660 O.3    94  THR94      -0.2211
    111  CG2       37.9530 -137.7230   54.8770 C.3    94  THR94       0.0375
    112  N         39.0410 -143.7650   63.0430 N.3   129  SER129     -0.1217
    113  CA        38.9280 -145.1740   62.6660 C.3   129  SER129      0.1889
    114  C         38.9260 -146.1030   63.8800 C.2   129  SER129      0.2288
    115  O         38.1380 -147.0480   63.9390 O.2   129  SER129     -0.2866
    116  CB        40.0640 -145.5620   61.7170 C.3   129  SER129      0.2089
    117  OG        41.3250 -145.2290   62.2680 O.3   129  SER129     -0.2183
    118  N         45.6400 -147.9750   62.1650 N.3   168  SER168     -0.1217
    119  CA        45.7600 -146.5520   61.8520 C.3   168  SER168      0.1889
    120  C         46.0620 -145.7010   63.0860 C.2   168  SER168      0.2288
    121  O         46.4640 -144.5440   62.9520 O.2   168  SER168     -0.2866
    122  CB        44.4720 -146.0490   61.1930 C.3   168  SER168      0.2089
    123  OG        44.0220 -146.9470   60.1910 O.3   168  SER168     -0.2183
@<TRIPOS>BOND
     1    39    37    1
     2   110   109    1
     3    37    38    1
     4    37    34    1
     5    36    35    2
     6    97    94    1
     7    35    34    1
     8   105   106    1
     9   109   106    1
    10   109   111    1
    11    34    33    1
    12    87    86    1
    13   106   107    1
    14    86    83    1
    15    94    95    1
    16    94    93    1
    17    95    96    2
    18    33    28   am
    19    93    90   am
    20   107   108    2
    21    29    28    2
    22    83    82    1
    23    83    84    1
    24    28    27    1
    25    82    80   am
    26    84    88   am
    27    84    85    2
    28    88    89    1
    29    44    41    1
    30    90    89    1
    31    90    91    2
    32    98    99    1
    33    89    92    1
    34    80    81    2
    35    80    79    1
    36    27    30    1
    37    27    26    1
    38    41    40    1
    39    41    42    1
    40    30    31    1
    41    30    32    1
    42    79    78    1
    43    26    21   am
    44    25    23    1
    45    43    42    2
    46    99   100    1
    47    99   102    1
    48   100   101    2
    49    21    22    2
    50    21    20    1
    51   104   102    1
    52    78    74   am
    53   123   122    1
    54   103   102    1
    55    23    20    1
    56    23    24    1
    57    75    74    2
    58    20    19    1
    59    74    73    1
    60   122   119    1
    61   116   117    1
    62   116   113    1
    63   119   118    1
    64   119   120    1
    65    70    69    1
    66    19    10   am
    67    73    72    1
    68    73    76    1
    69   113   112    1
    70   113   114    1
    71    77    76    1
    72   121   120    2
    73     6     5    1
    74    72    63   am
    75    11    10    2
    76    10     9    1
    77    13    14    1
    78    13    12    1
    79    69    71    1
    80    69    68    2
    81     1     2    1
    82    14    15    1
    83    67    68    1
    84    67    66    1
    85     5     2    1
    86     5     7    1
    87    50    49    1
    88   114   115    2
    89    65    66    1
    90    65    62    1
    91    51    49    1
    92    63    64    2
    93    63    62    1
    94    17    16    1
    95     2     3    1
    96    15    16    2
    97     9    12    1
    98     9     8    1
    99    62    61    1
   100    60    59    1
   101    16    18    1
   102    49    46    1
   103    59    58    1
   104     4     3    2
   105    46    45    1
   106    46    47    1
   107    58    57    1
   108    57    56    1
   109    56    53    1
   110    53    52    1
   111    53    54    1
   112    47    48    2
   113    55    54    2
