@<TRIPOS>MOLECULE
tmp/4qvtD00.pdb
 225 222 0 0 0
SMALL
GASTEIGER

@<TRIPOS>ATOM
      1  N        -46.5160  -57.6710   84.0730 N.3    21  CYS21      -0.1221
      2  CA       -45.7530  -57.4190   82.8630 C.3    21  CYS21       0.1808
      3  C        -44.5880  -58.4010   82.6210 C.2    21  CYS21       0.2601
      4  O        -43.8140  -58.2040   81.6870 O.2    21  CYS21      -0.2717
      5  CB       -45.2330  -55.9780   82.8750 C.3    21  CYS21       0.0970
      6  SG       -46.5080  -54.6930   82.8610 S.3    21  CYS21      -0.0800
      7  N        -44.4410  -59.4340   83.4530 N.am   22  ASP22      -0.1959
      8  CA       -43.3640  -60.4250   83.2650 C.3    22  ASP22       0.1840
      9  C        -41.9800  -59.7560   83.2270 C.2    22  ASP22       0.2621
     10  O        -41.0990  -60.1340   82.4570 O.2    22  ASP22      -0.2715
     11  CB       -43.6230  -61.2540   81.9890 C.3    22  ASP22       0.1450
     12  CG       -44.9040  -62.0850   82.0790 C.2    22  ASP22       0.3671
     13  OD1      -44.9500  -63.0390   82.8740 O.co2  22  ASP22      -0.2456
     14  OD2      -45.8570  -61.8270   81.3170 O.co2  22  ASP22      -0.2456
     15  N        -41.8320  -58.7410   84.0620 N.am   23  LEU23      -0.1977
     16  CA       -40.6170  -57.9890   84.1830 C.3    23  LEU23       0.1596
     17  C        -39.7890  -58.5060   85.3370 C.2    23  LEU23       0.2287
     18  O        -38.6210  -58.1890   85.4300 O.2    23  LEU23      -0.2864
     19  CB       -40.9140  -56.5120   84.4530 C.3    23  LEU23       0.0297
     20  CG       -41.3360  -55.6510   83.2610 C.3    23  LEU23       0.0022
     21  CD1      -41.8610  -54.3120   83.7370 C.3    23  LEU23       0.0001
     22  CD2      -40.1760  -55.4780   82.2820 C.3    23  LEU23       0.0001
     23  N        -32.5060  -46.9810   81.5180 N.3    69  ALA69      -0.1231
     24  CA       -33.9260  -47.2670   81.7700 C.3    69  ALA69       0.1694
     25  C        -34.1350  -48.7500   82.0190 C.2    69  ALA69       0.2592
     26  O        -33.6440  -49.5830   81.2710 O.2    69  ALA69      -0.2718
     27  CB       -34.7990  -46.8080   80.6100 C.3    69  ALA69       0.0304
     28  N        -34.8680  -49.0680   83.0770 N.am   70  TYR70      -0.1962
     29  CA       -35.1740  -50.4410   83.4290 C.3    70  TYR70       0.1771
     30  C        -36.6610  -50.5090   83.7020 C.2    70  TYR70       0.2620
     31  O        -37.3240  -49.4720   83.8540 O.2    70  TYR70      -0.2715
     32  CB       -34.4150  -50.8290   84.7240 C.3    70  TYR70       0.0574
     33  CG       -32.9030  -50.6960   84.5790 C.ar   70  TYR70      -0.0198
     34  CD1      -32.1580  -51.6820   83.9620 C.ar   70  TYR70      -0.0009
     35  CD2      -32.2470  -49.5610   85.0280 C.ar   70  TYR70      -0.0009
     36  CE1      -30.7870  -51.5420   83.8010 C.ar   70  TYR70       0.0417
     37  CE2      -30.8830  -49.4010   84.8520 C.ar   70  TYR70       0.0417
     38  CZ       -30.1580  -50.3830   84.2620 C.ar   70  TYR70       0.1957
     39  OH       -28.8070  -50.2190   84.1240 O.3    70  TYR70      -0.2866
     40  N        -37.1420  -51.7230   83.9130 N.am   71  TYR71      -0.1960
     41  CA       -38.5310  -51.9440   84.2630 C.3    71  TYR71       0.1771
     42  C        -39.5090  -51.1160   83.4520 C.2    71  TYR71       0.2619
     43  O        -40.3420  -50.3550   84.0140 O.2    71  TYR71      -0.2715
     44  CB       -38.7230  -51.6520   85.7550 C.3    71  TYR71       0.0574
     45  CG       -38.0860  -52.6760   86.6940 C.ar   71  TYR71      -0.0198
     46  CD1      -38.7050  -53.8920   86.9390 C.ar   71  TYR71      -0.0009
     47  CD2      -36.9360  -52.3930   87.4120 C.ar   71  TYR71      -0.0009
     48  CE1      -38.1740  -54.8280   87.8330 C.ar   71  TYR71       0.0417
     49  CE2      -36.3880  -53.3250   88.3020 C.ar   71  TYR71       0.0417
     50  CZ       -37.0060  -54.5420   88.5110 C.ar   71  TYR71       0.1957
     51  OH       -36.5020  -55.4950   89.4060 O.3    71  TYR71      -0.2866
     52  N        -39.4080  -51.2080   82.1330 N.am   72  LEU72      -0.1963
     53  CA       -40.3930  -50.5000   81.3040 C.3    72  LEU72       0.1728
     54  C        -41.5690  -51.4600   81.1420 C.2    72  LEU72       0.2617
     55  O        -41.4200  -52.5330   80.5790 O.2    72  LEU72      -0.2715
     56  CB       -39.8540  -50.1410   79.9380 C.3    72  LEU72       0.0311
     57  CG       -40.9510  -49.5980   79.0180 C.3    72  LEU72       0.0022
     58  CD1      -41.4030  -48.1990   79.4090 C.3    72  LEU72       0.0001
     59  CD2      -40.4720  -49.6120   77.5930 C.3    72  LEU72       0.0001
     60  N        -42.7390  -51.0580   81.6010 N.am   73  GLY73      -0.1940
     61  CA       -43.8840  -51.9320   81.5370 C.3    73  GLY73       0.2014
     62  C        -45.1850  -51.1880   81.5070 C.2    73  GLY73       0.2638
     63  O        -45.3260  -50.1580   82.1770 O.2    73  GLY73      -0.2714
     64  N        -46.1150  -51.7020   80.6930 N.am   74  VAL74      -0.1977
     65  CA       -47.4720  -51.1800   80.6070 C.3    74  VAL74       0.1596
     66  C        -48.4460  -52.3570   80.8230 C.2    74  VAL74       0.2287
     67  O        -48.2760  -53.4390   80.2740 O.2    74  VAL74      -0.2864
     68  CB       -47.7370  -50.4750   79.2590 C.3    74  VAL74       0.0276
     69  CG1      -49.2210  -50.1350   79.0910 C.3    74  VAL74       0.0022
     70  CG2      -46.8470  -49.2290   79.1430 C.3    74  VAL74       0.0022
     71  N        -52.1350  -51.5320   76.8220 N.3    79  ARG79      -0.1231
     72  CA       -51.1510  -51.4610   75.7500 C.3    79  ARG79       0.1694
     73  C        -51.7340  -50.9660   74.4310 C.2    79  ARG79       0.2593
     74  O        -52.9340  -50.9070   74.2430 O.2    79  ARG79      -0.2718
     75  CB       -50.4990  -52.8240   75.5680 C.3    79  ARG79       0.0321
     76  CG       -49.6970  -53.2020   76.7890 C.3    79  ARG79       0.0489
     77  CD       -49.1740  -54.6080   76.7240 C.3    79  ARG79       0.2205
     78  NE       -48.5610  -54.9620   77.9960 N.pl3  79  ARG79      -0.0865
     79  CZ       -47.9790  -56.1290   78.2540 C.cat  79  ARG79       0.5346
     80  NH1      -47.8740  -57.0580   77.3170 N.pl3  79  ARG79       0.1354
     81  NH2      -47.4600  -56.3590   79.4510 N.pl3  79  ARG79       0.1354
     82  N        -50.8550  -50.5730   73.5240 N.am   80  GLY80      -0.1942
     83  CA       -51.2840  -50.0870   72.2110 C.3    80  GLY80       0.2014
     84  C        -51.9150  -48.7080   72.2620 C.2    80  GLY80       0.2639
     85  O        -52.5600  -48.3050   71.3160 O.2    80  GLY80      -0.2714
     86  N        -51.7310  -47.9990   73.3720 N.am   81  ARG81      -0.1963
     87  CA       -52.2470  -46.6470   73.5680 C.3    81  ARG81       0.1729
     88  C        -51.1420  -45.5990   73.5820 C.2    81  ARG81       0.2617
     89  O        -51.4270  -44.4190   73.7560 O.2    81  ARG81      -0.2715
     90  CB       -52.9810  -46.5440   74.9040 C.3    81  ARG81       0.0348
     91  CG       -54.3410  -47.2010   75.0290 C.3    81  ARG81       0.0492
     92  CD       -54.5070  -47.6220   76.4830 C.3    81  ARG81       0.2205
     93  NE       -55.8530  -47.8980   76.9610 N.pl3  81  ARG81      -0.0865
     94  CZ       -56.5450  -47.0750   77.7530 C.cat  81  ARG81       0.5346
     95  NH1      -57.7400  -47.4340   78.1590 N.pl3  81  ARG81       0.1354
     96  NH2      -56.0340  -45.9110   78.1740 N.pl3  81  ARG81       0.1354
     97  N        -49.8880  -45.9930   73.3990 N.am   82  GLY82      -0.1940
     98  CA       -48.8110  -45.0050   73.3860 C.3    82  GLY82       0.2014
     99  C        -48.2680  -44.6600   74.7750 C.2    82  GLY82       0.2639
    100  O        -47.5120  -43.6910   74.9440 O.2    82  GLY82      -0.2714
    101  N        -48.6460  -45.4360   75.7770 N.am   83  ILE83      -0.1963
    102  CA       -48.1460  -45.1450   77.1230 C.3    83  ILE83       0.1727
    103  C        -46.6400  -45.3890   77.2530 C.2    83  ILE83       0.2616
    104  O        -45.9120  -44.5780   77.8730 O.2    83  ILE83      -0.2715
    105  CB       -48.9470  -45.9080   78.1690 C.3    83  ILE83       0.0290
    106  CG1      -50.3810  -45.3720   78.1370 C.3    83  ILE83       0.0022
    107  CG2      -48.4050  -45.6720   79.5560 C.3    83  ILE83       0.0023
    108  CD1      -51.3090  -46.1230   79.0650 C.3    83  ILE83       0.0001
    109  N        -46.1330  -46.4610   76.6560 N.am   84  ALA84      -0.1963
    110  CA       -44.6840  -46.6740   76.7310 C.3    84  ALA84       0.1728
    111  C        -43.9740  -45.5410   76.0370 C.2    84  ALA84       0.2616
    112  O        -42.9660  -45.0320   76.5390 O.2    84  ALA84      -0.2715
    113  CB       -44.2770  -47.9940   76.1110 C.3    84  ALA84       0.0334
    114  N        -44.4520  -45.1820   74.8510 N.am   85  ASN85      -0.1972
    115  CA       -43.8410  -44.0720   74.1450 C.3    85  ASN85       0.1688
    116  C        -43.8400  -42.7870   74.9640 C.2    85  ASN85       0.2292
    117  O        -42.8660  -42.0860   74.9680 O.2    85  ASN85      -0.2864
    118  CB       -44.4900  -43.8490   72.7570 C.3    85  ASN85       0.1181
    119  CG       -43.9250  -44.7840   71.7010 C.2    85  ASN85       0.2629
    120  OD1      -43.1680  -45.7060   72.0060 O.2    85  ASN85      -0.2716
    121  ND2      -44.2190  -44.5050   70.4570 N.am   85  ASN85      -0.0877
    122  N        -29.8510  -48.3100   76.7480 N.3   105  ILE105     -0.1231
    123  CA       -30.7920  -49.3220   77.1780 C.3   105  ILE105      0.1692
    124  C        -30.4020  -50.6290   76.5750 C.2   105  ILE105      0.2592
    125  O        -30.1240  -50.7060   75.3830 O.2   105  ILE105     -0.2718
    126  CB       -32.2230  -49.0190   76.6890 C.3   105  ILE105      0.0266
    127  CG1      -32.7140  -47.6580   77.2130 C.3   105  ILE105      0.0019
    128  CG2      -33.1530  -50.1290   77.1480 C.3   105  ILE105      0.0020
    129  CD1      -34.0980  -47.2370   76.7810 C.3   105  ILE105      0.0001
    130  N        -30.3810  -51.6630   77.4010 N.am  106  ASN106     -0.1960
    131  CA       -30.0480  -52.9890   76.9280 C.3   106  ASN106      0.1819
    132  C        -31.3220  -53.8000   76.7470 C.2   106  ASN106      0.2621
    133  O        -32.1460  -53.8850   77.6480 O.2   106  ASN106     -0.2715
    134  CB       -29.1090  -53.7030   77.9030 C.3   106  ASN106      0.1195
    135  CG       -27.7030  -53.0980   77.9310 C.2   106  ASN106      0.2630
    136  OD1      -27.2160  -52.5520   76.9620 O.2   106  ASN106     -0.2716
    137  ND2      -27.0350  -53.2530   79.0390 N.am  106  ASN106     -0.0877
    138  N        -31.4590  -54.4110   75.5780 N.am  107  VAL107     -0.1964
    139  CA       -32.6080  -55.2270   75.2670 C.3   107  VAL107      0.1712
    140  C        -32.1990  -56.6730   74.9690 C.2   107  VAL107      0.2458
    141  O        -31.1130  -56.9060   74.4540 O.2   107  VAL107     -0.2730
    142  CB       -33.2940  -54.5910   74.0400 C.3   107  VAL107      0.0289
    143  CG1      -34.1510  -55.5740   73.2630 C.3   107  VAL107      0.0023
    144  CG2      -34.0700  -53.3500   74.4680 C.3   107  VAL107      0.0023
    145  N        -33.0440  -57.6580   75.3280 N.am  108  PRO108     -0.2727
    146  CA       -32.7290  -59.0550   74.9550 C.3   108  PRO108      0.1402
    147  C        -32.5380  -59.1770   73.4440 C.2   108  PRO108      0.2269
    148  O        -33.1740  -58.4560   72.6890 O.2   108  PRO108     -0.2865
    149  CB       -33.9870  -59.8290   75.3540 C.3   108  PRO108      0.0296
    150  CG       -35.0430  -58.7920   75.6020 C.3   108  PRO108      0.0237
    151  CD       -34.3020  -57.5780   76.0850 C.3   108  PRO108      0.0939
    152  N        -36.2520  -60.6210   71.4600 N.3   111  ASN111     -0.1225
    153  CA       -37.4510  -59.8120   71.3050 C.3   111  ASN111      0.1785
    154  C        -37.2280  -58.6710   70.3170 C.2   111  ASN111      0.2597
    155  O        -36.5420  -57.7040   70.6280 O.2   111  ASN111     -0.2718
    156  CB       -37.8890  -59.2850   72.6820 C.3   111  ASN111      0.1169
    157  CG       -39.3030  -58.7250   72.6780 C.2   111  ASN111      0.2627
    158  OD1      -39.9450  -58.6060   71.6360 O.2   111  ASN111     -0.2716
    159  ND2      -39.7970  -58.3880   73.8500 N.am  111  ASN111     -0.0877
    160  N        -37.7810  -58.7970   69.1110 N.am  112  ASP112     -0.1960
    161  CA       -37.6070  -57.7400   68.1090 C.3   112  ASP112      0.1840
    162  C        -38.7820  -56.7620   68.1510 C.2   112  ASP112      0.2622
    163  O        -38.6990  -55.6540   67.6180 O.2   112  ASP112     -0.2715
    164  CB       -37.3870  -58.3060   66.7010 C.3   112  ASP112      0.1450
    165  CG       -36.7700  -57.2790   65.7440 C.2   112  ASP112      0.3671
    166  OD1      -37.1140  -56.0740   65.7960 O.co2 112  ASP112     -0.2456
    167  OD2      -35.9260  -57.6850   64.9270 O.co2 112  ASP112     -0.2456
    168  N        -39.8560  -57.1510   68.8270 N.am  113  MET113     -0.1963
    169  CA       -41.0160  -56.2740   68.9550 C.3   113  MET113      0.1736
    170  C        -40.6330  -55.0610   69.8300 C.2   113  MET113      0.2616
    171  O        -41.0530  -53.9210   69.5920 O.2   113  MET113     -0.2715
    172  CB       -42.1730  -57.0600   69.5730 C.3   113  MET113      0.0427
    173  CG       -42.4640  -58.4040   68.8880 C.3   113  MET113      0.0599
    174  SD       -42.6990  -58.3910   67.0850 S.3   113  MET113     -0.1393
    175  CE       -44.2690  -57.5710   66.8210 C.3   113  MET113      0.0692
    176  N        -39.8400  -55.3310   70.8650 N.am  114  VAL114     -0.1977
    177  CA       -39.3470  -54.2750   71.7460 C.3   114  VAL114      0.1596
    178  C        -38.1820  -53.5720   71.0140 C.2   114  VAL114      0.2287
    179  O        -37.9760  -52.3580   71.1560 O.2   114  VAL114     -0.2864
    180  CB       -38.9200  -54.8260   73.1390 C.3   114  VAL114      0.0276
    181  CG1      -37.9040  -55.9510   73.0040 C.3   114  VAL114      0.0022
    182  CG2      -38.3290  -53.7210   74.0160 C.3   114  VAL114      0.0022
    183  N        -37.9010  -53.0570   67.7150 N.3   116  GLY116     -0.1210
    184  CA       -38.4580  -52.1220   66.7160 C.3   116  GLY116      0.1956
    185  C        -38.8900  -50.8160   67.3510 C.2   116  GLY116      0.2615
    186  O        -38.5780  -49.7280   66.8680 O.2   116  GLY116     -0.2717
    187  N        -39.5860  -50.9280   68.4740 N.am  117  MET117     -0.1919
    188  CA       -40.0680  -49.7620   69.1990 C.3   117  MET117      0.1952
    189  C        -38.8820  -48.8040   69.4580 C.2   117  MET117      0.2659
    190  O        -38.9750  -47.5780   69.2650 O.2   117  MET117     -0.2711
    191  CB       -40.7350  -50.2260   70.5070 C.2   117  MET117      0.0110
    192  CG       -41.1340  -49.1120   71.4780 C.2   117  MET117      0.0285
    193  SD       -41.6340  -49.6650   73.1380 S.3   117  MET117     -0.1125
    194  CE       -40.1810  -50.5390   73.6660 C.3   117  MET117      0.0742
    195  N        -37.7590  -49.3530   69.9040 N.am  118  TYR118     -0.1971
    196  CA       -36.5900  -48.4980   70.1870 C.3   118  TYR118      0.1640
    197  C        -35.9420  -47.8980   68.9270 C.2   118  TYR118      0.2290
    198  O        -35.5940  -46.6990   68.9090 O.2   118  TYR118     -0.2864
    199  CB       -35.5820  -49.2280   71.0580 C.3   118  TYR118      0.0560
    200  CG       -36.0060  -49.2990   72.4970 C.ar  118  TYR118     -0.0198
    201  CD1      -36.1040  -48.1450   73.2550 C.ar  118  TYR118     -0.0009
    202  CD2      -36.2070  -50.5160   73.1260 C.ar  118  TYR118     -0.0009
    203  CE1      -36.4440  -48.1990   74.5970 C.ar  118  TYR118      0.0417
    204  CE2      -36.5320  -50.5800   74.4810 C.ar  118  TYR118      0.0417
    205  CZ       -36.6740  -49.4260   75.1980 C.ar  118  TYR118      0.1957
    206  OH       -37.0090  -49.4980   76.5530 O.3   118  TYR118     -0.2866
    207  N        -37.3860  -47.1250   66.1000 N.3   120  ARG120     -0.1231
    208  CA       -38.2700  -46.0200   65.6960 C.3   120  ARG120      0.1694
    209  C        -38.1110  -44.7890   66.5480 C.2   120  ARG120      0.2591
    210  O        -38.4510  -43.6910   66.1340 O.2   120  ARG120     -0.2718
    211  CB       -39.7620  -46.4130   65.7260 C.3   120  ARG120      0.0321
    212  CG       -40.3610  -46.7460   64.3500 C.3   120  ARG120      0.0489
    213  CD       -39.7900  -47.9880   63.6840 C.3   120  ARG120      0.2205
    214  NE       -40.3820  -49.2000   64.2310 N.pl3 120  ARG120     -0.0865
    215  CZ       -40.0180  -50.4320   63.8970 C.cat 120  ARG120      0.5346
    216  NH1      -39.0330  -50.6330   63.0260 N.pl3 120  ARG120      0.1354
    217  NH2      -40.6360  -51.4650   64.4600 N.pl3 120  ARG120      0.1354
    218  N        -37.6510  -44.9590   67.7680 N.am  121  LEU121     -0.1980
    219  CA       -37.4770  -43.8000   68.6020 C.3   121  LEU121      0.1596
    220  C        -36.1070  -43.1730   68.3860 C.2   121  LEU121      0.2287
    221  O        -35.7740  -42.2000   69.0510 O.2   121  LEU121     -0.2864
    222  CB       -37.7110  -44.1720   70.0620 C.3   121  LEU121      0.0297
    223  CG       -39.1530  -44.5840   70.4120 C.3   121  LEU121      0.0022
    224  CD1      -39.2240  -45.1440   71.8310 C.3   121  LEU121      0.0001
    225  CD2      -40.0870  -43.4090   70.2390 C.3   121  LEU121      0.0001
@<TRIPOS>BOND
     1   216   215    1
     2   213   214    1
     3   213   212    1
     4   215   214    2
     5   215   217    1
     6   212   211    1
     7   167   165   ar
     8   208   211    1
     9   208   207    1
    10   208   209    1
    11   165   166   ar
    12   165   164    1
    13   210   209    2
    14   209   218   am
    15   164   161    1
    16   184   185    1
    17   184   183    1
    18   175   174    1
    19   186   185    2
    20   174   173    1
    21   185   187   am
    22   163   162    2
    23   218   219    1
    24   161   162    1
    25   161   160    1
    26   162   168   am
    27   220   219    1
    28   220   221    2
    29   187   188    1
    30   219   222    1
    31   168   169    1
    32   173   172    1
    33   198   197    2
    34   197   196    1
    35   169   172    1
    36   169   170    1
    37   160   154   am
    38   188   189    1
    39   188   191    1
    40   190   189    2
    41   189   195   am
    42   171   170    2
    43   170   176   am
    44   195   196    1
    45   222   223    1
    46   196   199    1
    47   225   223    1
    48   154   155    2
    49   154   153    1
    50   223   224    1
    51   121   119   am
    52   191   192    2
    53   176   177    1
    54   178   179    2
    55   178   177    1
    56   199   200    1
    57   153   152    1
    58   153   156    1
    59    85    84    2
    60   192   193    1
    61   158   157    2
    62   119   120    2
    63   119   118    1
    64   177   180    1
    65    83    84    1
    66    83    82    1
    67    84    86   am
    68   200   202   ar
    69   200   201   ar
    70   157   156    1
    71   157   159   am
    72   148   147    2
    73   118   115    1
    74   181   180    1
    75   202   204   ar
    76   193   194    1
    77   180   182    1
    78   201   203   ar
    79   143   142    1
    80    86    87    1
    81    98    97    1
    82    98    99    1
    83    97    88   am
    84   147   146    1
    85    82    73   am
    86    87    88    1
    87    87    90    1
    88    88    89    2
    89   142   144    1
    90   142   139    1
    91   115   114    1
    92   115   116    1
    93    74    73    2
    94    73    72    1
    95   141   140    2
    96   204   205   ar
    97   203   205   ar
    98    99   100    2
    99    99   101   am
   100   114   111   am
   101    90    91    1
   102   146   145    1
   103   146   149    1
   104   116   117    2
   105   140   139    1
   106   140   145   am
   107    91    92    1
   108   205   206    1
   109   139   138    1
   110   145   151    1
   111   149   150    1
   112   125   124    2
   113    75    72    1
   114    75    76    1
   115   138   132   am
   116   150   151    1
   117    72    71    1
   118   101   102    1
   119   111   112    2
   120   111   110    1
   121   113   110    1
   122    92    93    1
   123   124   123    1
   124   124   130   am
   125   109   110    1
   126   109   103   am
   127   126   128    1
   128   126   123    1
   129   126   127    1
   130    77    76    1
   131    77    78    1
   132   132   131    1
   133   132   133    2
   134   122   123    1
   135   129   127    1
   136   131   130    1
   137   131   134    1
   138    93    94    2
   139   136   135    2
   140   102   103    1
   141   102   105    1
   142   103   104    2
   143    80    79    1
   144    59    57    1
   145    94    95    1
   146    94    96    1
   147   134   135    1
   148   135   137   am
   149    78    79    2
   150   106   105    1
   151   106   108    1
   152   105   107    1
   153    79    81    1
   154    57    58    1
   155    57    56    1
   156    69    68    1
   157    70    68    1
   158    68    65    1
   159    56    53    1
   160    67    66    2
   161    55    54    2
   162    65    64    1
   163    65    66    1
   164    27    24    1
   165    64    62   am
   166    54    53    1
   167    54    60   am
   168    26    25    2
   169    53    52    1
   170    14    12   ar
   171    62    61    1
   172    62    63    2
   173    23    24    1
   174    61    60    1
   175     4     3    2
   176    24    25    1
   177    11    12    1
   178    11     8    1
   179    25    28   am
   180    12    13   ar
   181    52    42   am
   182    22    20    1
   183    10     9    2
   184     3     2    1
   185     3     7   am
   186     6     5    1
   187     2     5    1
   188     2     1    1
   189    28    29    1
   190     9     8    1
   191     9    15   am
   192    20    21    1
   193    20    19    1
   194     8     7    1
   195    29    30    1
   196    29    32    1
   197    42    43    2
   198    42    41    1
   199    30    31    2
   200    30    40   am
   201    36    34   ar
   202    36    38   ar
   203    40    41    1
   204    34    33   ar
   205    15    16    1
   206    39    38    1
   207    16    19    1
   208    16    17    1
   209    38    37   ar
   210    41    44    1
   211    33    32    1
   212    33    35   ar
   213    37    35   ar
   214    17    18    2
   215    44    45    1
   216    45    46   ar
   217    45    47   ar
   218    46    48   ar
   219    47    49   ar
   220    48    50   ar
   221    49    50   ar
   222    50    51    1
