@<TRIPOS>MOLECULE
tmp/4qvuA00.pdb
 97 89 0 0 0
SMALL
GASTEIGER

@<TRIPOS>ATOM
      1  N         51.9640    6.3200   13.6260 N.3   100  GLN100     -0.1245
      2  CA        52.1100    7.7770   13.6750 C.3   100  GLN100      0.1566
      3  C         51.9220    8.4120   12.2850 C.2   100  GLN100      0.2260
      4  O         51.1960    9.4060   12.1680 O.2   100  GLN100     -0.2867
      5  CB        53.4980    8.1390   14.2420 C.3   100  GLN100      0.0367
      6  CG        53.7040    7.6470   15.6840 C.3   100  GLN100      0.0905
      7  CD        55.1150    7.8050   16.2190 C.2   100  GLN100      0.2608
      8  OE1       56.1180    7.6300   15.5040 O.2   100  GLN100     -0.2717
      9  NE2       55.2190    8.0450   17.5260 N.am  100  GLN100     -0.0878
     10  N         48.5470    9.6060   10.5210 N.3   103  PHE103     -0.1227
     11  CA        47.9600   10.8740   10.9870 C.3   103  PHE103      0.1736
     12  C         48.7620   12.1100   10.4570 C.2   103  PHE103      0.2595
     13  O         48.3500   13.2510   10.6920 O.2   103  PHE103     -0.2718
     14  CB        47.8780   10.8810   12.5400 C.3   103  PHE103      0.0547
     15  CG        47.1810    9.6430   13.0700 C.ar  103  PHE103     -0.0202
     16  CD1       45.8000    9.5000   12.9610 C.ar  103  PHE103     -0.0042
     17  CD2       47.9130    8.5830   13.5950 C.ar  103  PHE103     -0.0042
     18  CE1       45.1660    8.3280   13.3900 C.ar  103  PHE103     -0.0003
     19  CE2       47.2760    7.4110   14.0160 C.ar  103  PHE103     -0.0003
     20  CZ        45.9070    7.2930   13.9130 C.ar  103  PHE103     -0.0000
     21  N         49.8760   11.8670    9.7200 N.am  104  GLN104     -0.1979
     22  CA        50.6910   12.9020    9.0610 C.3   104  GLN104      0.1601
     23  C         50.1570   13.1120    7.6490 C.2   104  GLN104      0.2287
     24  O         49.4300   12.2560    7.1540 O.2   104  GLN104     -0.2864
     25  CB        52.1940   12.5230    9.0240 C.3   104  GLN104      0.0394
     26  CG        52.8470   12.0990   10.3470 C.3   104  GLN104      0.0908
     27  CD        53.1850   13.2050   11.3150 C.2   104  GLN104      0.2608
     28  OE1       52.7610   14.3570   11.1880 O.2   104  GLN104     -0.2717
     29  NE2       53.9650   12.8630   12.3260 N.am  104  GLN104     -0.0878
     30  N         46.5530   24.9710    9.4900 N.3   110  LYS110     -0.1245
     31  CA        47.4430   24.7260   10.6260 C.3   110  LYS110      0.1561
     32  C         47.7790   26.0220   11.3520 C.2   110  LYS110      0.2260
     33  O         48.0230   27.0430   10.7150 O.2   110  LYS110     -0.2867
     34  CB        48.7450   24.0280   10.1820 C.3   110  LYS110      0.0271
     35  CG        49.6260   23.5720   11.3390 C.3   110  LYS110      0.0035
     36  CD        50.7750   22.6860   10.9050 C.3   110  LYS110      0.0206
     37  CE        51.6930   22.3330   12.0590 C.3   110  LYS110      0.1093
     38  NZ        51.0130   21.5650   13.1430 N.3   110  LYS110     -0.1314
     39  N         45.5930   21.5160   13.7030 N.3   115  GLU115     -0.1245
     40  CA        46.1220   21.0860   12.4130 C.3   115  GLU115      0.1567
     41  C         45.1120   20.1970   11.7060 C.2   115  GLU115      0.2260
     42  O         44.6150   19.2340   12.2940 O.2   115  GLU115     -0.2867
     43  CB        47.4680   20.3350   12.5700 C.3   115  GLU115      0.0388
     44  CG        48.0240   19.8350   11.2420 C.3   115  GLU115      0.1160
     45  CD        49.2310   18.9190   11.2820 C.2   115  GLU115      0.3649
     46  OE1       50.2030   19.2270   12.0100 O.co2 115  GLU115     -0.2457
     47  OE2       49.2400   17.9390   10.5040 O.co2 115  GLU115     -0.2457
     48  N         44.0660   17.3640   14.2970 N.3   132  ILE132     -0.1245
     49  CA        44.8710   17.1640   15.5130 C.3   132  ILE132      0.1561
     50  C         44.8930   18.4330   16.3760 C.2   132  ILE132      0.2260
     51  O         45.1220   19.5240   15.8570 O.2   132  ILE132     -0.2867
     52  CB        46.3480   16.7280   15.1530 C.3   132  ILE132      0.0252
     53  CG1       46.4250   15.6040   14.0810 C.3   132  ILE132      0.0019
     54  CG2       47.1770   16.3670   16.3890 C.3   132  ILE132      0.0019
     55  CD1       46.6700   16.0650   12.6770 C.3   132  ILE132      0.0001
     56  N         46.6590   19.6710   20.3290 N.3   134  GLU134     -0.1245
     57  CA        47.7210   19.2860   21.2600 C.3   134  GLU134      0.1567
     58  C         47.2910   19.5350   22.7140 C.2   134  GLU134      0.2260
     59  O         47.8700   18.9400   23.6260 O.2   134  GLU134     -0.2867
     60  CB        49.0060   20.0590   20.9250 C.3   134  GLU134      0.0388
     61  CG        50.2820   19.3220   21.2930 C.3   134  GLU134      0.1160
     62  CD        51.5160   19.8640   20.5980 C.2   134  GLU134      0.3649
     63  OE1       51.6730   19.6040   19.3820 O.co2 134  GLU134     -0.2457
     64  OE2       52.3350   20.5310   21.2720 O.co2 134  GLU134     -0.2457
     65  N         46.7100    9.7680   21.1070 N.3   171  LEU171     -0.1231
     66  CA        48.0550    9.3380   20.7240 C.3   171  LEU171      0.1693
     67  C         49.0660   10.4450   20.9680 C.2   171  LEU171      0.2592
     68  O         48.7850   11.5920   20.6340 O.2   171  LEU171     -0.2718
     69  CB        48.0280    8.9540   19.2230 C.3   171  LEU171      0.0284
     70  CG        49.3350    8.4490   18.5750 C.3   171  LEU171      0.0019
     71  CD1       49.7510    7.0770   19.1200 C.3   171  LEU171      0.0001
     72  CD2       49.1900    8.3470   17.0760 C.3   171  LEU171      0.0001
     73  N         50.2450   10.1040   21.5400 N.am  172  ASN172     -0.1974
     74  CA        51.3630   11.0250   21.8330 C.3   172  ASN172      0.1688
     75  C         50.8600   12.3320   22.5130 C.2   172  ASN172      0.2292
     76  O         51.2890   13.4350   22.1540 O.2   172  ASN172     -0.2864
     77  CB        52.1550   11.3590   20.5460 C.3   172  ASN172      0.1181
     78  CG        52.7280   10.1760   19.7890 C.2   172  ASN172      0.2629
     79  OD1       52.7430   10.1540   18.5530 O.2   172  ASN172     -0.2716
     80  ND2       53.2290    9.1750   20.4960 N.am  172  ASN172     -0.0877
     81  N         47.9900   13.7810   22.2400 N.3   174  LYS174     -0.1245
     82  CA        47.1970   14.5660   21.2790 C.3   174  LYS174      0.1561
     83  C         45.8270   13.9380   21.0630 C.2   174  LYS174      0.2260
     84  O         45.7130   12.7120   21.1120 O.2   174  LYS174     -0.2867
     85  CB        47.8980   14.6850   19.9080 C.3   174  LYS174      0.0271
     86  CG        49.2810   15.2930   19.8890 C.3   174  LYS174      0.0035
     87  CD        49.9240   14.9420   18.5590 C.3   174  LYS174      0.0206
     88  CE        51.3930   15.2370   18.5120 C.3   174  LYS174      0.1093
     89  NZ        51.9980   14.7050   17.2700 N.3   174  LYS174     -0.1314
     90  N         43.1310   13.3170   18.2570 N.3   176  ILE176     -0.1245
     91  CA        43.0150   13.2460   16.8060 C.3   176  ILE176      0.1561
     92  C         41.6480   12.7410   16.4050 C.2   176  ILE176      0.2260
     93  O         41.1670   11.7370   16.9430 O.2   176  ILE176     -0.2867
     94  CB        44.1170   12.3320   16.1930 C.3   176  ILE176      0.0252
     95  CG1       45.5350   12.7470   16.6660 C.3   176  ILE176      0.0019
     96  CG2       44.0010   12.2850   14.6520 C.3   176  ILE176      0.0019
     97  CD1       46.6650   11.7500   16.3710 C.3   176  ILE176      0.0001
@<TRIPOS>BOND
     1    24    23    2
     2    23    22    1
     3    25    22    1
     4    25    26    1
     5    22    21    1
     6    30    31    1
     7    21    12   am
     8    34    31    1
     9    34    35    1
    10    26    27    1
    11    12    13    2
    12    12    11    1
    13    47    45   ar
    14    10    11    1
    15    31    32    1
    16    33    32    2
    17    36    35    1
    18    36    37    1
    19    11    14    1
    20    28    27    2
    21    44    45    1
    22    44    43    1
    23    45    46   ar
    24    27    29   am
    25    41    42    2
    26    41    40    1
    27    37    38    1
    28     4     3    2
    29     3     2    1
    30    40    43    1
    31    40    39    1
    32    14    15    1
    33    55    53    1
    34    16    15   ar
    35    16    18   ar
    36    15    17   ar
    37    18    20   ar
    38    17    19   ar
    39     1     2    1
    40     2     5    1
    41    20    19   ar
    42    53    52    1
    43     5     6    1
    44    48    49    1
    45    96    94    1
    46    52    49    1
    47    52    54    1
    48     8     7    2
    49    49    50    1
    50     6     7    1
    51    51    50    2
    52    94    95    1
    53    94    91    1
    54     7     9   am
    55    97    95    1
    56    92    91    1
    57    92    93    2
    58    91    90    1
    59    72    70    1
    60    89    88    1
    61    88    87    1
    62    79    78    2
    63    87    86    1
    64    70    71    1
    65    70    69    1
    66    69    66    1
    67    63    62   ar
    68    78    80   am
    69    78    77    1
    70    86    85    1
    71    85    82    1
    72    56    57    1
    73    77    74    1
    74    62    64   ar
    75    62    61    1
    76    68    67    2
    77    66    67    1
    78    66    65    1
    79    60    57    1
    80    60    61    1
    81    67    73   am
    82    83    84    2
    83    83    82    1
    84    57    58    1
    85    82    81    1
    86    73    74    1
    87    74    75    1
    88    76    75    2
    89    58    59    2
