@<TRIPOS>MOLECULE
tmp/4qvxB00.pdb
 206 199 0 0 0
SMALL
GASTEIGER

@<TRIPOS>ATOM
      1  N         12.1590  -22.4890    8.5410 N.3    32  GLU32      -0.1231
      2  CA        12.4580  -23.1410    9.8160 C.3    32  GLU32       0.1699
      3  C         11.2920  -23.0460   10.8040 C.2    32  GLU32       0.2592
      4  O         11.0130  -23.9890   11.5360 O.2    32  GLU32      -0.2718
      5  CB        13.6900  -22.5050   10.4710 C.3    32  GLU32       0.0402
      6  CG        15.0050  -22.7460    9.7440 C.3    32  GLU32       0.1161
      7  CD        16.1080  -21.7810   10.1870 C.2    32  GLU32       0.3649
      8  OE1       15.8020  -20.7630   10.8680 O.co2  32  GLU32      -0.2457
      9  OE2       17.2830  -22.0440    9.8510 O.co2  32  GLU32      -0.2457
     10  N         10.6470  -21.8870   10.8520 N.am   33  ALA33      -0.1980
     11  CA         9.5230  -21.6840   11.7640 C.3    33  ALA33       0.1597
     12  C          8.3610  -22.5700   11.3240 C.2    33  ALA33       0.2287
     13  O          7.7240  -23.2150   12.1580 O.2    33  ALA33      -0.2864
     14  CB         9.1110  -20.2170   11.8000 C.3    33  ALA33       0.0319
     15  N          9.0650  -26.1230   12.3510 N.3    36  GLU36      -0.1231
     16  CA         8.8540  -26.2820   13.7840 C.3    36  GLU36       0.1699
     17  C          7.3520  -26.3640   14.1240 C.2    36  GLU36       0.2592
     18  O          6.9400  -27.1850   14.9510 O.2    36  GLU36      -0.2718
     19  CB         9.5120  -25.1210   14.5380 C.3    36  GLU36       0.0402
     20  CG         9.3480  -25.1710   16.0460 C.3    36  GLU36       0.1161
     21  CD        10.0650  -26.3570   16.6680 C.2    36  GLU36       0.3649
     22  OE1       10.9580  -26.9290   16.0040 O.co2  36  GLU36      -0.2457
     23  OE2        9.7180  -26.7310   17.8100 O.co2  36  GLU36      -0.2457
     24  N          6.5470  -25.5140   13.4820 N.am   37  PHE37      -0.1976
     25  CA         5.0940  -25.5010   13.6920 C.3    37  PHE37       0.1639
     26  C          4.4720  -26.8400   13.3250 C.2    37  PHE37       0.2290
     27  O          3.6360  -27.3800   14.0540 O.2    37  PHE37      -0.2864
     28  CB         4.4230  -24.3580   12.8940 C.3    37  PHE37       0.0560
     29  CG         2.9540  -24.2150   13.1600 C.ar   37  PHE37      -0.0200
     30  CD1        2.5090  -23.5310   14.2800 C.ar   37  PHE37      -0.0042
     31  CD2        2.0200  -24.7800   12.3030 C.ar   37  PHE37      -0.0042
     32  CE1        1.1630  -23.4250   14.5550 C.ar   37  PHE37      -0.0003
     33  CE2        0.6680  -24.6620   12.5640 C.ar   37  PHE37      -0.0003
     34  CZ         0.2440  -23.9910   13.6930 C.ar   37  PHE37      -0.0000
     35  N          3.6120  -27.8630   16.8920 N.3    41  TYR41      -0.1227
     36  CA         2.4040  -27.0920   17.1900 C.3    41  TYR41       0.1736
     37  C          1.1190  -27.3440   16.4220 C.2    41  TYR41       0.2595
     38  O          0.0350  -27.1440   16.9700 O.2    41  TYR41      -0.2718
     39  CB         2.7220  -25.6020   17.1840 C.3    41  TYR41       0.0548
     40  CG         3.8260  -25.2490   18.1490 C.ar   41  TYR41      -0.0200
     41  CD1        5.1340  -25.1230   17.7110 C.ar   41  TYR41      -0.0009
     42  CD2        3.5660  -25.0780   19.5030 C.ar   41  TYR41      -0.0009
     43  CE1        6.1560  -24.8090   18.5830 C.ar   41  TYR41       0.0417
     44  CE2        4.5870  -24.7660   20.3900 C.ar   41  TYR41       0.0417
     45  CZ         5.8820  -24.6260   19.9150 C.ar   41  TYR41       0.1957
     46  OH         6.9280  -24.3220   20.7580 O.3    41  TYR41      -0.2866
     47  N          1.2190  -27.7350   15.1570 N.am   42  ARG42      -0.1980
     48  CA         0.0060  -27.9230   14.3670 C.3    42  ARG42       0.1597
     49  C         -1.0420  -28.7990   15.0420 C.2    42  ARG42       0.2287
     50  O         -2.2370  -28.5080   14.9710 O.2    42  ARG42      -0.2864
     51  CB         0.2980  -28.4330   12.9530 C.3    42  ARG42       0.0334
     52  CG        -0.9860  -28.7730   12.1810 C.3    42  ARG42       0.0492
     53  CD        -0.7400  -29.0400   10.7080 C.3    42  ARG42       0.2205
     54  NE         0.4440  -29.8620   10.4740 N.pl3  42  ARG42      -0.0865
     55  CZ         1.4150  -29.5390    9.6280 C.cat  42  ARG42       0.5346
     56  NH1        1.3390  -28.4110    8.9350 N.pl3  42  ARG42       0.1354
     57  NH2        2.4580  -30.3420    9.4730 N.pl3  42  ARG42       0.1354
     58  N         -3.6470  -27.0690   17.7520 N.3    45  PHE45      -0.1227
     59  CA        -4.6150  -26.0740   17.3150 C.3    45  PHE45       0.1736
     60  C         -5.6630  -26.6710   16.4190 C.2    45  PHE45       0.2596
     61  O         -5.4660  -27.7460   15.8590 O.2    45  PHE45      -0.2718
     62  CB        -3.9150  -24.8830   16.6440 C.3    45  PHE45       0.0547
     63  CG        -3.0130  -24.1210   17.5740 C.ar   45  PHE45      -0.0202
     64  CD1       -1.6760  -24.4660   17.7020 C.ar   45  PHE45      -0.0042
     65  CD2       -3.5170  -23.0980   18.3650 C.ar   45  PHE45      -0.0042
     66  CE1       -0.8500  -23.7910   18.5920 C.ar   45  PHE45      -0.0003
     67  CE2       -2.7000  -22.4120   19.2410 C.ar   45  PHE45      -0.0003
     68  CZ        -1.3640  -22.7650   19.3630 C.ar   45  PHE45      -0.0000
     69  N         -6.7940  -25.9860   16.3100 N.am   46  SER46      -0.1938
     70  CA        -7.9080  -26.4780   15.5090 C.3    46  SER46       0.2055
     71  C         -7.4720  -26.6500   14.0630 C.2    46  SER46       0.2643
     72  O         -6.8440  -25.7580   13.5070 O.2    46  SER46      -0.2714
     73  CB        -9.0920  -25.5100   15.6240 C.3    46  SER46       0.2130
     74  OG       -10.1640  -25.9200   14.8050 O.3    46  SER46      -0.2179
     75  N         -7.7790  -27.8010   13.4620 N.am   47  ASP47      -0.1957
     76  CA        -7.3490  -28.0910   12.0970 C.3    47  ASP47       0.1840
     77  C         -8.1380  -27.3180   11.0530 C.2    47  ASP47       0.2622
     78  O         -9.2700  -27.6720   10.7500 O.2    47  ASP47      -0.2715
     79  CB        -7.4240  -29.5870   11.8130 C.3    47  ASP47       0.1450
     80  CG        -6.7570  -29.9660   10.4970 C.2    47  ASP47       0.3671
     81  OD1       -6.4540  -29.0630    9.6810 O.co2  47  ASP47      -0.2456
     82  OD2       -6.5440  -31.1790   10.2770 O.co2  47  ASP47      -0.2456
     83  N         -7.5340  -26.2760   10.4860 N.am   48  LEU48      -0.1963
     84  CA        -8.2240  -25.4450    9.5080 C.3    48  LEU48       0.1728
     85  C         -8.4850  -26.1290    8.1670 C.2    48  LEU48       0.2616
     86  O         -9.3810  -25.7240    7.4300 O.2    48  LEU48      -0.2715
     87  CB        -7.5020  -24.1110    9.3020 C.3    48  LEU48       0.0311
     88  CG        -7.4630  -23.1680   10.5080 C.3    48  LEU48       0.0022
     89  CD1       -6.6010  -21.9460   10.2060 C.3    48  LEU48       0.0001
     90  CD2       -8.8710  -22.7640   10.9440 C.3    48  LEU48       0.0001
     91  N         -7.6920  -27.1390    7.8310 N.am   49  THR49      -0.1951
     92  CA        -7.8970  -27.8460    6.5670 C.3    49  THR49       0.1897
     93  C         -9.2420  -28.5640    6.6020 C.2    49  THR49       0.2313
     94  O         -9.8420  -28.8130    5.5650 O.2    49  THR49      -0.2863
     95  CB        -6.7470  -28.8260    6.2410 C.3    49  THR49       0.1794
     96  OG1       -6.7100  -29.8650    7.2300 O.3    49  THR49      -0.2208
     97  CG2       -5.4070  -28.0960    6.2090 C.3    49  THR49       0.0378
     98  N        -10.3630  -16.7410   11.5360 N.3    69  GLU69      -0.1231
     99  CA       -10.4900  -17.4790   12.7910 C.3    69  GLU69       0.1699
    100  C         -9.1040  -17.6360   13.4090 C.2    69  GLU69       0.2592
    101  O         -8.9220  -17.5970   14.6240 O.2    69  GLU69      -0.2718
    102  CB       -11.1570  -18.8440   12.5400 C.3    69  GLU69       0.0402
    103  CG       -11.1060  -19.7980   13.7170 C.3    69  GLU69       0.1161
    104  CD       -12.3080  -19.6590   14.6410 C.2    69  GLU69       0.3649
    105  OE1      -12.9350  -18.5770   14.6510 O.co2  69  GLU69      -0.2457
    106  OE2      -12.5970  -20.6170   15.3940 O.co2  69  GLU69      -0.2457
    107  N         -8.1050  -17.7430   12.5510 N.am   70  LEU70      -0.1980
    108  CA        -6.7240  -17.8660   13.0070 C.3    70  LEU70       0.1596
    109  C         -6.2730  -16.6070   13.7370 C.2    70  LEU70       0.2287
    110  O         -5.5640  -16.6850   14.7420 O.2    70  LEU70      -0.2864
    111  CB        -5.8070  -18.1330   11.8150 C.3    70  LEU70       0.0297
    112  CG        -4.5500  -18.9720   12.0520 C.3    70  LEU70       0.0022
    113  CD1       -4.0270  -19.4620   10.7240 C.3    70  LEU70       0.0001
    114  CD2       -3.5020  -18.1240   12.7300 C.3    70  LEU70       0.0001
    115  N         -8.3720  -14.3110   15.0870 N.3    72  ARG72      -0.1245
    116  CA        -9.4980  -13.7840   15.8580 C.3    72  ARG72       0.1563
    117  C         -9.1010  -12.9670   17.0950 C.2    72  ARG72       0.2260
    118  O         -9.7720  -11.9900   17.4340 O.2    72  ARG72      -0.2867
    119  CB       -10.4720  -14.9030   16.2240 C.3    72  ARG72       0.0307
    120  CG       -10.1420  -15.5820   17.5420 C.3    72  ARG72       0.0489
    121  CD       -11.0920  -16.7270   17.8210 C.3    72  ARG72       0.2205
    122  NE       -10.4100  -17.8200   18.5060 N.pl3  72  ARG72      -0.0865
    123  CZ       -10.1400  -18.9920   17.9480 C.cat  72  ARG72       0.5346
    124  NH1      -10.4970  -19.2250   16.6960 N.pl3  72  ARG72       0.1354
    125  NH2       -9.5180  -19.9310   18.6440 N.pl3  72  ARG72       0.1354
    126  N          0.0770  -12.0470   15.6540 N.3    76  ASN76      -0.1240
    127  CA         1.3830  -12.1670   16.2670 C.3    76  ASN76       0.1653
    128  C          2.2070  -13.0140   15.3150 C.2    76  ASN76       0.2266
    129  O          1.6750  -13.5300   14.3370 O.2    76  ASN76      -0.2867
    130  CB         1.3630  -12.6530   17.7300 C.3    76  ASN76       0.1155
    131  CG         0.8920  -14.0840   17.8820 C.2    76  ASN76       0.2627
    132  OD1        1.1550  -14.9280   17.0390 O.2    76  ASN76      -0.2716
    133  ND2        0.2490  -14.3780   19.0070 N.am   76  ASN76      -0.0877
    134  N          3.8050  -15.9660   15.6520 N.3    78  GLY78      -0.1210
    135  CA         3.4480  -17.3740   15.6660 C.3    78  GLY78       0.1956
    136  C          2.2380  -17.6620   14.7990 C.2    78  GLY78       0.2611
    137  O          2.1930  -18.6670   14.0820 O.2    78  GLY78      -0.2717
    138  N          1.2650  -16.7590   14.8460 N.am   79  ARG79      -0.1979
    139  CA         0.0460  -16.9140   14.0560 C.3    79  ARG79       0.1597
    140  C          0.3090  -16.7270   12.5640 C.2    79  ARG79       0.2287
    141  O         -0.3090  -17.3720   11.7230 O.2    79  ARG79      -0.2864
    142  CB        -1.0300  -15.9410   14.5490 C.3    79  ARG79       0.0334
    143  CG        -1.8070  -16.4820   15.7460 C.3    79  ARG79       0.0492
    144  CD        -2.5160  -15.3790   16.5320 C.3    79  ARG79       0.2205
    145  NE        -2.6450  -15.7630   17.9360 N.pl3  79  ARG79      -0.0865
    146  CZ        -3.1110  -14.9760   18.9020 C.cat  79  ARG79       0.5346
    147  NH1       -3.6120  -13.7890   18.6280 N.pl3  79  ARG79       0.1354
    148  NH2       -3.1160  -15.4020   20.1480 N.pl3  79  ARG79       0.1354
    149  N          3.1140  -17.5300   11.2140 N.3    81  VAL81      -0.1231
    150  CA         3.7540  -18.7970   10.8520 C.3    81  VAL81       0.1692
    151  C          2.6900  -19.8670   10.5970 C.2    81  VAL81       0.2591
    152  O          2.7660  -20.6140    9.6250 O.2    81  VAL81      -0.2718
    153  CB         4.7710  -19.2720   11.9230 C.3    81  VAL81       0.0266
    154  CG1        5.3190  -20.6720   11.5550 C.3    81  VAL81       0.0020
    155  CG2        5.9130  -18.2630   12.0540 C.3    81  VAL81       0.0020
    156  N          1.6830  -19.9240   11.4590 N.am   82  ALA82      -0.1980
    157  CA         0.6150  -20.9070   11.2910 C.3    82  ALA82       0.1597
    158  C         -0.1300  -20.6500    9.9730 C.2    82  ALA82       0.2287
    159  O         -0.5730  -21.5860    9.3000 O.2    82  ALA82      -0.2864
    160  CB        -0.3650  -20.8620   12.4930 C.3    82  ALA82       0.0319
    161  N          2.0490  -21.9030    7.0900 N.3    85  SER85      -0.1202
    162  CA         2.0010  -23.3530    7.1760 C.3    85  SER85       0.2020
    163  C          0.6420  -23.9070    6.7170 C.2    85  SER85       0.2618
    164  O          0.5780  -24.9330    6.0460 O.2    85  SER85      -0.2717
    165  CB         2.4010  -23.8110    8.5890 C.3    85  SER85       0.2103
    166  OG         1.7010  -24.9750    8.9510 O.3    85  SER85      -0.2182
    167  N         -0.4300  -23.1700    6.9860 N.am   86  PHE86      -0.1975
    168  CA        -1.7740  -23.5650    6.5440 C.3    86  PHE86       0.1639
    169  C         -1.8540  -23.5140    5.0180 C.2    86  PHE86       0.2290
    170  O         -2.3840  -24.4240    4.3850 O.2    86  PHE86      -0.2864
    171  CB        -2.8460  -22.6530    7.1680 C.3    86  PHE86       0.0560
    172  CG        -4.2330  -22.8700    6.6240 C.ar   86  PHE86      -0.0200
    173  CD1       -4.8040  -24.1380    6.6200 C.ar   86  PHE86      -0.0042
    174  CD2       -4.9780  -21.7950    6.1350 C.ar   86  PHE86      -0.0042
    175  CE1       -6.0910  -24.3370    6.1270 C.ar   86  PHE86      -0.0003
    176  CE2       -6.2710  -21.9730    5.6650 C.ar   86  PHE86      -0.0003
    177  CZ        -6.8300  -23.2520    5.6530 C.ar   86  PHE86      -0.0000
    178  N         -0.0690  -26.4780    3.5910 N.3    89  ALA89      -0.1245
    179  CA        -0.8700  -27.6890    3.7050 C.3    89  ALA89       0.1562
    180  C         -1.9590  -27.7600    2.6290 C.2    89  ALA89       0.2260
    181  O         -2.2280  -28.8270    2.0840 O.2    89  ALA89      -0.2867
    182  CB        -1.4670  -27.8150    5.0990 C.3    89  ALA89       0.0290
    183  N         13.3630  -12.8950   16.3850 N.3   134  LEU134     -0.1231
    184  CA        12.6050  -13.7190   17.3120 C.3   134  LEU134      0.1693
    185  C         12.5460  -15.2070   16.9730 C.2   134  LEU134      0.2592
    186  O         12.6900  -16.0530   17.8570 O.2   134  LEU134     -0.2718
    187  CB        11.1950  -13.1640   17.4920 C.3   134  LEU134      0.0284
    188  CG        11.0830  -11.8570   18.2880 C.3   134  LEU134      0.0019
    189  CD1        9.6960  -11.2540   18.1740 C.3   134  LEU134      0.0001
    190  CD2       11.4720  -12.0620   19.7440 C.3   134  LEU134      0.0001
    191  N         12.3090  -15.5190   15.7020 N.am  135  TYR135     -0.1962
    192  CA        12.1450  -16.9050   15.2510 C.3   135  TYR135      0.1771
    193  C         13.3330  -17.4710   14.4910 C.2   135  TYR135      0.2620
    194  O         13.4450  -18.6860   14.3250 O.2   135  TYR135     -0.2715
    195  CB        10.8790  -17.0230   14.3860 C.3   135  TYR135      0.0574
    196  CG         9.6130  -16.9310   15.1870 C.ar  135  TYR135     -0.0198
    197  CD1        9.1800  -15.7130   15.6920 C.ar  135  TYR135     -0.0009
    198  CD2        8.8970  -18.0740   15.5150 C.ar  135  TYR135     -0.0009
    199  CE1        8.0590  -15.6320   16.4820 C.ar  135  TYR135      0.0417
    200  CE2        7.7730  -18.0070   16.3050 C.ar  135  TYR135      0.0417
    201  CZ         7.3540  -16.7790   16.7810 C.ar  135  TYR135      0.1957
    202  OH         6.2360  -16.7070   17.5690 O.3   135  TYR135     -0.2866
    203  N         14.1970  -16.5920   13.9990 N.am  136  GLY136     -0.1954
    204  CA        15.3710  -17.0040   13.2530 C.3   136  GLY136      0.1869
    205  C         16.6050  -17.0580   14.1290 C.2   136  GLY136      0.2309
    206  O         16.9510  -18.1080   14.6590 O.2   136  GLY136     -0.2863
@<TRIPOS>BOND
     1   181   180    2
     2   180   179    1
     3   178   179    1
     4   179   182    1
     5   170   169    2
     6   169   168    1
     7    94    93    2
     8   177   176   ar
     9   177   175   ar
    10   176   174   ar
    11   164   163    2
    12   175   173   ar
    13   174   172   ar
    14    97    95    1
    15    95    92    1
    16    95    96    1
    17   168   167    1
    18   168   171    1
    19    92    93    1
    20    92    91    1
    21   173   172   ar
    22   172   171    1
    23   163   167   am
    24   163   162    1
    25   161   162    1
    26   162   165    1
    27    86    85    2
    28    91    85   am
    29    85    84    1
    30     1     2    1
    31   165   166    1
    32    56    55    1
    33   159   158    2
    34    87    84    1
    35    87    88    1
    36    57    55    1
    37    84    83    1
    38   152   151    2
    39    55    54    2
    40    81    80   ar
    41     6     7    1
    42     6     5    1
    43     2     5    1
    44     2     3    1
    45     9     7   ar
    46   158   157    1
    47     7     8   ar
    48    89    88    1
    49    82    80   ar
    50    54    53    1
    51    83    77   am
    52    80    79    1
    53    88    90    1
    54   151   150    1
    55   151   156   am
    56    53    52    1
    57   113   112    1
    58    78    77    2
    59     3    10   am
    60     3     4    2
    61    10    11    1
    62   150   149    1
    63   150   153    1
    64    77    76    1
    65   157   156    1
    66   157   160    1
    67    12    11    1
    68    12    13    2
    69    98    99    1
    70   154   153    1
    71   141   140    2
    72    11    14    1
    73    79    76    1
    74   111   112    1
    75   111   108    1
    76   153   155    1
    77   112   114    1
    78    76    75    1
    79    52    51    1
    80    31    33   ar
    81    31    29   ar
    82    15    16    1
    83   102    99    1
    84   102   103    1
    85   107   108    1
    86   107   100   am
    87   140   139    1
    88    33    34   ar
    89    99   100    1
    90    28    29    1
    91    28    25    1
    92    51    48    1
    93   108   109    1
    94    29    30   ar
    95   204   203    1
    96   204   205    1
    97    26    25    1
    98    26    27    2
    99   100   101    2
   100    75    71   am
   101    24    25    1
   102    24    17   am
   103    72    71    2
   104    34    32   ar
   105   103   104    1
   106   109   110    2
   107    16    17    1
   108    16    19    1
   109   203   193   am
   110   139   142    1
   111   139   138    1
   112    71    70    1
   113   137   136    2
   114    17    18    2
   115   205   206    2
   116    30    32   ar
   117   194   193    2
   118   129   128    2
   119    48    49    1
   120    48    47    1
   121   195   196    1
   122   195   192    1
   123   193   192    1
   124    19    20    1
   125   142   143    1
   126   104   105   ar
   127   104   106   ar
   128   136   138   am
   129   136   135    1
   130    74    73    1
   131    50    49    2
   132   115   116    1
   133    47    37   am
   134   196   198   ar
   135   196   197   ar
   136   192   191    1
   137   128   127    1
   138    70    73    1
   139    70    69    1
   140   198   200   ar
   141   134   135    1
   142   126   127    1
   143   197   199   ar
   144   191   185   am
   145   143   144    1
   146   116   119    1
   147   116   117    1
   148    61    60    2
   149    22    21   ar
   150    20    21    1
   151   119   120    1
   152   127   130    1
   153   200   201   ar
   154    69    60   am
   155   183   184    1
   156    60    59    1
   157    37    38    2
   158    37    36    1
   159   199   201   ar
   160   144   145    1
   161    62    59    1
   162    62    63    1
   163    21    23   ar
   164   124   123    1
   165   201   202    1
   166    35    36    1
   167   185   184    1
   168   185   186    2
   169   132   131    2
   170   117   118    2
   171    39    36    1
   172    39    40    1
   173   184   187    1
   174    59    58    1
   175   187   188    1
   176   120   121    1
   177    63    64   ar
   178    63    65   ar
   179    64    66   ar
   180    41    40   ar
   181    41    43   ar
   182   130   131    1
   183   121   122    1
   184   131   133   am
   185   145   146    2
   186   123   122    2
   187   123   125    1
   188    40    42   ar
   189   189   188    1
   190   188   190    1
   191    65    67   ar
   192    43    45   ar
   193    66    68   ar
   194   147   146    1
   195   146   148    1
   196    67    68   ar
   197    42    44   ar
   198    45    44   ar
   199    45    46    1
