@<TRIPOS>MOLECULE
tmp/4qwdA00.pdb
 163 160 0 0 0
SMALL
GASTEIGER

@<TRIPOS>ATOM
      1  N        -15.6170    9.9570  -17.0670 N.3     7  ASP7       -0.1225
      2  CA       -17.0520   10.1270  -17.2740 C.3     7  ASP7        0.1805
      3  C        -17.5780    8.8720  -17.9930 C.2     7  ASP7        0.2598
      4  O        -17.2610    8.6570  -19.1640 O.2     7  ASP7       -0.2718
      5  CB       -17.2620   11.3620  -18.1520 C.3     7  ASP7        0.1424
      6  CG       -18.7170   11.7130  -18.3150 C.2     7  ASP7        0.3668
      7  OD1      -19.5380   10.8120  -18.1270 O.co2   7  ASP7       -0.2456
      8  OD2      -19.0400   12.8740  -18.6440 O.co2   7  ASP7       -0.2456
      9  N        -18.3610    8.0410  -17.3040 N.am    8  PHE8       -0.1962
     10  CA       -18.8720    6.8160  -17.9260 C.3     8  PHE8        0.1771
     11  C        -19.7880    7.1720  -19.1030 C.2     8  PHE8        0.2620
     12  O        -20.5430    8.0910  -19.0210 O.2     8  PHE8       -0.2715
     13  CB       -19.6520    5.9630  -16.9080 C.3     8  PHE8        0.0574
     14  CG       -18.9310    5.7210  -15.6010 C.ar    8  PHE8       -0.0200
     15  CD1      -17.5420    5.8010  -15.5020 C.ar    8  PHE8       -0.0042
     16  CD2      -19.6600    5.3740  -14.4650 C.ar    8  PHE8       -0.0042
     17  CE1      -16.8960    5.5300  -14.2860 C.ar    8  PHE8       -0.0003
     18  CE2      -19.0310    5.1040  -13.2600 C.ar    8  PHE8       -0.0003
     19  CZ       -17.6400    5.1790  -13.1690 C.ar    8  PHE8       -0.0000
     20  N        -19.7280    6.4490  -20.2130 N.am    9  ASP9       -0.1957
     21  CA       -20.5830    6.7870  -21.3590 C.3     9  ASP9        0.1840
     22  C        -22.0280    6.3090  -21.1690 C.2     9  ASP9        0.2622
     23  O        -22.2380    5.2050  -20.6680 O.2     9  ASP9       -0.2715
     24  CB       -20.0160    6.1580  -22.6500 C.3     9  ASP9        0.1450
     25  CG       -18.5770    6.5950  -22.9370 C.2     9  ASP9        0.3671
     26  OD1      -18.2890    7.8050  -22.8650 O.co2   9  ASP9       -0.2456
     27  OD2      -17.7350    5.7270  -23.2460 O.co2   9  ASP9       -0.2456
     28  N        -23.0070    7.1340  -21.5720 N.am   10  TYR10      -0.1960
     29  CA       -24.4450    6.7970  -21.4750 C.3    10  TYR10       0.1771
     30  C        -24.6120    5.7850  -20.3850 C.2    10  TYR10       0.2620
     31  O        -25.2520    4.7640  -20.5770 O.2    10  TYR10      -0.2715
     32  CB       -24.9160    6.1540  -22.7740 C.3    10  TYR10       0.0574
     33  CG       -24.4710    6.9450  -23.9470 C.ar   10  TYR10      -0.0198
     34  CD1      -24.9340    8.2470  -24.1310 C.ar   10  TYR10      -0.0009
     35  CD2      -23.5050    6.4500  -24.8280 C.ar   10  TYR10      -0.0009
     36  CE1      -24.4410    9.0500  -25.1540 C.ar   10  TYR10       0.0417
     37  CE2      -23.0050    7.2510  -25.8620 C.ar   10  TYR10       0.0417
     38  CZ       -23.4770    8.5470  -26.0120 C.ar   10  TYR10       0.1957
     39  OH       -22.9860    9.3610  -26.9990 O.3    10  TYR10      -0.2866
     40  N        -24.0450    6.0850  -19.2320 N.am   11  PHE11      -0.1960
     41  CA       -24.0360    5.1230  -18.1670 C.3    11  PHE11       0.1771
     42  C        -25.2560    4.2530  -17.9300 C.2    11  PHE11       0.2619
     43  O        -25.1600    3.0380  -18.0610 O.2    11  PHE11      -0.2715
     44  CB       -23.5870    5.7840  -16.8660 C.3    11  PHE11       0.0574
     45  CG       -23.2020    4.7950  -15.8210 C.ar   11  PHE11      -0.0200
     46  CD1      -22.3110    3.7720  -16.1170 C.ar   11  PHE11      -0.0042
     47  CD2      -23.7800    4.8400  -14.5590 C.ar   11  PHE11      -0.0042
     48  CE1      -22.0000    2.7920  -15.1600 C.ar   11  PHE11      -0.0003
     49  CE2      -23.4760    3.8740  -13.6000 C.ar   11  PHE11      -0.0003
     50  CZ       -22.5820    2.8470  -13.9030 C.ar   11  PHE11      -0.0000
     51  N        -26.3960    4.8370  -17.5760 N.am   12  TYR12      -0.1974
     52  CA       -27.5730    4.0100  -17.3230 C.3    12  TYR12       0.1639
     53  C        -27.9020    3.0860  -18.4980 C.2    12  TYR12       0.2290
     54  O        -28.1540    1.8960  -18.3170 O.2    12  TYR12      -0.2864
     55  CB       -28.7920    4.8830  -17.0260 C.3    12  TYR12       0.0560
     56  CG       -28.7610    5.6170  -15.6950 C.ar   12  TYR12      -0.0198
     57  CD1      -27.6280    5.5980  -14.8730 C.ar   12  TYR12      -0.0009
     58  CD2      -29.8670    6.3560  -15.2760 C.ar   12  TYR12      -0.0009
     59  CE1      -27.6040    6.2980  -13.6680 C.ar   12  TYR12       0.0417
     60  CE2      -29.8500    7.0590  -14.0810 C.ar   12  TYR12       0.0417
     61  CZ       -28.7220    7.0270  -13.2840 C.ar   12  TYR12       0.1957
     62  OH       -28.7170    7.7380  -12.1080 O.3    12  TYR12      -0.2866
     63  N        -38.2010    7.3640  -16.1890 N.3    32  VAL32      -0.1245
     64  CA       -38.7060    7.5540  -14.8450 C.3    32  VAL32       0.1561
     65  C        -40.2130    7.6910  -14.9760 C.2    32  VAL32       0.2260
     66  O        -40.7220    8.7850  -15.2110 O.2    32  VAL32      -0.2867
     67  CB       -38.2010    8.8510  -14.2010 C.3    32  VAL32       0.0252
     68  CG1      -38.6510    8.9030  -12.7390 C.3    32  VAL32       0.0019
     69  CG2      -36.7010    8.9390  -14.3100 C.3    32  VAL32       0.0019
     70  N        -37.4890   11.1820  -19.3740 N.3    43  VAL43      -0.1231
     71  CA       -36.3320   10.3870  -19.7510 C.3    43  VAL43       0.1692
     72  C        -35.1890   10.7020  -18.7740 C.2    43  VAL43       0.2592
     73  O        -34.8930   11.8610  -18.5310 O.2    43  VAL43      -0.2718
     74  CB       -35.9020   10.7230  -21.2250 C.3    43  VAL43       0.0266
     75  CG1      -34.6390    9.9540  -21.6130 C.3    43  VAL43       0.0020
     76  CG2      -37.0460   10.3660  -22.1900 C.3    43  VAL43       0.0020
     77  N        -34.5800    9.6770  -18.1830 N.am   44  ALA44      -0.1966
     78  CA       -33.4490    9.9090  -17.2770 C.3    44  ALA44       0.1728
     79  C        -32.2290   10.0790  -18.1810 C.2    44  ALA44       0.2616
     80  O        -31.4120   10.9870  -18.0090 O.2    44  ALA44      -0.2715
     81  CB       -33.2460    8.7090  -16.3340 C.3    44  ALA44       0.0334
     82  N        -32.1030    9.1850  -19.1470 N.am   45  THR45      -0.1951
     83  CA       -31.0050    9.2800  -20.0800 C.3    45  THR45       0.1897
     84  C        -31.2070    8.2870  -21.2050 C.2    45  THR45       0.2313
     85  O        -32.1570    7.5140  -21.1810 O.2    45  THR45      -0.2863
     86  CB       -29.6620    9.0330  -19.3840 C.3    45  THR45       0.1794
     87  OG1      -28.6130    9.4450  -20.2690 O.3    45  THR45      -0.2208
     88  CG2      -29.4870    7.5710  -19.0380 C.3    45  THR45       0.0378
     89  N        -30.1070    9.2020  -28.6740 N.3    51  ARG51      -0.1245
     90  CA       -29.7410   10.6000  -28.5680 C.3    51  ARG51       0.1563
     91  C        -29.4960   11.3510  -29.8510 C.2    51  ARG51       0.2260
     92  O        -29.7460   12.5590  -29.9370 O.2    51  ARG51      -0.2867
     93  CB       -28.4920   10.7360  -27.7310 C.3    51  ARG51       0.0307
     94  CG       -28.7580   11.2500  -26.3840 C.3    51  ARG51       0.0489
     95  CD       -27.4540   11.5000  -25.7310 C.3    51  ARG51       0.2205
     96  NE       -27.3960   10.7770  -24.4760 N.pl3  51  ARG51      -0.0865
     97  CZ       -26.3940   10.8870  -23.6200 C.cat  51  ARG51       0.5346
     98  NH1      -25.3700   11.6860  -23.8880 N.pl3  51  ARG51       0.1354
     99  NH2      -26.4260   10.2020  -22.4870 N.pl3  51  ARG51       0.1354
    100  N        -32.1420   13.4470  -22.0320 N.3    57  ALA57      -0.1231
    101  CA       -32.5510   13.5290  -20.6470 C.3    57  ALA57       0.1694
    102  C        -33.4750   14.7060  -20.4130 C.2    57  ALA57       0.2592
    103  O        -33.3120   15.7710  -21.0110 O.2    57  ALA57      -0.2718
    104  CB       -31.3270   13.6530  -19.7620 C.3    57  ALA57       0.0304
    105  N        -34.4590   14.4980  -19.5460 N.am   58  GLY58      -0.1957
    106  CA       -35.3800   15.5640  -19.2170 C.3    58  GLY58       0.1869
    107  C        -36.6220   15.6960  -20.0710 C.2    58  GLY58       0.2309
    108  O        -37.6190   16.2540  -19.6170 O.2    58  GLY58      -0.2863
    109  N        -36.0210    3.0440  -14.9450 N.3    76  MET76      -0.1245
    110  CA       -34.7750    3.2320  -14.2230 C.3    76  MET76       0.1570
    111  C        -34.5720    2.1820  -13.1360 C.2    76  MET76       0.2261
    112  O        -35.4910    1.8800  -12.3780 O.2    76  MET76      -0.2867
    113  CB       -34.7690    4.6070  -13.5830 C.3    76  MET76       0.0387
    114  CG       -33.8400    5.5750  -14.2390 C.3    76  MET76       0.0595
    115  SD       -32.7220    6.1760  -13.0020 S.3    76  MET76      -0.1393
    116  CE       -33.8030    7.2170  -12.0670 C.3    76  MET76       0.0692
    117  N        -20.2490   12.0030   -8.7960 N.3   103  SER103     -0.1202
    118  CA       -21.6040   11.5160   -8.9690 C.3   103  SER103      0.2020
    119  C        -21.5160   10.0340   -9.2840 C.2   103  SER103      0.2619
    120  O        -20.4340    9.4510   -9.3280 O.2   103  SER103     -0.2717
    121  CB       -22.2880   12.2600  -10.1220 C.3   103  SER103      0.2103
    122  OG       -21.8030   11.8010  -11.3710 O.3   103  SER103     -0.2182
    123  N        -22.6630    9.4210   -9.5130 N.am  104  ILE104     -0.1965
    124  CA       -22.6950    8.0020   -9.8130 C.3   104  ILE104      0.1727
    125  C        -21.9370    7.7510  -11.0990 C.2   104  ILE104      0.2616
    126  O        -21.4850    6.6460  -11.3870 O.2   104  ILE104     -0.2715
    127  CB       -24.1540    7.5520  -10.0570 C.3   104  ILE104      0.0290
    128  CG1      -24.2150    6.0410  -10.2300 C.3   104  ILE104      0.0022
    129  CG2      -24.6990    8.2280  -11.3430 C.3   104  ILE104      0.0023
    130  CD1      -25.6230    5.4610  -10.1020 C.3   104  ILE104      0.0001
    131  N        -21.7820    8.8250  -11.8430 N.am  105  ASP105     -0.1957
    132  CA       -21.2400    8.7860  -13.1810 C.3   105  ASP105      0.1840
    133  C        -19.8870    9.4310  -13.4720 C.2   105  ASP105      0.2621
    134  O        -19.3620    9.2760  -14.5830 O.2   105  ASP105     -0.2715
    135  CB       -22.3560    9.4110  -14.0150 C.3   105  ASP105      0.1450
    136  CG       -21.9920    9.5930  -15.4070 C.2   105  ASP105      0.3671
    137  OD1      -21.7810    8.5820  -16.0960 O.co2 105  ASP105     -0.2456
    138  OD2      -21.9350   10.7590  -15.8130 O.co2 105  ASP105     -0.2456
    139  N        -19.3150   10.1510  -12.5040 N.am  106  GLU106     -0.1977
    140  CA       -18.0400   10.8200  -12.7420 C.3   106  GLU106      0.1602
    141  C        -17.0740   10.8270  -11.5800 C.2   106  GLU106      0.2287
    142  O        -17.4640   10.8550  -10.4130 O.2   106  GLU106     -0.2864
    143  CB       -18.2650   12.2700  -13.1490 C.3   106  GLU106      0.0415
    144  CG       -19.6080   12.5540  -13.7430 C.3   106  GLU106      0.1163
    145  CD       -19.6700   13.9370  -14.3310 C.2   106  GLU106      0.3649
    146  OE1      -19.4020   14.9310  -13.6240 O.co2 106  GLU106     -0.2457
    147  OE2      -19.9820   14.0470  -15.5190 O.co2 106  GLU106     -0.2457
    148  N        -16.2380   12.7620  -25.4520 N.3   159  LYS159     -0.1231
    149  CA       -17.2020   11.6760  -25.3520 C.3   159  LYS159      0.1678
    150  C        -17.9450   11.5190  -26.6750 C.2   159  LYS159      0.2434
    151  O        -18.1520   12.4950  -27.3950 O.2   159  LYS159     -0.2733
    152  CB       -18.2030   11.9490  -24.2350 C.3   159  LYS159      0.0284
    153  CG       -18.9180   13.2640  -24.3970 C.3   159  LYS159      0.0035
    154  CD       -19.9600   13.4560  -23.3170 C.3   159  LYS159      0.0206
    155  CE       -19.3530   13.3400  -21.9280 C.3   159  LYS159      0.1093
    156  NZ       -20.2860   13.8720  -20.9040 N.3   159  LYS159     -0.1314
    157  N        -18.3940   10.2930  -26.9860 N.am  160  PRO160     -0.2729
    158  CA       -18.2070    9.1210  -26.1260 C.3   160  PRO160      0.1401
    159  C        -16.9830    8.2410  -26.3960 C.2   160  PRO160      0.2269
    160  O        -16.3130    8.3630  -27.4220 O.2   160  PRO160     -0.2865
    161  CB       -19.5100    8.3620  -26.3110 C.3   160  PRO160      0.0296
    162  CG       -19.8060    8.6000  -27.7480 C.3   160  PRO160      0.0237
    163  CD       -19.5170   10.0760  -27.9210 C.3   160  PRO160      0.0939
@<TRIPOS>BOND
     1    92    91    2
     2    91    90    1
     3    89    90    1
     4    90    93    1
     5   163   162    1
     6   163   157    1
     7   162   161    1
     8    93    94    1
     9   160   159    2
    10   151   150    2
    11    39    38    1
    12   157   150   am
    13   157   158    1
    14   150   149    1
    15   159   158    1
    16    94    95    1
    17   161   158    1
    18    38    37   ar
    19    38    36   ar
    20    37    35   ar
    21    95    96    1
    22   148   149    1
    23   149   152    1
    24    36    34   ar
    25    35    33   ar
    26    96    97    2
    27   153   152    1
    28   153   154    1
    29    34    33   ar
    30    33    32    1
    31    98    97    1
    32    97    99    1
    33   154   155    1
    34    27    25   ar
    35    25    26   ar
    36    25    24    1
    37    32    29    1
    38    24    21    1
    39    76    74    1
    40   100   101    1
    41   155   156    1
    42    75    74    1
    43    28    29    1
    44    28    22   am
    45    29    30    1
    46    21    22    1
    47    21    20    1
    48    74    71    1
    49    84    85    2
    50    84    83    1
    51    22    23    2
    52   103   102    2
    53   101   102    1
    54   101   104    1
    55    31    30    2
    56   102   105   am
    57    30    40   am
    58    87    86    1
    59    20    11   am
    60    83    86    1
    61    83    82    1
    62   107   108    2
    63   107   106    1
    64    71    70    1
    65    71    72    1
    66   105   106    1
    67    86    88    1
    68    40    41    1
    69     4     3    2
    70    82    79   am
    71    11    12    2
    72    11    10    1
    73    72    73    2
    74    72    77   am
    75     8     6   ar
    76    53    54    2
    77    53    52    1
    78     6     5    1
    79     6     7   ar
    80    77    78    1
    81    79    80    2
    82    79    78    1
    83    41    42    1
    84    41    44    1
    85     5     2    1
    86    43    42    2
    87     3     9   am
    88     3     2    1
    89    42    51   am
    90    10     9    1
    91    10    13    1
    92    51    52    1
    93    52    55    1
    94    78    81    1
    95     2     1    1
    96    55    56    1
    97    13    14    1
    98    44    45    1
    99    63    64    1
   100    46    45   ar
   101    46    48   ar
   102   137   136   ar
   103    45    47   ar
   104   138   136   ar
   105    56    58   ar
   106    56    57   ar
   107    14    15   ar
   108    14    16   ar
   109   147   145   ar
   110    15    17   ar
   111   136   135    1
   112    58    60   ar
   113    66    65    2
   114    48    50   ar
   115    65    64    1
   116   109   110    1
   117    57    59   ar
   118    64    67    1
   119   134   133    2
   120    47    49   ar
   121    16    18   ar
   122   145   144    1
   123   145   146   ar
   124    69    67    1
   125    17    19   ar
   126   114   113    1
   127   114   115    1
   128   110   113    1
   129   110   111    1
   130    67    68    1
   131    60    61   ar
   132   135   132    1
   133    50    49   ar
   134   144   143    1
   135    59    61   ar
   136   133   132    1
   137   133   139   am
   138    61    62    1
   139    18    19   ar
   140   132   131    1
   141   143   140    1
   142   111   112    2
   143   115   116    1
   144   140   139    1
   145   140   141    1
   146   131   125   am
   147   141   142    2
   148   126   125    2
   149   122   121    1
   150   129   127    1
   151   125   124    1
   152   128   130    1
   153   128   127    1
   154   121   118    1
   155   127   124    1
   156   124   123    1
   157   123   119   am
   158   120   119    2
   159   119   118    1
   160   118   117    1
