@<TRIPOS>MOLECULE
tmp/4qweA00.pdb
 156 152 0 0 0
SMALL
GASTEIGER

@<TRIPOS>ATOM
      1  N         15.6600    9.8770   17.1060 N.3     7  ASP7       -0.1225
      2  CA        17.0820   10.1020   17.3290 C.3     7  ASP7        0.1805
      3  C         17.6540    8.8640   18.0600 C.2     7  ASP7        0.2598
      4  O         17.3130    8.5910   19.2360 O.2     7  ASP7       -0.2718
      5  CB        17.2340   11.3450   18.1700 C.3     7  ASP7        0.1424
      6  CG        18.6850   11.8720   18.1960 C.2     7  ASP7        0.3668
      7  OD1       19.6310   11.0700   18.2940 O.co2   7  ASP7       -0.2456
      8  OD2       18.8820   13.1150   18.1670 O.co2   7  ASP7       -0.2456
      9  N         18.4950    8.1040   17.3770 N.am    8  PHE8       -0.1962
     10  CA        19.0520    6.8610   17.9230 C.3     8  PHE8        0.1771
     11  C         19.9620    7.1790   19.0750 C.2     8  PHE8        0.2620
     12  O         20.7970    8.0570   18.9650 O.2     8  PHE8       -0.2715
     13  CB        19.8140    6.0570   16.8170 C.3     8  PHE8        0.0574
     14  CG        19.0040    5.8310   15.5410 C.ar    8  PHE8       -0.0200
     15  CD1       17.6080    6.0240   15.5180 C.ar    8  PHE8       -0.0042
     16  CD2       19.6270    5.3610   14.3800 C.ar    8  PHE8       -0.0042
     17  CE1       16.8640    5.8070   14.3110 C.ar    8  PHE8       -0.0003
     18  CE2       18.9640    5.1160   13.2680 C.ar    8  PHE8       -0.0003
     19  CZ        17.5260    5.3280   13.2010 C.ar    8  PHE8       -0.0000
     20  N         19.8310    6.5070   20.2130 N.am    9  ASP9       -0.1957
     21  CA        20.6630    6.8710   21.3770 C.3     9  ASP9        0.1840
     22  C         22.0930    6.3970   21.2450 C.2     9  ASP9        0.2622
     23  O         22.3050    5.2200   20.8850 O.2     9  ASP9       -0.2715
     24  CB        20.0730    6.2820   22.6760 C.3     9  ASP9        0.1450
     25  CG        18.6350    6.7390   22.9460 C.2     9  ASP9        0.3671
     26  OD1       18.2620    7.8930   22.6840 O.co2   9  ASP9       -0.2456
     27  OD2       17.8510    5.9130   23.4260 O.co2   9  ASP9       -0.2456
     28  N         23.0670    7.2730   21.5570 N.am   10  TYR10      -0.1960
     29  CA        24.5130    6.9140   21.5670 C.3    10  TYR10       0.1771
     30  C         24.7840    5.8940   20.4800 C.2    10  TYR10       0.2620
     31  O         25.4320    4.8690   20.7260 O.2    10  TYR10      -0.2715
     32  CB        24.9200    6.3400   22.9460 C.3    10  TYR10       0.0574
     33  CG        24.4560    7.2140   24.0180 C.ar   10  TYR10      -0.0198
     34  CD1       24.8640    8.5780   24.0670 C.ar   10  TYR10      -0.0009
     35  CD2       23.5200    6.7590   24.9800 C.ar   10  TYR10      -0.0009
     36  CE1       24.3530    9.4760   25.0790 C.ar   10  TYR10       0.0417
     37  CE2       23.0420    7.6660   26.0310 C.ar   10  TYR10       0.0417
     38  CZ        23.4470    9.0100   26.0450 C.ar   10  TYR10       0.1957
     39  OH        22.9820    9.8930   26.9950 O.3    10  TYR10      -0.2866
     40  N         24.2500    6.1650   19.2890 N.am   11  PHE11      -0.1960
     41  CA        24.1770    5.1390   18.2130 C.3    11  PHE11       0.1771
     42  C         25.3640    4.2730   17.9780 C.2    11  PHE11       0.2619
     43  O         25.2490    3.0470   18.0590 O.2    11  PHE11      -0.2715
     44  CB        23.6860    5.7840   16.8870 C.3    11  PHE11       0.0574
     45  CG        23.2430    4.7940   15.8880 C.ar   11  PHE11      -0.0200
     46  CD1       22.3640    3.7970   16.2560 C.ar   11  PHE11      -0.0042
     47  CD2       23.7330    4.8250   14.5750 C.ar   11  PHE11      -0.0042
     48  CE1       21.9610    2.7950   15.3110 C.ar   11  PHE11      -0.0003
     49  CE2       23.3460    3.8460   13.6340 C.ar   11  PHE11      -0.0003
     50  CZ        22.4520    2.8310   14.0120 C.ar   11  PHE11      -0.0000
     51  N         26.5150    4.8540   17.6500 N.am   12  TYR12      -0.1974
     52  CA        27.6540    4.0370   17.3310 C.3    12  TYR12       0.1639
     53  C         27.9950    3.0730   18.5320 C.2    12  TYR12       0.2290
     54  O         28.2030    1.8840   18.3360 O.2    12  TYR12      -0.2864
     55  CB        28.8540    4.8980   17.0590 C.3    12  TYR12       0.0560
     56  CG        28.7990    5.7170   15.7660 C.ar   12  TYR12      -0.0198
     57  CD1       27.6900    5.6430   14.9150 C.ar   12  TYR12      -0.0009
     58  CD2       29.8750    6.5290   15.3910 C.ar   12  TYR12      -0.0009
     59  CE1       27.6340    6.3580   13.7410 C.ar   12  TYR12       0.0417
     60  CE2       29.8660    7.2310   14.2110 C.ar   12  TYR12       0.0417
     61  CZ        28.7500    7.1610   13.3990 C.ar   12  TYR12       0.1957
     62  OH        28.6880    7.9420   12.2570 O.3    12  TYR12      -0.2866
     63  N         38.1220    7.5300   16.1950 N.3    32  VAL32      -0.1245
     64  CA        38.6480    7.6600   14.8370 C.3    32  VAL32       0.1561
     65  C         40.1450    7.8490   15.0180 C.2    32  VAL32       0.2260
     66  O         40.5920    8.9410   15.3940 O.2    32  VAL32      -0.2867
     67  CB        38.1390    8.8830   14.1680 C.3    32  VAL32       0.0252
     68  CG1       38.5490    8.8530   12.7080 C.3    32  VAL32       0.0019
     69  CG2       36.6250    9.0230   14.3470 C.3    32  VAL32       0.0019
     70  N         37.4740   11.2800   19.4160 N.3    43  VAL43      -0.1231
     71  CA        36.3130   10.4950   19.7780 C.3    43  VAL43       0.1692
     72  C         35.1690   10.8220   18.8170 C.2    43  VAL43       0.2592
     73  O         34.8310   12.0000   18.6700 O.2    43  VAL43      -0.2718
     74  CB        35.8930   10.8340   21.2230 C.3    43  VAL43       0.0266
     75  CG1       34.6430   10.0320   21.6390 C.3    43  VAL43       0.0020
     76  CG2       37.0990   10.5090   22.1750 C.3    43  VAL43       0.0020
     77  N         34.5400    9.7990   18.2150 N.am   44  ALA44      -0.1966
     78  CA        33.3600   10.0180   17.4170 C.3    44  ALA44       0.1728
     79  C         32.1520   10.1700   18.2870 C.2    44  ALA44       0.2616
     80  O         31.3020   11.0800   18.0710 O.2    44  ALA44      -0.2715
     81  CB        33.1720    8.7630   16.3440 C.3    44  ALA44       0.0334
     82  N         31.9930    9.2140   19.2400 N.am   45  THR45      -0.1951
     83  CA        30.9340    9.2690   20.2340 C.3    45  THR45       0.1897
     84  C         31.2630    8.3210   21.3940 C.2    45  THR45       0.2313
     85  O         32.1910    7.5370   21.3000 O.2    45  THR45      -0.2863
     86  CB        29.5600    8.7890   19.8170 C.3    45  THR45       0.1794
     87  OG1       29.6700    7.9590   18.6720 O.3    45  THR45      -0.2208
     88  CG2       28.6720    9.9610   19.5660 C.3    45  THR45       0.0378
     89  N         30.1010    9.3720   28.7790 N.3    51  ARG51      -0.1245
     90  CA        29.7550   10.7870   28.7780 C.3    51  ARG51       0.1563
     91  C         29.5260   11.3850   30.1410 C.2    51  ARG51       0.2260
     92  O         29.7760   12.6010   30.3240 O.2    51  ARG51      -0.2867
     93  CB        28.5070   11.0720   27.9510 C.3    51  ARG51       0.0307
     94  CG        28.7130   11.0400   26.5390 C.3    51  ARG51       0.0489
     95  CD        27.5210   11.5560   25.8510 C.3    51  ARG51       0.2205
     96  NE        27.5400   11.0540   24.5060 N.pl3  51  ARG51      -0.0865
     97  CZ        26.5860   11.2760   23.6320 C.cat  51  ARG51       0.5346
     98  NH1       25.5280   12.0300   23.9510 N.pl3  51  ARG51       0.1354
     99  NH2       26.7080   10.7430   22.4440 N.pl3  51  ARG51       0.1354
    100  N         32.0670   13.5120   22.1130 N.3    57  ALA57      -0.1231
    101  CA        32.5020   13.5590   20.7210 C.3    57  ALA57       0.1694
    102  C         33.4510   14.7200   20.5330 C.2    57  ALA57       0.2592
    103  O         33.2280   15.7950   21.0800 O.2    57  ALA57      -0.2718
    104  CB        31.2340   13.6930   19.7460 C.3    57  ALA57       0.0304
    105  N         34.5310   14.4960   19.8200 N.am   58  GLY58      -0.1957
    106  CA        35.4200   15.5880   19.4200 C.3    58  GLY58       0.1869
    107  C         36.6820   15.7440   20.2210 C.2    58  GLY58       0.2309
    108  O         37.6680   16.2710   19.7430 O.2    58  GLY58      -0.2863
    109  N         36.0810    3.1690   15.0400 N.3    76  MET76      -0.1245
    110  CA        34.8020    3.3710   14.3210 C.3    76  MET76       0.1570
    111  C         34.6070    2.3310   13.2110 C.2    76  MET76       0.2261
    112  O         35.5540    2.0010   12.4780 O.2    76  MET76      -0.2867
    113  CB        34.7840    4.7440   13.7160 C.3    76  MET76       0.0387
    114  CG        33.7050    5.5970   14.3220 C.3    76  MET76       0.0595
    115  SD        32.8570    6.3760   13.0060 S.3    76  MET76      -0.1393
    116  CE        34.1370    7.2520   12.1820 C.3    76  MET76       0.0692
    117  N         20.3070   12.0540    8.8880 N.3   103  SER103     -0.1202
    118  CA        21.6960   11.5810    9.0750 C.3   103  SER103      0.2020
    119  C         21.6230   10.1560    9.4180 C.2   103  SER103      0.2619
    120  O         20.5390    9.5510    9.4400 O.2   103  SER103     -0.2717
    121  CB        22.4250   12.3250   10.2180 C.3   103  SER103      0.2103
    122  OG        22.0410   11.7960   11.4880 O.3   103  SER103     -0.2182
    123  N         22.7760    9.5730    9.6830 N.am  104  ILE104     -0.1965
    124  CA        22.8080    8.1260    9.9480 C.3   104  ILE104      0.1727
    125  C         21.9490    7.8210   11.1840 C.2   104  ILE104      0.2616
    126  O         21.5210    6.6820   11.3790 O.2   104  ILE104     -0.2715
    127  CB        24.2700    7.6550   10.1450 C.3   104  ILE104      0.0290
    128  CG1       24.3000    6.1480   10.2450 C.3   104  ILE104      0.0022
    129  CG2       24.8680    8.2940   11.4840 C.3   104  ILE104      0.0023
    130  CD1       25.7530    5.5850   10.2030 C.3   104  ILE104      0.0001
    131  N         21.6890    8.8060   12.0520 N.am  105  ASP105     -0.1957
    132  CA        20.8400    8.4720   13.2120 C.3   105  ASP105      0.1840
    133  C         19.6930    9.3560   13.5560 C.2   105  ASP105      0.2621
    134  O         19.2560    9.4320   14.7410 O.2   105  ASP105     -0.2715
    135  CB        21.6670    8.1760   14.4110 C.3   105  ASP105      0.1450
    136  CG        22.1040    9.4220   15.1320 C.2   105  ASP105      0.3671
    137  OD1       22.3360    9.3150   16.3390 O.co2 105  ASP105     -0.2456
    138  OD2       22.2530   10.4780   14.5290 O.co2 105  ASP105     -0.2456
    139  N         19.1860   10.0990   12.5720 N.am  106  GLU106     -0.1977
    140  CA        18.0880   10.9990   12.8620 C.3   106  GLU106      0.1602
    141  C         17.1290   10.9740   11.6690 C.2   106  GLU106      0.2287
    142  O         17.5630   11.0240   10.4920 O.2   106  GLU106     -0.2864
    143  CB        18.5780   12.4440   13.0490 C.3   106  GLU106      0.0415
    144  CG        19.5510   12.6410   14.1850 C.3   106  GLU106      0.1163
    145  CD        19.8310   14.0840   14.4930 C.2   106  GLU106      0.3649
    146  OE1       19.6080   15.0190   13.6620 O.co2 106  GLU106     -0.2457
    147  OE2       20.3270   14.2990   15.6200 O.co2 106  GLU106     -0.2457
    148  N         16.2420   12.7460   25.7480 N.3   159  LYS159     -0.1245
    149  CA        17.1920   11.6720   25.5560 C.3   159  LYS159      0.1561
    150  C         18.0150   11.4060   26.8130 C.2   159  LYS159      0.2260
    151  O         18.2440   12.3280   27.5820 O.2   159  LYS159     -0.2867
    152  CB        18.1500   11.9890   24.3900 C.3   159  LYS159      0.0271
    153  CG        18.9730   13.2850   24.5450 C.3   159  LYS159      0.0035
    154  CD        19.9890   13.4830   23.3830 C.3   159  LYS159      0.0206
    155  CE        19.3090   13.4620   22.0000 C.3   159  LYS159      0.1093
    156  NZ        20.2220   13.7830   20.8690 N.3   159  LYS159     -0.1314
@<TRIPOS>BOND
     1   117   118    1
     2   118   119    1
     3   118   121    1
     4   119   120    2
     5   119   123   am
     6   123   124    1
     7   124   127    1
     8   124   125    1
     9   127   128    1
    10   127   129    1
    11   130   128    1
    12   121   122    1
    13   142   141    2
    14   125   126    2
    15   125   131   am
    16   141   140    1
    17   131   132    1
    18   116   115    1
    19    62    61    1
    20   112   111    2
    21   139   140    1
    22   139   133   am
    23    68    67    1
    24   140   143    1
    25   115   114    1
    26   143   144    1
    27    19    18   ar
    28    19    17   ar
    29   111   110    1
    30   132   133    1
    31   132   135    1
    32    18    16   ar
    33    61    59   ar
    34    61    60   ar
    35   133   134    2
    36    49    50   ar
    37    49    47   ar
    38   146   145   ar
    39   113   110    1
    40   113   114    1
    41    59    57   ar
    42    50    48   ar
    43    67    69    1
    44    67    64    1
    45   144   145    1
    46    60    58   ar
    47    17    15   ar
    48   110   109    1
    49    16    14   ar
    50   135   136    1
    51   145   147   ar
    52   138   136   ar
    53    47    45   ar
    54    64    65    1
    55    64    63    1
    56    57    56   ar
    57    65    66    2
    58   136   137   ar
    59    48    46   ar
    60    58    56   ar
    61    15    14   ar
    62    14    13    1
    63    56    55    1
    64    45    46   ar
    65    45    44    1
    66    81    78    1
    67    13    10    1
    68    44    41    1
    69    55    52    1
    70     1     2    1
    71     2     3    1
    72     2     5    1
    73    52    51    1
    74    52    53    1
    75     9    10    1
    76     9     3   am
    77    78    77    1
    78    78    79    1
    79    51    42   am
    80    10    11    1
    81    42    43    2
    82    42    41    1
    83     3     4    2
    84    80    79    2
    85     8     6   ar
    86     5     6    1
    87     6     7   ar
    88    41    40    1
    89    77    72   am
    90    79    82   am
    91    54    53    2
    92    73    72    2
    93    87    86    1
    94    72    71    1
    95    12    11    2
    96    11    20   am
    97    82    83    1
    98    40    30   am
    99    70    71    1
   100   106   105    1
   101   106   107    1
   102    88    86    1
   103   108   107    2
   104   104   101    1
   105    71    74    1
   106    86    83    1
   107   105   102   am
   108    20    21    1
   109    83    84    1
   110    30    31    2
   111    30    29    1
   112   102   101    1
   113   102   103    2
   114   101   100    1
   115   156   155    1
   116    23    22    2
   117    74    75    1
   118    74    76    1
   119    22    21    1
   120    22    28   am
   121    85    84    2
   122    21    24    1
   123    28    29    1
   124    29    32    1
   125   155   154    1
   126    99    97    1
   127    24    25    1
   128    26    25   ar
   129    25    27   ar
   130    32    33    1
   131   154   153    1
   132    97    98    1
   133    97    96    2
   134    33    34   ar
   135    33    35   ar
   136    34    36   ar
   137   152   153    1
   138   152   149    1
   139    96    95    1
   140    35    37   ar
   141    36    38   ar
   142   149   148    1
   143   149   150    1
   144    95    94    1
   145    37    38   ar
   146    38    39    1
   147    94    93    1
   148   150   151    2
   149    93    90    1
   150    90    89    1
   151    90    91    1
   152    91    92    2
