@<TRIPOS>MOLECULE
tmp/4qwfN00.pdb
 139 130 0 0 0
SMALL
GASTEIGER

@<TRIPOS>ATOM
      1  N         44.1300 -142.2770   63.1100 N.3     1  THR1       -0.1218
      2  CA        44.0650 -141.5910   64.4550 C.3     1  THR1        0.1862
      3  C         43.1540 -142.2200   65.5410 C.2     1  THR1        0.2287
      4  O         42.1820 -142.9080   65.2360 O.2     1  THR1       -0.2866
      5  CB        43.5860 -140.1710   64.2400 C.3     1  THR1        0.1770
      6  OG1       44.5510 -139.5740   63.4110 O.3     1  THR1       -0.2211
      7  CG2       43.5150 -139.3200   65.5110 C.3     1  THR1        0.0375
      8  N         50.3030 -140.7140   66.0500 N.3    19  ARG19      -0.1231
      9  CA        50.6740 -141.3700   64.7890 C.3    19  ARG19       0.1694
     10  C         50.1020 -140.6610   63.5560 C.2    19  ARG19       0.2593
     11  O         48.9140 -140.3400   63.5090 O.2    19  ARG19      -0.2718
     12  CB        50.2190 -142.8320   64.8000 C.3    19  ARG19       0.0321
     13  CG        50.5860 -143.6060   63.5410 C.3    19  ARG19       0.0489
     14  CD        50.4790 -145.1090   63.7450 C.3    19  ARG19       0.2205
     15  NE        51.5340 -145.6150   64.6210 N.pl3  19  ARG19      -0.0865
     16  CZ        51.7140 -146.8970   64.9310 C.cat  19  ARG19       0.5346
     17  NH1       50.9100 -147.8350   64.4390 N.pl3  19  ARG19       0.1354
     18  NH2       52.7120 -147.2430   65.7360 N.pl3  19  ARG19       0.1354
     19  N         50.9650 -140.4270   62.5680 N.am   20  THR20      -0.1939
     20  CA        50.5610 -139.9340   61.2480 C.3    20  THR20       0.2028
     21  C         51.0510 -140.9340   60.2050 C.2    20  THR20       0.2643
     22  O         52.2150 -141.3340   60.2330 O.2    20  THR20      -0.2714
     23  CB        51.1620 -138.5460   60.9520 C.3    20  THR20       0.1808
     24  OG1       50.7850 -137.6290   61.9840 O.3    20  THR20      -0.2208
     25  CG2       50.6730 -138.0060   59.6220 C.3    20  THR20       0.0379
     26  N         50.1680 -141.3290   59.2890 N.am   21  THR21      -0.1936
     27  CA        50.4660 -142.4050   58.3390 C.3    21  THR21       0.2028
     28  C         50.3210 -141.9990   56.8770 C.2    21  THR21       0.2643
     29  O         49.4490 -141.2060   56.5290 O.2    21  THR21      -0.2714
     30  CB        49.5410 -143.6170   58.5600 C.3    21  THR21       0.1808
     31  OG1       48.1740 -143.1890   58.5310 O.3    21  THR21      -0.2208
     32  CG2       49.8330 -144.2830   59.8900 C.3    21  THR21       0.0379
     33  N         51.1900 -142.5600   56.0370 N.am   22  THR22      -0.1936
     34  CA        51.0400 -142.5210   54.5840 C.3    22  THR22       0.2028
     35  C         50.9110 -143.9670   54.1330 C.2    22  THR22       0.2642
     36  O         51.9110 -144.6740   53.9980 O.2    22  THR22      -0.2714
     37  CB        52.2540 -141.8840   53.8780 C.3    22  THR22       0.1808
     38  OG1       52.8370 -140.8810   54.7120 O.3    22  THR22      -0.2208
     39  CG2       51.8320 -141.2670   52.5600 C.3    22  THR22       0.0379
     40  N         49.6790 -144.4120   53.9170 N.am   23  GLY23      -0.1954
     41  CA        49.4140 -145.8310   53.7220 C.3    23  GLY23       0.1869
     42  C         49.7620 -146.5640   55.0060 C.2    23  GLY23       0.2309
     43  O         49.2080 -146.2640   56.0660 O.2    23  GLY23      -0.2863
     44  N         54.6010 -141.6830   58.8660 N.3    27  ALA27      -0.1245
     45  CA        55.3170 -140.4580   58.5020 C.3    27  ALA27       0.1562
     46  C         55.8130 -139.6880   59.7240 C.2    27  ALA27       0.2260
     47  O         56.8810 -139.0770   59.6840 O.2    27  ALA27      -0.2867
     48  CB        54.4280 -139.5660   57.6500 C.3    27  ALA27       0.0290
     49  N         53.4760 -137.0120   66.5540 N.3    31  THR31      -0.1218
     50  CA        52.5730 -135.9370   66.1330 C.3    31  THR31       0.1862
     51  C         51.8110 -135.3340   67.3140 C.2    31  THR31       0.2287
     52  O         51.4910 -136.0370   68.2800 O.2    31  THR31      -0.2866
     53  CB        51.5370 -136.4590   65.1170 C.3    31  THR31       0.1770
     54  OG1       52.1820 -137.3300   64.1790 O.3    31  THR31      -0.2211
     55  CG2       50.8690 -135.3100   64.3690 C.3    31  THR31       0.0375
     56  N         48.3400 -133.8240   67.8850 N.3    33  LYS33      -0.1245
     57  CA        47.0030 -133.6840   67.3060 C.3    33  LYS33       0.1561
     58  C         46.0830 -132.8260   68.1720 C.2    33  LYS33       0.2260
     59  O         44.9610 -132.5180   67.7710 O.2    33  LYS33      -0.2867
     60  CB        46.3770 -135.0630   67.0990 C.3    33  LYS33       0.0271
     61  CG        47.2710 -136.0240   66.3320 C.3    33  LYS33       0.0035
     62  CD        46.6090 -137.3710   66.1330 C.3    33  LYS33       0.0206
     63  CE        47.5900 -138.3780   65.5610 C.3    33  LYS33       0.1093
     64  NZ        46.8940 -139.5980   65.0760 N.3    33  LYS33      -0.1314
     65  N         42.3290 -133.3370   66.3740 N.3    45  ARG45      -0.1231
     66  CA        42.2800 -133.4340   64.9210 C.3    45  ARG45       0.1694
     67  C         42.3590 -134.8880   64.4510 C.2    45  ARG45       0.2593
     68  O         43.2130 -135.6540   64.9000 O.2    45  ARG45      -0.2718
     69  CB        43.4060 -132.5990   64.3000 C.3    45  ARG45       0.0321
     70  CG        43.2900 -131.1110   64.6080 C.3    45  ARG45       0.0489
     71  CD        44.3850 -130.2800   63.9560 C.3    45  ARG45       0.2205
     72  NE        45.7250 -130.6930   64.3740 N.pl3  45  ARG45      -0.0865
     73  CZ        46.5940 -131.3720   63.6240 C.cat  45  ARG45       0.5346
     74  NH1       46.2970 -131.7400   62.3770 N.pl3  45  ARG45       0.1354
     75  NH2       47.7830 -131.6860   64.1260 N.pl3  45  ARG45       0.1354
     76  N         41.4410 -135.2580   63.5590 N.am   46  SER46      -0.1938
     77  CA        41.4810 -136.5470   62.8700 C.3    46  SER46       0.2055
     78  C         41.0650 -136.3520   61.4160 C.2    46  SER46       0.2644
     79  O         40.3630 -135.3920   61.0880 O.2    46  SER46      -0.2714
     80  CB        40.5690 -137.5770   63.5500 C.3    46  SER46       0.2130
     81  OG        39.2230 -137.4710   63.1080 O.3    46  SER46      -0.2179
     82  N         41.5000 -137.2710   60.5580 N.am   47  GLY47      -0.1939
     83  CA        41.2680 -137.1740   59.1190 C.3    47  GLY47       0.2014
     84  C         42.5150 -136.6770   58.4140 C.2    47  GLY47       0.2640
     85  O         43.6280 -137.0280   58.7970 O.2    47  GLY47      -0.2714
     86  N         42.3330 -135.8610   57.3810 N.am   48  SER48      -0.1935
     87  CA        43.4630 -135.3090   56.6330 C.3    48  SER48       0.2055
     88  C         44.2580 -134.3330   57.4970 C.2    48  SER48       0.2643
     89  O         43.6900 -133.4280   58.1080 O.2    48  SER48      -0.2714
     90  CB        42.9800 -134.6020   55.3620 C.3    48  SER48       0.2130
     91  OG        44.0180 -133.8300   54.7750 O.3    48  SER48      -0.2179
     92  N         45.5730 -134.5250   57.5420 N.am   49  ALA49      -0.1963
     93  CA        46.4560 -133.6320   58.2900 C.3    49  ALA49       0.1728
     94  C         46.4620 -132.2440   57.6630 C.2    49  ALA49       0.2616
     95  O         46.4230 -131.2400   58.3670 O.2    49  ALA49      -0.2715
     96  CB        47.8680 -134.1940   58.3360 C.3    49  ALA49       0.0334
     97  N         46.5040 -132.1960   56.3350 N.am   50  ALA50      -0.1963
     98  CA        46.4910 -130.9300   55.6100 C.3    50  ALA50       0.1728
     99  C         45.2010 -130.1510   55.8630 C.2    50  ALA50       0.2616
    100  O         45.2430 -128.9570   56.1690 O.2    50  ALA50      -0.2715
    101  CB        46.6730 -131.1730   54.1210 C.3    50  ALA50       0.0334
    102  N         44.0640 -130.8330   55.7430 N.am   51  ASP51      -0.1957
    103  CA        42.7560 -130.1950   55.9250 C.3    51  ASP51       0.1840
    104  C         42.5420 -129.6960   57.3500 C.2    51  ASP51       0.2622
    105  O         42.1350 -128.5540   57.5510 O.2    51  ASP51      -0.2715
    106  CB        41.6220 -131.1560   55.5500 C.3    51  ASP51       0.1450
    107  CG        41.5870 -131.4770   54.0620 C.2    51  ASP51       0.3671
    108  OD1       42.3540 -130.8620   53.2860 O.co2  51  ASP51      -0.2456
    109  OD2       40.7790 -132.3450   53.6680 O.co2  51  ASP51      -0.2456
    110  N         42.8160 -130.5500   58.3310 N.am   52  THR52      -0.1951
    111  CA        42.6010 -130.1980   59.7370 C.3    52  THR52       0.1897
    112  C         43.4920 -129.0400   60.1940 C.2    52  THR52       0.2313
    113  O         43.0710 -128.2080   61.0020 O.2    52  THR52      -0.2863
    114  CB        42.8310 -131.4030   60.6690 C.3    52  THR52       0.1794
    115  OG1       44.1240 -131.9690   60.4170 O.3    52  THR52      -0.2208
    116  CG2       41.7510 -132.4600   60.4530 C.3    52  THR52       0.0378
    117  N         38.2370 -133.6290   54.3800 N.3    94  THR94      -0.1218
    118  CA        38.2060 -134.8660   55.1510 C.3    94  THR94       0.1862
    119  C         38.7660 -134.5410   56.5340 C.2    94  THR94       0.2287
    120  O         39.9710 -134.6320   56.7670 O.2    94  THR94      -0.2866
    121  CB        39.0250 -135.9840   54.4760 C.3    94  THR94       0.1770
    122  OG1       38.5980 -136.1370   53.1150 O.3    94  THR94      -0.2211
    123  CG2       38.8440 -137.3070   55.2100 C.3    94  THR94       0.0375
    124  N         38.1440 -140.7530   65.2340 N.3   128  GLY128     -0.1210
    125  CA        39.3130 -141.3130   64.5670 C.3   128  GLY128      0.1956
    126  C         39.1610 -142.8090   64.3500 C.2   128  GLY128      0.2612
    127  O         38.3720 -143.4660   65.0280 O.2   128  GLY128     -0.2717
    128  N         39.9320 -143.3390   63.4020 N.am  129  SER129     -0.1952
    129  CA        39.8720 -144.7530   63.0150 C.3   129  SER129      0.1924
    130  C         39.8610 -145.7230   64.1980 C.2   129  SER129      0.2314
    131  O         39.1060 -146.6940   64.2030 O.2   129  SER129     -0.2863
    132  CB        41.0490 -145.0940   62.0930 C.3   129  SER129      0.2116
    133  OG        42.2900 -144.7610   62.6950 O.3   129  SER129     -0.2180
    134  N         46.4730 -147.8580   62.5910 N.3   168  SER168     -0.1217
    135  CA        46.5820 -146.4390   62.2500 C.3   168  SER168      0.1889
    136  C         46.7410 -145.5360   63.4810 C.2   168  SER168      0.2288
    137  O         46.7430 -144.3130   63.3530 O.2   168  SER168     -0.2866
    138  CB        45.3530 -145.9970   61.4510 C.3   168  SER168      0.2089
    139  OG        45.0820 -146.8950   60.3890 O.3   168  SER168     -0.2183
@<TRIPOS>BOND
     1    39    37    1
     2   122   121    1
     3   108   107   ar
     4   109   107   ar
     5    41    40    1
     6    41    42    1
     7    37    34    1
     8    37    38    1
     9    40    35   am
    10    36    35    2
    11   107   106    1
    12   101    98    1
    13    35    34    1
    14   117   118    1
    15   121   118    1
    16   121   123    1
    17    34    33    1
    18    91    90    1
    19    42    43    2
    20   118   119    1
    21    90    87    1
    22   106   103    1
    23    98    99    1
    24    98    97    1
    25   102    99   am
    26   102   103    1
    27    99   100    2
    28   103   104    1
    29    33    28   am
    30    97    94   am
    31    29    28    2
    32   119   120    2
    33    87    86    1
    34    87    88    1
    35    28    27    1
    36   104   105    2
    37   104   110   am
    38    86    84   am
    39    88    92   am
    40    88    89    2
    41    92    93    1
    42    48    45    1
    43    94    93    1
    44    94    95    2
    45    93    96    1
    46   110   111    1
    47    27    30    1
    48    27    26    1
    49    84    85    2
    50    84    83    1
    51    45    44    1
    52    45    46    1
    53    31    30    1
    54    30    32    1
    55    83    82    1
    56    26    21   am
    57    25    23    1
    58    47    46    2
    59   111   112    1
    60   111   114    1
    61   112   113    2
    62    21    22    2
    63    21    20    1
    64   139   138    1
    65   115   114    1
    66   116   114    1
    67    82    78   am
    68    23    20    1
    69    23    24    1
    70    79    78    2
    71    20    19    1
    72    78    77    1
    73   138   135    1
    74   132   133    1
    75   132   129    1
    76   135   134    1
    77   135   136    1
    78    74    73    1
    79    19    10   am
    80    77    80    1
    81    77    76    1
    82   129   128    1
    83   129   130    1
    84    81    80    1
    85     1     2    1
    86   137   136    2
    87   128   126   am
    88     6     5    1
    89    11    10    2
    90    13    14    1
    91    13    12    1
    92    10     9    1
    93    76    67   am
    94    73    75    1
    95    73    72    2
    96    14    15    1
    97    71    72    1
    98    71    70    1
    99    54    53    1
   100   130   131    2
   101     5     2    1
   102     5     7    1
   103    69    70    1
   104    69    66    1
   105   126   125    1
   106   126   127    2
   107    55    53    1
   108    17    16    1
   109    67    68    2
   110    67    66    1
   111     2     3    1
   112   125   124    1
   113    15    16    2
   114     9    12    1
   115     9     8    1
   116    66    65    1
   117    16    18    1
   118    64    63    1
   119    53    50    1
   120     4     3    2
   121    63    62    1
   122    62    61    1
   123    50    49    1
   124    50    51    1
   125    61    60    1
   126    60    57    1
   127    57    56    1
   128    57    58    1
   129    51    52    2
   130    59    58    2
