@<TRIPOS>MOLECULE
tmp/4qwfY00.pdb
 174 165 0 0 0
SMALL
GASTEIGER

@<TRIPOS>ATOM
      1  N         56.8780 -152.5150    8.6510 N.3     1  THR1       -0.1218
      2  CA        57.2560 -153.2020    7.3600 C.3     1  THR1        0.1862
      3  C         56.7100 -152.6070    6.0480 C.2     1  THR1        0.2287
      4  O         55.6800 -151.9390    6.0310 O.2     1  THR1       -0.2866
      5  CB        56.7750 -154.6590    7.4220 C.3     1  THR1        0.1770
      6  OG1       57.3670 -155.3000    8.5420 O.3     1  THR1       -0.2211
      7  CG2       57.2020 -155.4860    6.2110 C.3     1  THR1        0.0375
      8  N         61.5980 -154.7190    2.5930 N.3    17  ASP17      -0.1239
      9  CA        62.5680 -153.9980    3.4250 C.3    17  ASP17       0.1674
     10  C         63.1150 -154.9560    4.4900 C.2    17  ASP17       0.2266
     11  O         62.8130 -156.1510    4.4600 O.2    17  ASP17      -0.2867
     12  CB        61.9500 -152.7380    4.0530 C.3    17  ASP17       0.1410
     13  CG        61.0620 -153.0430    5.2480 C.2    17  ASP17       0.3668
     14  OD1       60.2120 -153.9520    5.1490 O.co2  17  ASP17      -0.2456
     15  OD2       61.2060 -152.3630    6.2870 O.co2  17  ASP17      -0.2456
     16  N         63.6120 -153.7370    8.0930 N.3    19  ARG19      -0.1231
     17  CA        63.5080 -153.1170    9.4170 C.3    19  ARG19       0.1694
     18  C         62.6010 -153.9170   10.3520 C.2    19  ARG19       0.2592
     19  O         61.6840 -154.6020    9.9050 O.2    19  ARG19      -0.2718
     20  CB        63.0020 -151.6720    9.3150 C.3    19  ARG19       0.0321
     21  CG        62.9560 -150.9440   10.6570 C.3    19  ARG19       0.0489
     22  CD        62.7650 -149.4430   10.5150 C.3    19  ARG19       0.2205
     23  NE        63.9270 -148.7880    9.9170 N.pl3  19  ARG19      -0.0865
     24  CZ        64.0780 -147.4710    9.7980 C.cat  19  ARG19       0.5346
     25  NH1       63.1430 -146.6340   10.2400 N.pl3  19  ARG19       0.1354
     26  NH2       65.1750 -146.9840    9.2340 N.pl3  19  ARG19       0.1354
     27  N         62.8830 -153.8290   11.6500 N.am   20  ALA20      -0.1966
     28  CA        62.0040 -154.3620   12.6900 C.3    20  ALA20       0.1728
     29  C         61.9130 -153.3500   13.8250 C.2    20  ALA20       0.2617
     30  O         62.9330 -152.8400   14.2870 O.2    20  ALA20      -0.2715
     31  CB        62.5260 -155.6880   13.2080 C.3    20  ALA20       0.0334
     32  N         60.6930 -153.0650   14.2720 N.am   21  THR21      -0.1937
     33  CA        60.4630 -152.0370   15.2860 C.3    21  THR21       0.2028
     34  C         59.7070 -152.5700   16.4940 C.2    21  THR21       0.2642
     35  O         58.9070 -153.4940   16.3830 O.2    21  THR21      -0.2714
     36  CB        59.6560 -150.8500   14.7220 C.3    21  THR21       0.1808
     37  OG1       58.3380 -151.2820   14.3540 O.3    21  THR21      -0.2208
     38  CG2       60.3600 -150.2450   13.5120 C.3    21  THR21       0.0379
     39  N         59.9790 -151.9680   17.6460 N.am   22  ALA22      -0.1963
     40  CA        59.1970 -152.1900   18.8530 C.3    22  ALA22       0.1728
     41  C         58.7050 -150.8280   19.3310 C.2    22  ALA22       0.2616
     42  O         59.3390 -150.1770   20.1630 O.2    22  ALA22      -0.2715
     43  CB        60.0390 -152.8680   19.9180 C.3    22  ALA22       0.0334
     44  N         57.5690 -150.4040   18.7880 N.am   23  GLY23      -0.1955
     45  CA        57.0970 -149.0370   18.9610 C.3    23  GLY23       0.1869
     46  C         57.9170 -148.1260   18.0670 C.2    23  GLY23       0.2309
     47  O         58.0370 -148.3740   16.8660 O.2    23  GLY23      -0.2863
     48  N         61.1260 -147.6050   18.7990 N.3    25  TRP25      -0.1241
     49  CA        62.4660 -148.1750   18.8930 C.3    25  TRP25       0.1605
     50  C         62.7660 -149.0270   17.6650 C.2    25  TRP25       0.2264
     51  O         62.0510 -149.9870   17.3850 O.2    25  TRP25      -0.2867
     52  CB        62.5960 -149.0190   20.1680 C.3    25  TRP25       0.0550
     53  CG        63.8200 -149.8860   20.2130 C.ar   25  TRP25       0.0003
     54  CD1       63.8680 -151.2440   20.0930 C.ar   25  TRP25       0.0946
     55  CD2       65.1730 -149.4510   20.3880 C.ar   25  TRP25       0.0152
     56  NE1       65.1650 -151.6830   20.1840 N.ar   25  TRP25      -0.2442
     57  CE2       65.9870 -150.6030   20.3640 C.ar   25  TRP25       0.0810
     58  CE3       65.7760 -148.2010   20.5630 C.ar   25  TRP25       0.0012
     59  CZ2       67.3730 -150.5410   20.5090 C.ar   25  TRP25       0.0191
     60  CZ3       67.1520 -148.1410   20.7070 C.ar   25  TRP25       0.0001
     61  CH2       67.9350 -149.3040   20.6780 C.ar   25  TRP25       0.0015
     62  N         64.5030 -151.7930   16.3470 N.3    27  ALA27      -0.1231
     63  CA        65.1230 -152.9690   16.9490 C.3    27  ALA27       0.1694
     64  C         66.1620 -153.6220   16.0430 C.2    27  ALA27       0.2592
     65  O         67.1720 -154.1340   16.5230 O.2    27  ALA27      -0.2718
     66  CB        64.0560 -153.9790   17.3250 C.3    27  ALA27       0.0304
     67  N         65.9110 -153.6160   14.7390 N.am   28  SER28      -0.1952
     68  CA        66.8270 -154.2340   13.7890 C.3    28  SER28       0.1924
     69  C         66.7000 -153.6110   12.4030 C.2    28  SER28       0.2314
     70  O         65.6410 -153.1020   12.0350 O.2    28  SER28      -0.2863
     71  CB        66.5700 -155.7420   13.7150 C.3    28  SER28       0.2116
     72  OG        67.4680 -156.3740   12.8180 O.3    28  SER28      -0.2180
     73  N         66.6630 -157.6820    9.1630 N.3    31  VAL31      -0.1245
     74  CA        65.7280 -158.8050    9.2520 C.3    31  VAL31       0.1561
     75  C         65.4000 -159.3290    7.8590 C.2    31  VAL31       0.2260
     76  O         65.1790 -158.5530    6.9310 O.2    31  VAL31      -0.2867
     77  CB        64.4250 -158.3990    9.9750 C.3    31  VAL31       0.0252
     78  CG1       63.3820 -159.5080    9.9050 C.3    31  VAL31       0.0019
     79  CG2       64.7230 -158.0570   11.4250 C.3    31  VAL31       0.0019
     80  N         62.8930 -160.7670    5.4860 N.3    33  LYS33      -0.1245
     81  CA        61.4370 -160.8320    5.3450 C.3    33  LYS33       0.1561
     82  C         60.9720 -161.6280    4.1300 C.2    33  LYS33       0.2260
     83  O         59.7850 -161.6160    3.8000 O.2    33  LYS33      -0.2867
     84  CB        60.8580 -159.4250    5.2890 C.3    33  LYS33       0.0271
     85  CG        61.2190 -158.5920    6.5010 C.3    33  LYS33       0.0035
     86  CD        60.3980 -157.3240    6.5570 C.3    33  LYS33       0.0206
     87  CE        61.0620 -156.2990    7.4500 C.3    33  LYS33       0.1093
     88  NZ        60.1620 -155.1440    7.6790 N.3    33  LYS33      -0.1314
     89  N         56.8820 -161.7470    4.6440 N.3    45  ILE45      -0.1231
     90  CA        56.3140 -161.6140    5.9960 C.3    45  ILE45       0.1692
     91  C         56.2010 -160.1540    6.4390 C.2    45  ILE45       0.2592
     92  O         57.1320 -159.3640    6.2690 O.2    45  ILE45      -0.2718
     93  CB        57.0630 -162.4530    7.0770 C.3    45  ILE45       0.0266
     94  CG1       58.3650 -161.7810    7.5540 C.3    45  ILE45       0.0019
     95  CG2       57.1700 -163.9220    6.6660 C.3    45  ILE45       0.0020
     96  CD1       59.3800 -162.6950    8.2160 C.3    45  ILE45       0.0001
     97  N         55.0390 -159.8090    6.9890 N.am   46  ALA46      -0.1966
     98  CA        54.7950 -158.4870    7.5670 C.3    46  ALA46       0.1728
     99  C         53.8190 -158.6220    8.7260 C.2    46  ALA46       0.2617
    100  O         52.8980 -159.4350    8.6680 O.2    46  ALA46      -0.2715
    101  CB        54.2340 -157.5410    6.5190 C.3    46  ALA46       0.0334
    102  N         54.0190 -157.8180    9.7670 N.am   47  GLY47      -0.1940
    103  CA        53.1920 -157.8840   10.9730 C.3    47  GLY47       0.2014
    104  C         54.0170 -158.3210   12.1670 C.2    47  GLY47       0.2639
    105  O         55.1660 -157.9100   12.3140 O.2    47  GLY47      -0.2714
    106  N         53.4300 -159.1490   13.0270 N.am   48  GLY48      -0.1939
    107  CA        54.1450 -159.6970   14.1770 C.3    48  GLY48       0.2014
    108  C         55.2950 -160.5780   13.7170 C.2    48  GLY48       0.2639
    109  O         55.0850 -161.5470   12.9840 O.2    48  GLY48      -0.2714
    110  N         56.5100 -160.2340   14.1400 N.am   49  ALA49      -0.1963
    111  CA        57.7170 -160.9230   13.6750 C.3    49  ALA49       0.1728
    112  C         57.6790 -162.4140   13.9920 C.2    49  ALA49       0.2616
    113  O         57.8290 -163.2460   13.1000 O.2    49  ALA49      -0.2715
    114  CB        58.9590 -160.2910   14.2820 C.3    49  ALA49       0.0334
    115  N         57.4580 -162.7390   15.2630 N.am   50  ALA50      -0.1963
    116  CA        57.4320 -164.1310   15.7140 C.3    50  ALA50       0.1728
    117  C         56.3330 -164.9400   15.0320 C.2    50  ALA50       0.2616
    118  O         56.5790 -166.0550   14.5760 O.2    50  ALA50      -0.2715
    119  CB        57.2660 -164.1930   17.2200 C.3    50  ALA50       0.0334
    120  N         55.1280 -164.3780   14.9660 N.am   51  ASP51      -0.1957
    121  CA        53.9990 -165.0450   14.3090 C.3    51  ASP51       0.1840
    122  C         54.3580 -165.4270   12.8810 C.2    51  ASP51       0.2622
    123  O         54.2540 -166.5920   12.4960 O.2    51  ASP51      -0.2715
    124  CB        52.7640 -164.1380   14.2850 C.3    51  ASP51       0.1450
    125  CG        52.1510 -163.9400   15.6550 C.2    51  ASP51       0.3671
    126  OD1       52.2800 -164.8410   16.5130 O.co2  51  ASP51      -0.2456
    127  OD2       51.5270 -162.8820   15.8740 O.co2  51  ASP51      -0.2456
    128  N         54.7880 -164.4330   12.1090 N.am   52  CYS52      -0.1954
    129  CA        55.1390 -164.6290   10.7090 C.3    52  CYS52       0.1843
    130  C         56.2340 -165.6710   10.5310 C.2    52  CYS52       0.2625
    131  O         56.0870 -166.6130    9.7500 O.2    52  CYS52      -0.2714
    132  CB        55.6170 -163.3180   10.1020 C.3    52  CYS52       0.0997
    133  SG        54.3330 -162.0750    9.8760 S.3    52  CYS52      -0.0797
    134  N         57.3310 -165.4860   11.2560 N.am   53  GLN53      -0.1977
    135  CA        58.5000 -166.3540   11.1320 C.3    53  GLN53       0.1601
    136  C         58.2020 -167.7840   11.5500 C.2    53  GLN53       0.2287
    137  O         58.5330 -168.7270   10.8360 O.2    53  GLN53      -0.2864
    138  CB        59.6480 -165.8260   11.9830 C.3    53  GLN53       0.0394
    139  CG        60.1940 -164.4900   11.5190 C.3    53  GLN53       0.0908
    140  CD        61.4310 -164.0820   12.2850 C.2    53  GLN53       0.2608
    141  OE1       61.8460 -164.7560   13.2290 O.2    53  GLN53      -0.2717
    142  NE2       62.0300 -162.9730   11.8840 N.am   53  GLN53      -0.0878
    143  N         44.5480 -163.1660   18.2260 N.3    94  GLY94      -0.1225
    144  CA        45.4230 -161.9980   18.1550 C.3    94  GLY94       0.1811
    145  C         46.6900 -162.1490   17.3320 C.2    94  GLY94       0.2280
    146  O         47.6280 -161.3680   17.5010 O.2    94  GLY94      -0.2866
    147  N         49.1030 -161.6030   14.2580 N.3    96  SER96      -0.1217
    148  CA        49.2950 -160.4790   13.3420 C.3    96  SER96       0.1889
    149  C         50.2450 -160.8900   12.2180 C.2    96  SER96       0.2288
    150  O         51.4620 -160.9530   12.4090 O.2    96  SER96      -0.2866
    151  CB        49.8460 -159.2660   14.0970 C.3    96  SER96       0.2089
    152  OG        50.0270 -158.1570   13.2320 O.3    96  SER96      -0.2183
    153  N         52.0360 -154.1850    4.4310 N.3   130  GLY130     -0.1210
    154  CA        52.8230 -153.6030    5.5160 C.3   130  GLY130      0.1956
    155  C         52.4350 -152.1720    5.8330 C.2   130  GLY130      0.2612
    156  O         51.6020 -151.5740    5.1490 O.2   130  GLY130     -0.2717
    157  N         53.0590 -151.6270    6.8760 N.am  131  SER131     -0.1952
    158  CA        52.8340 -150.2450    7.3170 C.3   131  SER131      0.1924
    159  C         53.1180 -149.2070    6.2300 C.2   131  SER131      0.2314
    160  O         52.5030 -148.1410    6.2170 O.2   131  SER131     -0.2863
    161  CB        53.6990 -149.9380    8.5420 C.3   131  SER131      0.2116
    162  OG        55.0740 -150.1470    8.2650 O.3   131  SER131     -0.2180
    163  N         58.3710 -146.5700    9.9280 N.3   170  TYR170     -0.1241
    164  CA        58.4970 -147.9570   10.3810 C.3   170  TYR170      0.1605
    165  C         58.9250 -148.9130    9.2600 C.2   170  TYR170      0.2264
    166  O         58.6350 -150.1080    9.3110 O.2   170  TYR170     -0.2867
    167  CB        57.1780 -148.4180   11.0090 C.3   170  TYR170      0.0534
    168  CG        56.7140 -147.5140   12.1290 C.ar  170  TYR170     -0.0201
    169  CD1       57.4750 -147.3630   13.2850 C.ar  170  TYR170     -0.0009
    170  CD2       55.5230 -146.8040   12.0340 C.ar  170  TYR170     -0.0009
    171  CE1       57.0610 -146.5350   14.3120 C.ar  170  TYR170      0.0417
    172  CE2       55.1020 -145.9740   13.0590 C.ar  170  TYR170      0.0417
    173  CZ        55.8760 -145.8440   14.1940 C.ar  170  TYR170      0.1957
    174  OH        55.4630 -145.0200   15.2140 O.3   170  TYR170     -0.2866
@<TRIPOS>BOND
     1     8     9    1
     2     9    12    1
     3     9    10    1
     4    83    82    2
     5    12    13    1
     6    82    81    1
     7   153   154    1
     8    11    10    2
     9    89    90    1
    10   156   155    2
    11    14    13   ar
    12    13    15   ar
    13    84    81    1
    14    84    85    1
    15    81    80    1
    16   154   155    1
    17   155   157   am
    18    90    91    1
    19    90    93    1
    20     4     3    2
    21     3     2    1
    22     7     5    1
    23   160   159    2
    24   159   158    1
    25    92    91    2
    26    91    97   am
    27    85    86    1
    28   101    98    1
    29    86    87    1
    30    95    93    1
    31   157   158    1
    32    76    75    2
    33    97    98    1
    34    93    94    1
    35   158   161    1
    36     2     5    1
    37     2     1    1
    38     5     6    1
    39    87    88    1
    40    94    96    1
    41    98    99    1
    42    75    74    1
    43    16    17    1
    44   162   161    1
    45   100    99    2
    46    99   102   am
    47    73    74    1
    48    26    24    1
    49    74    77    1
    50   165   166    2
    51   165   164    1
    52    20    17    1
    53    20    21    1
    54    17    18    1
    55   131   130    2
    56   102   103    1
    57    24    23    2
    58    24    25    1
    59   133   132    1
    60    19    18    2
    61    78    77    1
    62    23    22    1
    63   163   164    1
    64    77    79    1
    65   132   129    1
    66    18    27   am
    67   164   167    1
    68    22    21    1
    69   130   129    1
    70   130   134   am
    71   129   128    1
    72   137   136    2
    73   103   104    1
    74   167   168    1
    75   135   134    1
    76   135   136    1
    77   135   138    1
    78   139   138    1
    79   139   140    1
    80    27    28    1
    81   142   140   am
    82   170   168   ar
    83   170   172   ar
    84    70    69    2
    85   128   122   am
    86   168   169   ar
    87   104   105    2
    88   104   106   am
    89   149   150    2
    90   149   148    1
    91   140   141    2
    92    69    68    1
    93   123   122    2
    94    28    31    1
    95    28    29    1
    96    72    71    1
    97   122   121    1
    98   109   108    2
    99   106   107    1
   100   172   173   ar
   101   113   112    2
   102   152   151    1
   103   169   171   ar
   104   148   151    1
   105   148   147    1
   106    38    36    1
   107   111   112    1
   108   111   110    1
   109   111   114    1
   110    71    68    1
   111   108   110   am
   112   108   107    1
   113    68    67    1
   114    29    32   am
   115    29    30    2
   116   112   115   am
   117   173   171   ar
   118   173   174    1
   119    32    33    1
   120   124   121    1
   121   124   125    1
   122   121   120    1
   123    37    36    1
   124   118   117    2
   125    36    33    1
   126    67    64   am
   127   120   117   am
   128   117   116    1
   129   115   116    1
   130    33    34    1
   131   125   127   ar
   132   125   126   ar
   133   116   119    1
   134    64    65    2
   135    64    63    1
   136    62    63    1
   137    35    34    2
   138    34    39   am
   139    47    46    2
   140    63    66    1
   141   145   146    2
   142   145   144    1
   143    51    50    2
   144    39    40    1
   145    50    49    1
   146    46    45    1
   147   144   143    1
   148    44    45    1
   149    44    41   am
   150    48    49    1
   151    40    41    1
   152    40    43    1
   153    49    52    1
   154    41    42    2
   155    54    56   ar
   156    54    53   ar
   157    52    53    1
   158    56    57   ar
   159    53    55   ar
   160    57    55   ar
   161    57    59   ar
   162    55    58   ar
   163    59    61   ar
   164    58    60   ar
   165    61    60   ar
