@<TRIPOS>MOLECULE
tmp/4qwfY01.pdb
 94 88 0 0 0
SMALL
GASTEIGER

@<TRIPOS>ATOM
      1  N         56.8780 -152.5150    8.6510 N.3     1  THR1       -0.1218
      2  CA        57.2560 -153.2020    7.3600 C.3     1  THR1        0.1862
      3  C         56.7100 -152.6070    6.0480 C.2     1  THR1        0.2287
      4  O         55.6800 -151.9390    6.0310 O.2     1  THR1       -0.2866
      5  CB        56.7750 -154.6590    7.4220 C.3     1  THR1        0.1770
      6  OG1       57.3670 -155.3000    8.5420 O.3     1  THR1       -0.2211
      7  CG2       57.2020 -155.4860    6.2110 C.3     1  THR1        0.0375
      8  N         55.0390 -159.8090    6.9890 N.3    46  ALA46      -0.1231
      9  CA        54.7950 -158.4870    7.5670 C.3    46  ALA46       0.1694
     10  C         53.8190 -158.6220    8.7260 C.2    46  ALA46       0.2592
     11  O         52.8980 -159.4350    8.6680 O.2    46  ALA46      -0.2718
     12  CB        54.2340 -157.5410    6.5190 C.3    46  ALA46       0.0304
     13  N         54.0190 -157.8180    9.7670 N.am   47  GLY47      -0.1957
     14  CA        53.1920 -157.8840   10.9730 C.3    47  GLY47       0.1869
     15  C         54.0170 -158.3210   12.1670 C.2    47  GLY47       0.2309
     16  O         55.1660 -157.9100   12.3140 O.2    47  GLY47      -0.2863
     17  N         49.1030 -161.6030   14.2580 N.3    96  SER96      -0.1202
     18  CA        49.2950 -160.4790   13.3420 C.3    96  SER96       0.2020
     19  C         50.2450 -160.8900   12.2180 C.2    96  SER96       0.2619
     20  O         51.4620 -160.9530   12.4090 O.2    96  SER96      -0.2717
     21  CB        49.8460 -159.2660   14.0970 C.3    96  SER96       0.2103
     22  OG        50.0270 -158.1570   13.2320 O.3    96  SER96      -0.2182
     23  N         49.6760 -161.1740   11.0470 N.am   97  MET97      -0.1965
     24  CA        50.4340 -161.7020    9.9120 C.3    97  MET97       0.1736
     25  C         49.8950 -161.1670    8.5920 C.2    97  MET97       0.2617
     26  O         48.7040 -161.2840    8.3070 O.2    97  MET97      -0.2715
     27  CB        50.3630 -163.2270    9.8770 C.3    97  MET97       0.0427
     28  CG        51.0080 -163.9240   11.0610 C.3    97  MET97       0.0599
     29  SD        50.6680 -165.6940   11.0710 S.3    97  MET97      -0.1393
     30  CE        51.4270 -166.2130    9.5300 C.3    97  MET97       0.0692
     31  N         50.7850 -160.5740    7.8010 N.am   98  GLY98      -0.1955
     32  CA        50.4720 -160.1120    6.4520 C.3    98  GLY98       0.1869
     33  C         51.4700 -160.7120    5.4880 C.2    98  GLY98       0.2309
     34  O         52.5970 -160.2300    5.3740 O.2    98  GLY98      -0.2863
     35  N         47.8610 -163.4060   -1.6750 N.3   114  TYR114     -0.1241
     36  CA        47.8410 -162.6150   -0.4420 C.3   114  TYR114      0.1605
     37  C         47.1170 -163.4170    0.6370 C.2   114  TYR114      0.2264
     38  O         46.0260 -163.9330    0.3990 O.2   114  TYR114     -0.2867
     39  CB        47.1440 -161.2680   -0.6750 C.3   114  TYR114      0.0534
     40  CG        46.8390 -160.4750    0.5820 C.ar  114  TYR114     -0.0201
     41  CD1       47.7960 -159.6400    1.1590 C.ar  114  TYR114     -0.0009
     42  CD2       45.5850 -160.5440    1.1830 C.ar  114  TYR114     -0.0009
     43  CE1       47.5130 -158.9070    2.3040 C.ar  114  TYR114      0.0417
     44  CE2       45.2930 -159.8170    2.3270 C.ar  114  TYR114      0.0417
     45  CZ        46.2560 -158.9990    2.8840 C.ar  114  TYR114      0.1957
     46  OH        45.9570 -158.2830    4.0220 O.3   114  TYR114     -0.2866
     47  N         46.3480 -163.1290    5.0200 N.3   116  ASP116     -0.1225
     48  CA        46.5070 -162.3780    6.2690 C.3   116  ASP116      0.1805
     49  C         45.8690 -163.0780    7.4720 C.2   116  ASP116      0.2598
     50  O         45.1710 -164.0870    7.3260 O.2   116  ASP116     -0.2718
     51  CB        46.0070 -160.9270    6.1240 C.3   116  ASP116      0.1424
     52  CG        44.4900 -160.8070    6.1210 C.2   116  ASP116      0.3668
     53  OD1       43.8000 -161.7650    6.5290 O.co2 116  ASP116     -0.2456
     54  OD2       43.9860 -159.7340    5.7160 O.co2 116  ASP116     -0.2456
     55  N         46.1180 -162.5250    8.6560 N.am  117  SER117     -0.1938
     56  CA        45.7980 -163.1970    9.9110 C.3   117  SER117      0.2055
     57  C         44.3150 -163.2110   10.2700 C.2   117  SER117      0.2643
     58  O         43.9180 -163.9690   11.1620 O.2   117  SER117     -0.2714
     59  CB        46.5990 -162.5820   11.0590 C.3   117  SER117      0.2130
     60  OG        46.5990 -161.1690   10.9860 O.3   117  SER117     -0.2179
     61  N         43.5000 -162.3880    9.6050 N.am  118  ASP118     -0.1971
     62  CA        42.0420 -162.4740    9.7960 C.3   118  ASP118      0.1709
     63  C         41.3550 -163.3480    8.7350 C.2   118  ASP118      0.2293
     64  O         40.1320 -163.3170    8.5920 O.2   118  ASP118     -0.2864
     65  CB        41.3650 -161.0900    9.9620 C.3   118  ASP118      0.1436
     66  CG        41.7140 -160.0990    8.8650 C.2   118  ASP118      0.3671
     67  OD1       41.7330 -160.4700    7.6760 O.co2 118  ASP118     -0.2456
     68  OD2       41.9330 -158.9190    9.2050 O.co2 118  ASP118     -0.2456
     69  N         52.0670 -155.0560    0.9820 N.3   129  VAL129     -0.1231
     70  CA        51.6360 -155.3550    2.3460 C.3   129  VAL129      0.1692
     71  C         52.5970 -154.7400    3.3580 C.2   129  VAL129      0.2593
     72  O         53.8140 -154.7730    3.1690 O.2   129  VAL129     -0.2718
     73  CB        51.5470 -156.8780    2.5840 C.3   129  VAL129      0.0266
     74  CG1       50.9670 -157.1810    3.9590 C.3   129  VAL129      0.0020
     75  CG2       50.6990 -157.5390    1.5060 C.3   129  VAL129      0.0020
     76  N         52.0360 -154.1850    4.4310 N.am  130  GLY130     -0.1942
     77  CA        52.8230 -153.6030    5.5160 C.3   130  GLY130      0.2014
     78  C         52.4350 -152.1720    5.8330 C.2   130  GLY130      0.2639
     79  O         51.6020 -151.5740    5.1490 O.2   130  GLY130     -0.2714
     80  N         53.0590 -151.6270    6.8760 N.am  131  SER131     -0.1949
     81  CA        52.8340 -150.2450    7.3170 C.3   131  SER131      0.1924
     82  C         53.1180 -149.2070    6.2300 C.2   131  SER131      0.2314
     83  O         52.5030 -148.1410    6.2170 O.2   131  SER131     -0.2863
     84  CB        53.6990 -149.9380    8.5420 C.3   131  SER131      0.2116
     85  OG        55.0740 -150.1470    8.2650 O.3   131  SER131     -0.2180
     86  N         52.8200 -149.8910    2.8500 N.3   133  GLN133     -0.1245
     87  CA        52.3050 -150.4650    1.6040 C.3   133  GLN133      0.1566
     88  C         51.8010 -149.3910    0.6390 C.2   133  GLN133      0.2260
     89  O         51.9970 -149.4990   -0.5720 O.2   133  GLN133     -0.2867
     90  CB        51.1990 -151.4930    1.8860 C.3   133  GLN133      0.0367
     91  CG        49.8990 -150.9310    2.4440 C.3   133  GLN133      0.0905
     92  CD        48.9260 -152.0260    2.8480 C.2   133  GLN133      0.2608
     93  OE1       49.2390 -152.8670    3.6930 O.2   133  GLN133     -0.2717
     94  NE2       47.7400 -152.0230    2.2480 N.am  133  GLN133     -0.0878
@<TRIPOS>BOND
     1    35    36    1
     2    39    36    1
     3    39    40    1
     4    89    88    2
     5    36    37    1
     6    38    37    2
     7    40    41   ar
     8    40    42   ar
     9    88    87    1
    10    69    70    1
    11    41    43   ar
    12    42    44   ar
    13    75    73    1
    14    87    90    1
    15    87    86    1
    16    90    91    1
    17    94    92   am
    18    43    45   ar
    19    44    45   ar
    20    70    73    1
    21    70    71    1
    22    91    92    1
    23    73    74    1
    24    92    93    2
    25    45    46    1
    26    72    71    2
    27    71    76   am
    28    76    77    1
    29    47    48    1
    30    79    78    2
    31    34    33    2
    32    33    32    1
    33    77    78    1
    34    54    52   ar
    35    78    80   am
    36     4     3    2
    37     3     2    1
    38    52    51    1
    39    52    53   ar
    40    51    48    1
    41     7     5    1
    42    83    82    2
    43    82    81    1
    44    48    49    1
    45    32    31    1
    46    12     9    1
    47    80    81    1
    48     8     9    1
    49    81    84    1
    50    50    49    2
    51     2     5    1
    52     2     1    1
    53     5     6    1
    54    49    55   am
    55     9    10    1
    56    67    66   ar
    57    31    25   am
    58    85    84    1
    59    26    25    2
    60    25    24    1
    61    64    63    2
    62    55    56    1
    63    11    10    2
    64    10    13   am
    65    63    62    1
    66    66    68   ar
    67    66    65    1
    68    30    29    1
    69    61    62    1
    70    61    57   am
    71    13    14    1
    72    62    65    1
    73    27    24    1
    74    27    28    1
    75    56    57    1
    76    56    59    1
    77    24    23    1
    78    57    58    2
    79    14    15    1
    80    60    59    1
    81    23    19   am
    82    28    29    1
    83    15    16    2
    84    19    20    2
    85    19    18    1
    86    22    21    1
    87    18    21    1
    88    18    17    1
