@<TRIPOS>MOLECULE
tmp/4qwpA00.pdb
 156 151 0 0 0
SMALL
GASTEIGER

@<TRIPOS>ATOM
      1  N         30.9340   12.6150   71.0930 N.3    42  ARG42      -0.1245
      2  CA        30.6820   12.1500   69.7310 C.3    42  ARG42       0.1563
      3  C         29.3630   11.4000   69.5790 C.2    42  ARG42       0.2260
      4  O         29.0840   10.8560   68.5200 O.2    42  ARG42      -0.2867
      5  CB        31.8780   11.3400   69.1320 C.3    42  ARG42       0.0307
      6  CG        33.1190   12.2250   68.9790 C.3    42  ARG42       0.0489
      7  CD        34.2370   11.4740   68.2770 C.3    42  ARG42       0.2205
      8  NE        35.4600   12.3110   68.1800 N.pl3  42  ARG42      -0.0865
      9  CZ        36.3020   12.5770   69.1900 C.cat  42  ARG42       0.5346
     10  NH1       36.0700   12.1270   70.4470 N.pl3  42  ARG42       0.1354
     11  NH2       37.3860   13.3230   68.9560 N.pl3  42  ARG42       0.1354
     12  N         29.1250    5.6930   69.6760 N.3    45  THR45      -0.1218
     13  CA        30.2550    5.1050   69.0000 C.3    45  THR45       0.1862
     14  C         29.9190    3.6000   68.7490 C.2    45  THR45       0.2287
     15  O         29.4880    2.9340   69.6890 O.2    45  THR45      -0.2866
     16  CB        31.4790    5.1910   69.9290 C.3    45  THR45       0.1770
     17  OG1       31.7930    6.5600   70.1750 O.3    45  THR45      -0.2211
     18  CG2       32.6560    4.5870   69.3290 C.3    45  THR45       0.0375
     19  N         35.4320    0.0450   64.3560 N.3    49  ILE49      -0.1231
     20  CA        36.4070    1.1050   64.5040 C.3    49  ILE49       0.1692
     21  C         35.8040    2.3650   65.1030 C.2    49  ILE49       0.2593
     22  O         36.4260    3.4380   65.0490 O.2    49  ILE49      -0.2718
     23  CB        37.1010    1.4200   63.1730 C.3    49  ILE49       0.0266
     24  CG1       36.0110    1.6280   62.0700 C.3    49  ILE49       0.0019
     25  CG2       38.0680    0.2570   62.8550 C.3    49  ILE49       0.0020
     26  CD1       36.5690    2.4340   60.9340 C.3    49  ILE49       0.0001
     27  N         34.6180    2.2220   65.7160 N.am   50  GLY50      -0.1942
     28  CA        34.0320    3.3600   66.3990 C.3    50  GLY50       0.2014
     29  C         33.4830    4.4250   65.4670 C.2    50  GLY50       0.2639
     30  O         33.8110    5.5930   65.6220 O.2    50  GLY50      -0.2714
     31  N         32.6470    4.0340   64.5050 N.am   51  PHE51      -0.1959
     32  CA        31.8420    4.8980   63.7200 C.3    51  PHE51       0.1771
     33  C         30.9860    5.7220   64.7010 C.2    51  PHE51       0.2620
     34  O         30.5790    5.2050   65.7540 O.2    51  PHE51      -0.2715
     35  CB        30.9110    4.0970   62.8260 C.3    51  PHE51       0.0574
     36  CG        31.5910    3.1210   61.9160 C.ar   51  PHE51      -0.0200
     37  CD1       32.2990    3.5610   60.8090 C.ar   51  PHE51      -0.0042
     38  CD2       31.5680    1.7510   62.1900 C.ar   51  PHE51      -0.0042
     39  CE1       32.9750    2.6470   59.9880 C.ar   51  PHE51      -0.0003
     40  CE2       32.1730    0.8140   61.3490 C.ar   51  PHE51      -0.0003
     41  CZ        32.8960    1.2700   60.2470 C.ar   51  PHE51      -0.0000
     42  N         30.8380    7.0170   64.4660 N.am   52  THR52      -0.1951
     43  CA        29.9880    7.7640   65.4360 C.3    52  THR52       0.1897
     44  C         28.8040    8.5260   64.8230 C.2    52  THR52       0.2313
     45  O         28.8120    8.9240   63.6520 O.2    52  THR52      -0.2863
     46  CB        30.7770    8.7420   66.3150 C.3    52  THR52       0.1794
     47  OG1       30.9420   10.0100   65.6710 O.3    52  THR52      -0.2208
     48  CG2       32.1130    8.2020   66.8030 C.3    52  THR52       0.0378
     49  N         29.8700   12.4130   64.1410 N.3    55  THR55      -0.1203
     50  CA        30.8760   12.8450   63.1690 C.3    55  THR55       0.1994
     51  C         30.5460   12.4900   61.6940 C.2    55  THR55       0.2618
     52  O         31.4030   12.6640   60.8110 O.2    55  THR55      -0.2717
     53  CB        32.2770   12.2820   63.4960 C.3    55  THR55       0.1784
     54  OG1       32.2090   10.8490   63.4200 O.3    55  THR55      -0.2211
     55  CG2       32.8260   12.7550   64.9140 C.3    55  THR55       0.0376
     56  N         29.3610   11.9700   61.4250 N.am   56  GLY56      -0.1942
     57  CA        28.9630   11.6690   60.0410 C.3    56  GLY56       0.2014
     58  C         29.2100   10.2400   59.5430 C.2    56  GLY56       0.2638
     59  O         28.5810    9.7900   58.5490 O.2    56  GLY56      -0.2714
     60  N         30.1260    9.4910   60.1660 N.am   57  ASP57      -0.1971
     61  CA        30.4640    8.2000   59.5340 C.3    57  ASP57       0.1709
     62  C         29.5270    7.0380   59.8860 C.2    57  ASP57       0.2293
     63  O         29.3470    6.1140   59.0780 O.2    57  ASP57      -0.2864
     64  CB        31.9490    7.8250   59.7120 C.3    57  ASP57       0.1436
     65  CG        32.3300    7.5740   61.1690 C.2    57  ASP57       0.3671
     66  OD1       31.6310    8.0550   62.0840 O.co2  57  ASP57      -0.2456
     67  OD2       33.3810    6.9450   61.3930 O.co2  57  ASP57      -0.2456
     68  N         26.8900    7.4770   57.2840 N.3    60  GLU60      -0.1245
     69  CA        27.3470    7.0780   55.9770 C.3    60  GLU60       0.1567
     70  C         27.2190    5.5520   55.9330 C.2    60  GLU60       0.2260
     71  O         26.7460    4.9670   54.9450 O.2    60  GLU60      -0.2867
     72  CB        28.7960    7.5540   55.7860 C.3    60  GLU60       0.0388
     73  CG        29.3440    7.4040   54.3790 C.3    60  GLU60       0.1160
     74  CD        30.6890    8.1040   54.2190 C.2    60  GLU60       0.3649
     75  OE1       31.6740    7.7240   54.9230 O.co2  60  GLU60      -0.2457
     76  OE2       30.7670    9.0420   53.3910 O.co2  60  GLU60      -0.2457
     77  N         37.3470    4.4700   53.8740 N.3   121  VAL121     -0.1231
     78  CA        37.6240    5.7270   54.5260 C.3   121  VAL121      0.1692
     79  C         38.9290    5.6760   55.3820 C.2   121  VAL121      0.2592
     80  O         39.6380    6.7010   55.5160 O.2   121  VAL121     -0.2718
     81  CB        36.4280    6.1200   55.4090 C.3   121  VAL121      0.0266
     82  CG1       36.6950    7.4350   56.1260 C.3   121  VAL121      0.0020
     83  CG2       35.1590    6.1650   54.5690 C.3   121  VAL121      0.0020
     84  N         39.2410    4.5160   55.9580 N.am  122  TYR122     -0.1976
     85  CA        40.2910    4.4600   56.9780 C.3   122  TYR122      0.1639
     86  C         41.4490    3.5360   56.5360 C.2   122  TYR122      0.2290
     87  O         42.6230    3.9530   56.4570 O.2   122  TYR122     -0.2864
     88  CB        39.7380    3.9560   58.3210 C.3   122  TYR122      0.0560
     89  CG        38.6920    4.8710   58.8860 C.ar  122  TYR122     -0.0198
     90  CD1       37.3400    4.6690   58.5840 C.ar  122  TYR122     -0.0009
     91  CD2       39.0540    5.8850   59.7250 C.ar  122  TYR122     -0.0009
     92  CE1       36.3550    5.5280   59.1220 C.ar  122  TYR122      0.0417
     93  CE2       38.1050    6.7890   60.2290 C.ar  122  TYR122      0.0417
     94  CZ        36.7750    6.6050   59.9170 C.ar  122  TYR122      0.1957
     95  OH        35.8060    7.4580   60.4870 O.3   122  TYR122     -0.2866
     96  N         41.8680    5.9140   62.4450 N.3   148  VAL148     -0.1231
     97  CA        40.7850    5.3560   63.2840 C.3   148  VAL148      0.1692
     98  C         40.4090    6.3560   64.3970 C.2   148  VAL148      0.2592
     99  O         39.2050    6.5770   64.6850 O.2   148  VAL148     -0.2718
    100  CB        41.1630    3.9570   63.8490 C.3   148  VAL148      0.0266
    101  CG1       40.2770    3.4900   65.0410 C.3   148  VAL148      0.0020
    102  CG2       41.1350    2.9170   62.7610 C.3   148  VAL148      0.0020
    103  N         41.4240    6.8820   65.0750 N.am  149  VAL149     -0.1966
    104  CA        41.1510    7.7490   66.2500 C.3   149  VAL149      0.1727
    105  C         40.8350    9.1730   65.8400 C.2   149  VAL149      0.2616
    106  O         39.9270    9.7980   66.4080 O.2   149  VAL149     -0.2715
    107  CB        42.3740    7.7640   67.1830 C.3   149  VAL149      0.0290
    108  CG1       42.1700    8.7080   68.3510 C.3   149  VAL149      0.0023
    109  CG2       42.5430    6.3640   67.7920 C.3   149  VAL149      0.0023
    110  N         41.5920    9.7110   64.9010 N.am  150  HIS150     -0.1959
    111  CA        41.5310   11.1620   64.6630 C.3   150  HIS150      0.1787
    112  C         40.7730   11.5140   63.4090 C.2   150  HIS150      0.2621
    113  O         40.3430   12.7020   63.2240 O.2   150  HIS150     -0.2715
    114  CB        42.9340   11.7390   64.5970 C.3   150  HIS150      0.0785
    115  CG        43.7540   11.4300   65.8230 C.ar  150  HIS150      0.0821
    116  ND1       43.5800   12.1270   67.0100 N.ar  150  HIS150     -0.2267
    117  CD2       44.7110   10.5030   66.0550 C.ar  150  HIS150      0.1154
    118  CE1       44.4410   11.6560   67.9170 C.ar  150  HIS150      0.1986
    119  NE2       45.1390   10.6830   67.3640 N.ar  150  HIS150     -0.2212
    120  N         40.5940   10.5020   62.5660 N.am  151  GLY151     -0.1940
    121  CA        39.8630   10.6650   61.3130 C.3   151  GLY151      0.1998
    122  C         40.6560   11.3170   60.2070 C.2   151  GLY151      0.2481
    123  O         41.7350   11.9150   60.4310 O.2   151  GLY151     -0.2729
    124  N         40.0850   11.2940   59.0060 N.am  152  PRO152     -0.2715
    125  CA        40.7470   11.9690   57.8860 C.3   152  PRO152      0.1536
    126  C         40.5250   13.4840   57.9680 C.2   152  PRO152      0.2599
    127  O         39.5590   13.9890   58.6280 O.2   152  PRO152     -0.2715
    128  CB        40.0210   11.4140   56.6760 C.3   152  PRO152      0.0310
    129  CG        38.6360   11.0800   57.1560 C.3   152  PRO152      0.0237
    130  CD        38.7970   10.6690   58.6420 C.3   152  PRO152      0.0939
    131  N         41.4020   14.1920   57.2800 N.am  153  GLY153     -0.1955
    132  CA        41.2910   15.6390   57.2270 C.3   153  GLY153      0.1869
    133  C         42.6120   16.3320   57.3220 C.2   153  GLY153      0.2309
    134  O         43.5920   15.7480   57.7790 O.2   153  GLY153     -0.2863
    135  N         43.1250   19.1820   58.9450 N.3   155  GLN155     -0.1245
    136  CA        43.2540   19.9660   60.2090 C.3   155  GLN155      0.1566
    137  C         44.3220   19.4020   61.0950 C.2   155  GLN155      0.2260
    138  O         44.6110   18.2130   61.0540 O.2   155  GLN155     -0.2867
    139  CB        41.9610   19.9700   61.0150 C.3   155  GLN155      0.0367
    140  CG        40.8500   20.7300   60.2950 C.3   155  GLN155      0.0905
    141  CD        39.6190   21.0070   61.1500 C.2   155  GLN155      0.2608
    142  OE1       39.6100   20.7820   62.3810 O.2   155  GLN155     -0.2717
    143  NE2       38.5630   21.5310   60.5010 N.am  155  GLN155     -0.0878
    144  N         44.3930   18.4960   64.0600 N.3   157  ASP157     -0.1225
    145  CA        43.9890   17.3560   64.8720 C.3   157  ASP157      0.1805
    146  C         43.4800   16.1120   64.1350 C.2   157  ASP157      0.2597
    147  O         42.9820   15.1780   64.7750 O.2   157  ASP157     -0.2718
    148  CB        43.0630   17.7640   66.0420 C.3   157  ASP157      0.1424
    149  CG        41.6770   18.2540   65.6120 C.2   157  ASP157      0.3668
    150  OD1       41.3080   18.2630   64.4100 O.co2 157  ASP157     -0.2456
    151  OD2       40.9180   18.6710   66.5400 O.co2 157  ASP157     -0.2456
    152  N         43.5840   16.0960   62.8060 N.am  158  ALA158     -0.1979
    153  CA        43.2020   14.9360   61.9640 C.3   158  ALA158      0.1597
    154  C         44.4520   14.3220   61.3690 C.2   158  ALA158      0.2287
    155  O         45.5680   14.8570   61.5010 O.2   158  ALA158     -0.2864
    156  CB        42.2580   15.3660   60.8130 C.3   158  ALA158      0.0319
@<TRIPOS>BOND
     1    76    74   ar
     2    77    78    1
     3    74    73    1
     4    74    75   ar
     5    73    72    1
     6    78    79    1
     7    78    81    1
     8    83    81    1
     9    71    70    2
    10    79    80    2
    11    79    84   am
    12    81    82    1
    13    72    69    1
    14    70    69    1
    15    84    85    1
    16    69    68    1
    17    87    86    2
    18    86    85    1
    19   128   129    1
    20   128   125    1
    21    85    88    1
    22   129   130    1
    23   132   131    1
    24   132   133    1
    25   131   126   am
    26   133   134    2
    27   125   126    1
    28   125   124    1
    29   126   127    2
    30    88    89    1
    31    59    58    2
    32    90    89   ar
    33    90    92   ar
    34   130   124    1
    35    89    91   ar
    36   135   136    1
    37   124   122   am
    38    63    62    2
    39    92    94   ar
    40    61    64    1
    41    61    62    1
    42    61    60    1
    43    58    57    1
    44    58    60   am
    45    64    65    1
    46    91    93   ar
    47    94    93   ar
    48    94    95    1
    49    39    41   ar
    50    39    37   ar
    51    57    56    1
    52   122   123    2
    53   122   121    1
    54   136   139    1
    55   136   137    1
    56    41    40   ar
    57   140   139    1
    58   140   141    1
    59   143   141   am
    60    37    36   ar
    61    52    51    2
    62   156   153    1
    63    26    24    1
    64   138   137    2
    65   141   142    2
    66    65    67   ar
    67    65    66   ar
    68   121   120    1
    69    40    38   ar
    70   154   155    2
    71   154   153    1
    72    56    51   am
    73    51    50    1
    74    36    38   ar
    75    36    35    1
    76   153   152    1
    77    24    23    1
    78    96    97    1
    79   120   112   am
    80   102   100    1
    81   152   146   am
    82    35    32    1
    83    25    23    1
    84    50    53    1
    85    50    49    1
    86    23    20    1
    87   113   112    2
    88    97   100    1
    89    97    98    1
    90   112   111    1
    91    54    53    1
    92    53    55    1
    93    45    44    2
    94    32    31    1
    95    32    33    1
    96   100   101    1
    97   144   145    1
    98   146   147    2
    99   146   145    1
   100    19    20    1
   101    98    99    2
   102    98   103   am
   103   150   149   ar
   104    42    33   am
   105    42    43    1
   106    20    21    1
   107    31    29   am
   108   114   111    1
   109   114   115    1
   110   111   110    1
   111    33    34    2
   112    44    43    1
   113   145   148    1
   114   110   105   am
   115    22    21    2
   116   103   104    1
   117    21    27   am
   118    43    46    1
   119    29    30    2
   120    29    28    1
   121   149   148    1
   122   149   151   ar
   123    47    46    1
   124    27    28    1
   125   115   117   ar
   126   115   116   ar
   127   105   104    1
   128   105   106    2
   129   117   119   ar
   130   104   107    1
   131    46    48    1
   132   116   118   ar
   133   107   109    1
   134   107   108    1
   135   119   118   ar
   136     8     7    1
   137     8     9    2
   138     7     6    1
   139     4     3    2
   140    14    13    1
   141    14    15    2
   142    11     9    1
   143     6     5    1
   144    13    12    1
   145    13    16    1
   146     5     2    1
   147     9    10    1
   148    18    16    1
   149     3     2    1
   150     2     1    1
   151    16    17    1
