@<TRIPOS>MOLECULE
tmp/4qwpB00.pdb
 124 118 0 0 0
SMALL
GASTEIGER

@<TRIPOS>ATOM
      1  N         65.5690    4.8080   85.1200 N.3    21  PHE21      -0.1227
      2  CA        65.6230    5.7150   83.9360 C.3    21  PHE21       0.1736
      3  C         67.0890    5.9460   83.4870 C.2    21  PHE21       0.2595
      4  O         67.3510    6.1810   82.2800 O.2    21  PHE21      -0.2718
      5  CB        65.0800    7.1300   84.3030 C.3    21  PHE21       0.0547
      6  CG        63.6650    7.1690   84.8610 C.ar   21  PHE21      -0.0202
      7  CD1       62.7310    6.1580   84.6170 C.ar   21  PHE21      -0.0042
      8  CD2       63.2250    8.3400   85.5760 C.ar   21  PHE21      -0.0042
      9  CE1       61.4450    6.2330   85.1110 C.ar   21  PHE21      -0.0003
     10  CE2       61.8910    8.4100   86.0800 C.ar   21  PHE21      -0.0003
     11  CZ        61.0090    7.3510   85.8280 C.ar   21  PHE21      -0.0000
     12  N         68.0190    5.9330   84.4350 N.am   22  GLU22      -0.1965
     13  CA        69.4100    6.2170   84.0480 C.3    22  GLU22       0.1733
     14  C         70.1890    4.9770   83.7210 C.2    22  GLU22       0.2616
     15  O         71.1290    5.0260   82.9010 O.2    22  GLU22      -0.2715
     16  CB        70.1210    6.9770   85.1720 C.3    22  GLU22       0.0429
     17  CG        69.4390    8.3290   85.3940 C.3    22  GLU22       0.1163
     18  CD        69.5840    9.2330   84.1490 C.2    22  GLU22       0.3649
     19  OE1       70.6900    9.2400   83.5580 O.co2  22  GLU22      -0.2457
     20  OE2       68.6630    9.9580   83.7760 O.co2  22  GLU22      -0.2457
     21  N         69.8660    3.8760   84.3890 N.am   23  ASN23      -0.1958
     22  CA        70.6750    2.6890   84.3070 C.3    23  ASN23       0.1819
     23  C         69.9090    1.3540   84.1080 C.2    23  ASN23       0.2622
     24  O         70.5300    0.2660   84.1650 O.2    23  ASN23      -0.2715
     25  CB        71.5270    2.5630   85.5850 C.3    23  ASN23       0.1195
     26  CG        72.5210    3.6420   85.6780 C.2    23  ASN23       0.2630
     27  OD1       72.3180    4.6030   86.4490 O.2    23  ASN23      -0.2716
     28  ND2       73.5360    3.5720   84.8280 N.am   23  ASN23      -0.0877
     29  N         68.5920    1.4320   83.9100 N.am   24  SER24      -0.1950
     30  CA        67.7580    0.2680   83.6680 C.3    24  SER24       0.1924
     31  C         67.8810   -0.7160   84.8140 C.2    24  SER24       0.2314
     32  O         67.8990   -1.9640   84.6000 O.2    24  SER24      -0.2863
     33  CB        68.1350   -0.3640   82.3210 C.3    24  SER24       0.2116
     34  OG        67.7550    0.5390   81.2850 O.3    24  SER24      -0.2180
     35  N         78.8390    3.7740   88.4300 N.3    34  TYR34      -0.1241
     36  CA        78.5450    3.9650   87.0040 C.3    34  TYR34       0.1605
     37  C         79.4550    5.0700   86.4010 C.2    34  TYR34       0.2264
     38  O         79.5540    6.1570   86.9230 O.2    34  TYR34      -0.2867
     39  CB        77.0930    4.3820   86.8120 C.3    34  TYR34       0.0534
     40  CG        76.7390    4.6880   85.3650 C.ar   34  TYR34      -0.0201
     41  CD1       76.8480    3.6950   84.3820 C.ar   34  TYR34      -0.0009
     42  CD2       76.2930    5.9440   84.9770 C.ar   34  TYR34      -0.0009
     43  CE1       76.5030    3.9660   83.0580 C.ar   34  TYR34       0.0417
     44  CE2       75.9350    6.1990   83.6600 C.ar   34  TYR34       0.0417
     45  CZ        76.0680    5.2190   82.6980 C.ar   34  TYR34       0.1957
     46  OH        75.7670    5.4360   81.3670 O.3    34  TYR34      -0.2866
     47  N         80.4450    6.2040   82.1890 N.3    36  GLU36      -0.1245
     48  CA        80.3630    5.8610   80.7650 C.3    36  GLU36       0.1567
     49  C         80.3510    7.1790   79.9770 C.2    36  GLU36       0.2260
     50  O         79.6800    8.1510   80.3840 O.2    36  GLU36      -0.2867
     51  CB        79.0060    5.1210   80.5010 C.3    36  GLU36       0.0388
     52  CG        78.8850    4.5260   79.1040 C.3    36  GLU36       0.1160
     53  CD        77.5530    3.8160   78.7990 C.2    36  GLU36       0.3649
     54  OE1       76.6080    3.7410   79.6250 O.co2  36  GLU36      -0.2457
     55  OE2       77.3860    3.3260   77.6340 O.co2  36  GLU36      -0.2457
     56  N         78.3650    8.2410   77.1020 N.3    38  ILE38      -0.1245
     57  CA        77.2540    7.7670   76.2870 C.3    38  ILE38       0.1561
     58  C         77.1230    8.4500   74.9120 C.2    38  ILE38       0.2260
     59  O         76.1910    8.2250   74.2180 O.2    38  ILE38      -0.2867
     60  CB        75.8950    7.8240   77.0210 C.3    38  ILE38       0.0252
     61  CG1       75.4680    9.2430   77.2070 C.3    38  ILE38       0.0019
     62  CG2       76.0010    7.1990   78.3740 C.3    38  ILE38       0.0019
     63  CD1       74.0540    9.3420   77.7100 C.3    38  ILE38       0.0001
     64  N         79.6980   10.5430   81.8660 N.3    45  THR45      -0.1218
     65  CA        78.5390   10.6260   82.7420 C.3    45  THR45       0.1862
     66  C         78.8070    9.6110   83.8380 C.2    45  THR45       0.2287
     67  O         79.1620    8.4450   83.5510 O.2    45  THR45      -0.2866
     68  CB        77.3120   10.1580   81.9770 C.3    45  THR45       0.1770
     69  OG1       77.0520   11.0590   80.8900 O.3    45  THR45      -0.2211
     70  CG2       76.0780   10.0990   82.8880 C.3    45  THR45       0.0375
     71  N         69.4210   12.3410   72.2570 N.3   199  ALA199     -0.1231
     72  CA        69.5340   11.3890   73.3940 C.3   199  ALA199      0.1694
     73  C         68.3640   11.4950   74.3930 C.2   199  ALA199      0.2592
     74  O         67.9590   10.4850   75.0030 O.2   199  ALA199     -0.2718
     75  CB        70.8760   11.5210   74.1170 C.3   199  ALA199      0.0304
     76  N         67.8210   12.7060   74.5590 N.am  200  HIS200     -0.1976
     77  CA        66.5750   12.8800   75.3470 C.3   200  HIS200      0.1656
     78  C         65.2810   12.7140   74.5210 C.2   200  HIS200      0.2291
     79  O         64.1780   12.8980   75.0530 O.2   200  HIS200     -0.2864
     80  CB        66.5150   14.2340   76.0490 C.3   200  HIS200      0.0771
     81  CG        67.6480   14.4820   76.9880 C.ar  200  HIS200      0.0820
     82  ND1       68.1000   15.7540   77.2840 N.ar  200  HIS200     -0.2267
     83  CD2       68.4360   13.6250   77.6850 C.ar  200  HIS200      0.1154
     84  CE1       69.1200   15.6710   78.1220 C.ar  200  HIS200      0.1986
     85  NE2       69.3440   14.3910   78.3820 N.ar  200  HIS200     -0.2212
     86  N         63.8280   10.1390   73.6590 N.3   202  ASP202     -0.1239
     87  CA        62.9690    9.1060   74.2630 C.3   202  ASP202      0.1674
     88  C         62.3360    9.7230   75.5310 C.2   202  ASP202      0.2266
     89  O         63.0370   10.3120   76.3910 O.2   202  ASP202     -0.2867
     90  CB        63.7810    7.8460   74.5730 C.3   202  ASP202      0.1410
     91  CG        62.9460    6.7070   75.1520 C.2   202  ASP202      0.3668
     92  OD1       62.2640    6.8880   76.1930 O.co2 202  ASP202     -0.2456
     93  OD2       63.0740    5.5620   74.6530 O.co2 202  ASP202     -0.2456
     94  N         60.4770    7.8890   80.2150 N.3   205  ARG205     -0.1245
     95  CA        60.5320    8.0610   81.7000 C.3   205  ARG205      0.1563
     96  C         59.3720    8.9270   82.1470 C.2   205  ARG205      0.2260
     97  O         58.8980    8.7840   83.3030 O.2   205  ARG205     -0.2867
     98  CB        61.8750    8.6670   82.1570 C.3   205  ARG205      0.0307
     99  CG        62.0170   10.1140   81.6110 C.3   205  ARG205      0.0489
    100  CD        63.4860   10.6040   81.5200 C.3   205  ARG205      0.2205
    101  NE        64.0850   10.6570   82.8830 N.pl3 205  ARG205     -0.0865
    102  CZ        65.3670   10.5050   83.1440 C.cat 205  ARG205      0.5346
    103  NH1       66.1790   10.0470   82.1380 N.pl3 205  ARG205      0.1354
    104  NH2       65.8390   10.5940   84.3930 N.pl3 205  ARG205      0.1354
    105  N         61.8990    2.5580   78.5730 N.3   230  TYR230     -0.1241
    106  CA        62.6310    1.8990   77.4390 C.3   230  TYR230      0.1605
    107  C         62.0970    0.5100   77.1120 C.2   230  TYR230      0.2264
    108  O         62.8700   -0.3230   76.5390 O.2   230  TYR230     -0.2867
    109  CB        64.1350    1.7930   77.7150 C.3   230  TYR230      0.0534
    110  CG        64.7190    3.0430   78.3150 C.ar  230  TYR230     -0.0201
    111  CD1       64.5590    4.2950   77.6570 C.ar  230  TYR230     -0.0009
    112  CD2       65.4380    2.9880   79.5230 C.ar  230  TYR230     -0.0009
    113  CE1       65.0670    5.4350   78.1950 C.ar  230  TYR230      0.0417
    114  CE2       66.0070    4.1570   80.0690 C.ar  230  TYR230      0.0417
    115  CZ        65.7990    5.3610   79.3950 C.ar  230  TYR230      0.1957
    116  OH        66.3470    6.5040   79.9020 O.3   230  TYR230     -0.2866
    117  N         61.0800   -1.8060   79.1760 N.3   232  ASP232     -0.1239
    118  CA        61.2480   -2.8100   80.2130 C.3   232  ASP232      0.1674
    119  C         60.3520   -2.4760   81.4010 C.2   232  ASP232      0.2266
    120  O         60.2630   -1.3220   81.8010 O.2   232  ASP232     -0.2867
    121  CB        62.6820   -2.7360   80.7260 C.3   232  ASP232      0.1410
    122  CG        63.7050   -3.1050   79.6820 C.2   232  ASP232      0.3668
    123  OD1       63.5320   -4.1640   79.0170 O.co2 232  ASP232     -0.2456
    124  OD2       64.7030   -2.3730   79.5230 O.co2 232  ASP232     -0.2456
@<TRIPOS>BOND
     1    71    72    1
     2    72    75    1
     3    72    73    1
     4    86    87    1
     5    59    58    2
     6    87    90    1
     7    87    88    1
     8    73    76   am
     9    73    74    2
    10    78    79    2
    11    78    77    1
    12    76    77    1
    13    90    91    1
    14    93    91   ar
    15    58    57    1
    16    91    92   ar
    17    77    80    1
    18    88    89    2
    19    80    81    1
    20    57    60    1
    21    57    56    1
    22   108   107    2
    23    81    82   ar
    24    81    83   ar
    25    60    61    1
    26    60    62    1
    27   107   106    1
    28    61    63    1
    29    82    84   ar
    30   106   109    1
    31   106   105    1
    32    55    53   ar
    33   111   113   ar
    34   111   110   ar
    35    83    85   ar
    36   109   110    1
    37    84    85   ar
    38   113   115   ar
    39   110   112   ar
    40    53    52    1
    41    53    54   ar
    42   123   122   ar
    43    52    51    1
    44   117   118    1
    45   115   116    1
    46   115   114   ar
    47   112   114   ar
    48   124   122   ar
    49   122   121    1
    50    49    50    2
    51    49    48    1
    52   118   121    1
    53   118   119    1
    54    94    95    1
    55    51    48    1
    56    48    47    1
    57    69    68    1
    58    34    33    1
    59    46    45    1
    60   119   120    2
    61   100    99    1
    62   100   101    1
    63    99    98    1
    64    95    96    1
    65    95    98    1
    66    64    65    1
    67    68    65    1
    68    68    70    1
    69   103   102    1
    70    96    97    2
    71     4     3    2
    72    33    30    1
    73    45    43   ar
    74    45    44   ar
    75    65    66    1
    76   101   102    2
    77    15    14    2
    78    43    41   ar
    79   102   104    1
    80     3     2    1
    81     3    12   am
    82    67    66    2
    83    19    18   ar
    84    44    42   ar
    85    30    29    1
    86    30    31    1
    87    14    13    1
    88    14    21   am
    89    20    18   ar
    90    29    23   am
    91     2     5    1
    92     2     1    1
    93    13    12    1
    94    13    16    1
    95    23    24    2
    96    23    22    1
    97    18    17    1
    98     5     6    1
    99    22    21    1
   100    22    25    1
   101    41    40   ar
   102    32    31    2
   103     7     6   ar
   104     7     9   ar
   105    28    26   am
   106     6     8   ar
   107    42    40   ar
   108     9    11   ar
   109    16    17    1
   110    40    39    1
   111     8    10   ar
   112    25    26    1
   113    26    27    2
   114    11    10   ar
   115    37    38    2
   116    37    36    1
   117    39    36    1
   118    36    35    1
