@<TRIPOS>MOLECULE
tmp/4qwpB01.pdb
 175 165 0 0 0
SMALL
GASTEIGER

@<TRIPOS>ATOM
      1  N         68.0190    5.9330   84.4350 N.3    22  GLU22      -0.1245
      2  CA        69.4100    6.2170   84.0480 C.3    22  GLU22       0.1567
      3  C         70.1890    4.9770   83.7210 C.2    22  GLU22       0.2260
      4  O         71.1290    5.0260   82.9010 O.2    22  GLU22      -0.2867
      5  CB        70.1210    6.9770   85.1720 C.3    22  GLU22       0.0388
      6  CG        69.4390    8.3290   85.3940 C.3    22  GLU22       0.1160
      7  CD        69.5840    9.2330   84.1490 C.2    22  GLU22       0.3649
      8  OE1       70.6900    9.2400   83.5580 O.co2  22  GLU22      -0.2457
      9  OE2       68.6630    9.9580   83.7760 O.co2  22  GLU22      -0.2457
     10  N         78.3650    8.2410   77.1020 N.3    38  ILE38      -0.1245
     11  CA        77.2540    7.7670   76.2870 C.3    38  ILE38       0.1561
     12  C         77.1230    8.4500   74.9120 C.2    38  ILE38       0.2260
     13  O         76.1910    8.2250   74.2180 O.2    38  ILE38      -0.2867
     14  CB        75.8950    7.8240   77.0210 C.3    38  ILE38       0.0252
     15  CG1       75.4680    9.2430   77.2070 C.3    38  ILE38       0.0019
     16  CG2       76.0010    7.1990   78.3740 C.3    38  ILE38       0.0019
     17  CD1       74.0540    9.3420   77.7100 C.3    38  ILE38       0.0001
     18  N         78.3630   15.1590   76.3510 N.3    42  ARG42      -0.1245
     19  CA        78.6110   15.6780   77.6960 C.3    42  ARG42       0.1563
     20  C         79.8560   15.0080   78.3040 C.2    42  ARG42       0.2260
     21  O         80.1910   15.3100   79.4390 O.2    42  ARG42      -0.2867
     22  CB        77.3980   15.4830   78.6470 C.3    42  ARG42       0.0307
     23  CG        76.2170   16.3800   78.3190 C.3    42  ARG42       0.0489
     24  CD        75.1920   16.3940   79.4540 C.3    42  ARG42       0.2205
     25  NE        74.0160   17.2090   79.0720 N.pl3  42  ARG42      -0.0865
     26  CZ        73.1840   16.8970   78.0690 C.cat  42  ARG42       0.5346
     27  NH1       73.3580   15.7590   77.3520 N.pl3  42  ARG42       0.1354
     28  NH2       72.1550   17.7090   77.8020 N.pl3  42  ARG42       0.1354
     29  N         79.6980   10.5430   81.8660 N.3    45  THR45      -0.1218
     30  CA        78.5390   10.6260   82.7420 C.3    45  THR45       0.1862
     31  C         78.8070    9.6110   83.8380 C.2    45  THR45       0.2287
     32  O         79.1620    8.4450   83.5510 O.2    45  THR45      -0.2866
     33  CB        77.3120   10.1580   81.9770 C.3    45  THR45       0.1770
     34  OG1       77.0520   11.0590   80.8900 O.3    45  THR45      -0.2211
     35  CG2       76.0780   10.0990   82.8880 C.3    45  THR45       0.0375
     36  N         73.1860    9.9830   89.4890 N.3    49  ILE49      -0.1231
     37  CA        72.2420   10.7770   88.6960 C.3    49  ILE49       0.1692
     38  C         72.9340   11.3620   87.4740 C.2    49  ILE49       0.2592
     39  O         72.4160   12.3260   86.8890 O.2    49  ILE49      -0.2718
     40  CB        71.6690   11.9170   89.5420 C.3    49  ILE49       0.0266
     41  CG1       72.8030   12.6960   90.2280 C.3    49  ILE49       0.0019
     42  CG2       70.7170   11.3720   90.6560 C.3    49  ILE49       0.0020
     43  CD1       72.2140   14.0130   90.7970 C.3    49  ILE49       0.0001
     44  N         74.0860   10.7920   87.1000 N.am   50  GLY50      -0.1957
     45  CA        74.7040   11.1500   85.8410 C.3    50  GLY50       0.1869
     46  C         75.3440   12.5290   85.8870 C.2    50  GLY50       0.2309
     47  O         75.0450   13.3890   85.0530 O.2    50  GLY50      -0.2863
     48  N         78.1930   14.9590   84.9630 N.3    52  THR52      -0.1218
     49  CA        79.0110   14.8590   83.7320 C.3    52  THR52       0.1862
     50  C         80.3010   15.7370   83.7730 C.2    52  THR52       0.2287
     51  O         80.3680   16.7580   84.4570 O.2    52  THR52      -0.2866
     52  CB        78.2430   15.1290   82.4430 C.3    52  THR52       0.1770
     53  OG1       78.1700   16.5470   82.2420 O.3    52  THR52      -0.2211
     54  CG2       76.8670   14.4970   82.4300 C.3    52  THR52       0.0375
     55  N         79.5910   19.3310   81.9160 N.3    55  THR55      -0.1203
     56  CA        78.6700   20.3540   82.4290 C.3    55  THR55       0.1994
     57  C         79.0700   20.9260   83.7880 C.2    55  THR55       0.2618
     58  O         78.3170   21.7340   84.3710 O.2    55  THR55      -0.2717
     59  CB        77.2300   19.8420   82.5680 C.3    55  THR55       0.1784
     60  OG1       77.2160   18.7730   83.5210 O.3    55  THR55      -0.2211
     61  CG2       76.6570   19.3390   81.2260 C.3    55  THR55       0.0376
     62  N         80.1940   20.5050   84.3230 N.am   56  GLY56      -0.1942
     63  CA        80.6370   21.0790   85.5770 C.3    56  GLY56       0.2014
     64  C         80.2930   20.3910   86.8740 C.2    56  GLY56       0.2638
     65  O         80.9770   20.6350   87.8900 O.2    56  GLY56      -0.2714
     66  N         79.2790   19.5120   86.8800 N.am   57  ASP57      -0.1971
     67  CA        78.8860   18.9420   88.1760 C.3    57  ASP57       0.1709
     68  C         79.7520   17.7520   88.6150 C.2    57  ASP57       0.2293
     69  O         79.8660   17.4720   89.8020 O.2    57  ASP57      -0.2864
     70  CB        77.3730   18.6610   88.2820 C.3    57  ASP57       0.1436
     71  CG        76.9060   17.6180   87.2980 C.2    57  ASP57       0.3671
     72  OD1       77.6090   17.3970   86.3130 O.co2  57  ASP57      -0.2456
     73  OD2       75.8100   17.0280   87.5040 O.co2  57  ASP57      -0.2456
     74  N         82.4720   19.6470   90.2400 N.3    60  GLU60      -0.1245
     75  CA        82.0350   20.1210   91.5440 C.3    60  GLU60       0.1567
     76  C         82.0220   18.9730   92.5730 C.2    60  GLU60       0.2260
     77  O         82.4410   19.1280   93.7100 O.2    60  GLU60      -0.2867
     78  CB        80.6870   20.7770   91.3930 C.3    60  GLU60       0.0388
     79  CG        80.1260   21.3120   92.6830 C.3    60  GLU60       0.1160
     80  CD        78.8640   22.1260   92.4250 C.2    60  GLU60       0.3649
     81  OE1       77.9140   21.5730   91.7870 O.co2  60  GLU60      -0.2457
     82  OE2       78.8210   23.3070   92.8750 O.co2  60  GLU60      -0.2457
     83  N         71.8870   20.0930   94.8990 N.3   121  VAL121     -0.1231
     84  CA        71.6110   20.6910   93.5900 C.3   121  VAL121      0.1692
     85  C         70.2860   20.2320   93.0110 C.2   121  VAL121      0.2592
     86  O         69.6200   21.0230   92.3630 O.2   121  VAL121     -0.2718
     87  CB        72.7870   20.3830   92.6630 C.3   121  VAL121      0.0266
     88  CG1       72.5960   20.9330   91.2520 C.3   121  VAL121      0.0020
     89  CG2       74.0410   20.9470   93.3240 C.3   121  VAL121      0.0020
     90  N         69.9020   18.9690   93.2950 N.am  122  TYR122     -0.1976
     91  CA        68.7520   18.3480   92.5600 C.3   122  TYR122      0.1639
     92  C         67.5990   18.0100   93.5110 C.2   122  TYR122      0.2290
     93  O         66.4300   18.4450   93.2690 O.2   122  TYR122     -0.2864
     94  CB        69.2150   17.0980   91.7930 C.3   122  TYR122      0.0560
     95  CG        70.3540   17.3730   90.8360 C.ar  122  TYR122     -0.0198
     96  CD1       71.6760   17.3420   91.2900 C.ar  122  TYR122     -0.0009
     97  CD2       70.0960   17.7570   89.5320 C.ar  122  TYR122     -0.0009
     98  CE1       72.7720   17.6000   90.4130 C.ar  122  TYR122      0.0417
     99  CE2       71.1220   18.0430   88.6570 C.ar  122  TYR122      0.0417
    100  CZ        72.4560   17.9680   89.0930 C.ar  122  TYR122      0.1957
    101  OH        73.4020   18.2920   88.1410 O.3   122  TYR122     -0.2866
    102  N         67.2120   16.4220   87.4320 N.3   148  VAL148     -0.1231
    103  CA        68.1910   15.3930   87.0350 C.3   148  VAL148      0.1692
    104  C         68.4970   15.4770   85.5370 C.2   148  VAL148      0.2592
    105  O         69.6930   15.5080   85.1650 O.2   148  VAL148     -0.2718
    106  CB        67.7230   14.0100   87.4210 C.3   148  VAL148      0.0266
    107  CG1       68.5830   12.9670   86.6830 C.3   148  VAL148      0.0020
    108  CG2       67.8100   13.7990   88.9190 C.3   148  VAL148      0.0020
    109  N         67.4670   15.6460   84.6940 N.am  149  VAL149     -0.1966
    110  CA        67.7200   15.5320   83.2360 C.3   149  VAL149      0.1727
    111  C         68.1830   16.8840   82.6760 C.2   149  VAL149      0.2616
    112  O         69.1760   16.9560   81.8650 O.2   149  VAL149     -0.2715
    113  CB        66.4350   15.1540   82.5090 C.3   149  VAL149      0.0290
    114  CG1       66.6700   15.1910   81.0020 C.3   149  VAL149      0.0023
    115  CG2       66.0970   13.7110   82.9120 C.3   149  VAL149      0.0023
    116  N         67.4710   17.9280   83.0660 N.am  150  HIS150     -0.1959
    117  CA        67.6830   19.2630   82.4650 C.3   150  HIS150      0.1787
    118  C         68.5730   20.1960   83.2550 C.2   150  HIS150      0.2621
    119  O         69.1040   21.2210   82.6850 O.2   150  HIS150     -0.2715
    120  CB        66.3170   19.8990   82.1790 C.3   150  HIS150      0.0785
    121  CG        65.4250   19.0140   81.3580 C.ar  150  HIS150      0.0821
    122  ND1       65.4960   18.9320   79.9710 N.ar  150  HIS150     -0.2267
    123  CD2       64.4220   18.2050   81.7430 C.ar  150  HIS150      0.1154
    124  CE1       64.5720   18.0770   79.5520 C.ar  150  HIS150      0.1986
    125  NE2       63.9180   17.6090   80.6030 N.ar  150  HIS150     -0.2212
    126  N         68.7360   19.9250   84.5550 N.am  151  GLY151     -0.1940
    127  CA        69.5750   20.7270   85.4200 C.3   151  GLY151      0.1998
    128  C         68.8340   21.9520   85.9280 C.2   151  GLY151      0.2481
    129  O         67.7540   22.3180   85.4410 O.2   151  GLY151     -0.2729
    130  N         69.4490   22.6580   86.8900 N.am  152  PRO152     -0.2715
    131  CA        68.8340   23.8820   87.4450 C.3   152  PRO152      0.1536
    132  C         69.0880   25.0480   86.5130 C.2   152  PRO152      0.2599
    133  O         70.0050   24.9750   85.6500 O.2   152  PRO152     -0.2715
    134  CB        69.5490   24.0570   88.7890 C.3   152  PRO152      0.0310
    135  CG        70.8790   23.4700   88.5570 C.3   152  PRO152      0.0237
    136  CD        70.7220   22.3180   87.5540 C.3   152  PRO152      0.0939
    137  N         68.3250   26.1080   86.6810 N.am  153  GLY153     -0.1955
    138  CA        68.5790   27.3280   85.9140 C.3   153  GLY153      0.1869
    139  C         67.2850   27.9750   85.4550 C.2   153  GLY153      0.2309
    140  O         66.2470   27.3080   85.3300 O.2   153  GLY153     -0.2863
    141  N         66.8660   29.3880   82.3630 N.3   155  GLN155     -0.1245
    142  CA        66.6950   29.2440   80.9060 C.3   155  GLN155      0.1566
    143  C         65.5410   28.3170   80.5410 C.2   155  GLN155      0.2260
    144  O         65.1620   27.4280   81.3380 O.2   155  GLN155     -0.2867
    145  CB        68.0030   28.8640   80.1760 C.3   155  GLN155      0.0367
    146  CG        68.6800   27.5670   80.6040 C.3   155  GLN155      0.0905
    147  CD        69.5190   27.6820   81.9000 C.2   155  GLN155      0.2608
    148  OE1       69.2350   28.4780   82.7960 O.2   155  GLN155     -0.2717
    149  NE2       70.5440   26.8320   81.9990 N.am  155  GLN155     -0.0878
    150  N         65.9890   24.6100   81.0710 N.3   158  ALA158     -0.1245
    151  CA        66.3210   24.1050   82.4350 C.3   158  ALA158      0.1562
    152  C         65.0680   24.0320   83.2780 C.2   158  ALA158      0.2260
    153  O         63.9850   24.4110   82.8710 O.2   158  ALA158     -0.2867
    154  CB        67.3250   25.0090   83.1220 C.3   158  ALA158      0.0290
    155  N         67.8210   12.7060   74.5590 N.3   200  HIS200     -0.1241
    156  CA        66.5750   12.8800   75.3470 C.3   200  HIS200      0.1621
    157  C         65.2810   12.7140   74.5210 C.2   200  HIS200      0.2264
    158  O         64.1780   12.8980   75.0530 O.2   200  HIS200     -0.2867
    159  CB        66.5150   14.2340   76.0490 C.3   200  HIS200      0.0745
    160  CG        67.6480   14.4820   76.9880 C.ar  200  HIS200      0.0817
    161  ND1       68.1000   15.7540   77.2840 N.ar  200  HIS200     -0.2268
    162  CD2       68.4360   13.6250   77.6850 C.ar  200  HIS200      0.1154
    163  CE1       69.1200   15.6710   78.1220 C.ar  200  HIS200      0.1986
    164  NE2       69.3440   14.3910   78.3820 N.ar  200  HIS200     -0.2212
    165  N         60.4770    7.8890   80.2150 N.3   205  ARG205     -0.1245
    166  CA        60.5320    8.0610   81.7000 C.3   205  ARG205      0.1563
    167  C         59.3720    8.9270   82.1470 C.2   205  ARG205      0.2260
    168  O         58.8980    8.7840   83.3030 O.2   205  ARG205     -0.2867
    169  CB        61.8750    8.6670   82.1570 C.3   205  ARG205      0.0307
    170  CG        62.0170   10.1140   81.6110 C.3   205  ARG205      0.0489
    171  CD        63.4860   10.6040   81.5200 C.3   205  ARG205      0.2205
    172  NE        64.0850   10.6570   82.8830 N.pl3 205  ARG205     -0.0865
    173  CZ        65.3670   10.5050   83.1440 C.cat 205  ARG205      0.5346
    174  NH1       66.1790   10.0470   82.1380 N.pl3 205  ARG205      0.1354
    175  NH2       65.8390   10.5940   84.3930 N.pl3 205  ARG205      0.1354
@<TRIPOS>BOND
     1    13    12    2
     2   157   158    2
     3   157   156    1
     4   155   156    1
     5    12    11    1
     6   156   159    1
     7   159   160    1
     8    11    14    1
     9    11    10    1
    10    18    19    1
    11   160   161   ar
    12   160   162   ar
    13    14    15    1
    14    14    16    1
    15    15    17    1
    16   161   163   ar
    17    27    26    1
    18   162   164   ar
    19    19    20    1
    20    19    22    1
    21    28    26    1
    22    26    25    2
    23   163   164   ar
    24    20    21    2
    25    23    22    1
    26    23    24    1
    27    25    24    1
    28   124   122   ar
    29   124   125   ar
    30   122   121   ar
    31   145   146    1
    32   145   142    1
    33   165   166    1
    34   143   142    1
    35   143   144    2
    36   125   123   ar
    37   146   147    1
    38    34    33    1
    39   142   141    1
    40   114   113    1
    41   150   151    1
    42    61    59    1
    43   121   123   ar
    44   121   120    1
    45   171   170    1
    46   171   172    1
    47   170   169    1
    48   166   167    1
    49   166   169    1
    50   112   111    2
    51    29    30    1
    52   147   149   am
    53   147   148    2
    54    55    56    1
    55    33    30    1
    56    33    35    1
    57   174   173    1
    58   167   168    2
    59   120   117    1
    60    53    52    1
    61    56    59    1
    62    56    57    1
    63    54    52    1
    64   151   154    1
    65   151   152    1
    66    52    49    1
    67   117   116    1
    68   117   118    1
    69   113   115    1
    70   113   110    1
    71    59    60    1
    72   111   116   am
    73   111   110    1
    74   119   118    2
    75    30    31    1
    76   153   152    2
    77   172   173    2
    78     4     3    2
    79   173   175    1
    80   110   109    1
    81   118   126   am
    82    32    31    2
    83     8     7   ar
    84     3     2    1
    85    49    50    1
    86    49    48    1
    87    50    51    2
    88     9     7   ar
    89    57    62   am
    90    57    58    2
    91     2     1    1
    92     2     5    1
    93     7     6    1
    94    62    63    1
    95   126   127    1
    96   109   104   am
    97    47    46    2
    98   105   104    2
    99     5     6    1
   100   140   139    2
   101   127   128    1
   102   129   128    2
   103   139   138    1
   104   104   103    1
   105    63    64    1
   106   133   132    2
   107    45    46    1
   108    45    44    1
   109   138   137    1
   110   128   130   am
   111    72    71   ar
   112   132   137   am
   113   132   131    1
   114   107   106    1
   115    64    66   am
   116    64    65    2
   117    66    67    1
   118    39    38    2
   119   130   131    1
   120   130   136    1
   121   103   106    1
   122   103   102    1
   123    44    38   am
   124    71    73   ar
   125    71    70    1
   126   106   108    1
   127   131   134    1
   128    38    37    1
   129   136   135    1
   130   101   100    1
   131    67    70    1
   132    67    68    1
   133   135   134    1
   134    68    69    2
   135    99   100   ar
   136    99    97   ar
   137    37    36    1
   138    37    40    1
   139   100    98   ar
   140    97    95   ar
   141    40    41    1
   142    40    42    1
   143    41    43    1
   144    74    75    1
   145    98    96   ar
   146    95    96   ar
   147    95    94    1
   148    88    87    1
   149    78    75    1
   150    78    79    1
   151    75    76    1
   152    81    80   ar
   153    94    91    1
   154    86    85    2
   155    80    79    1
   156    80    82   ar
   157    91    90    1
   158    91    92    1
   159    76    77    2
   160    87    89    1
   161    87    84    1
   162    85    90   am
   163    85    84    1
   164    93    92    2
   165    84    83    1
