@<TRIPOS>MOLECULE
tmp/4qwtC00.pdb
 211 198 0 0 0
SMALL
GASTEIGER

@<TRIPOS>ATOM
      1  N         15.8890    7.0260   59.6380 N.3   178  TYR178     -0.1241
      2  CA        14.5230    6.5460   59.7690 C.3   178  TYR178      0.1605
      3  C         13.6860    6.8490   58.5260 C.2   178  TYR178      0.2264
      4  O         13.0400    5.9520   57.9810 O.2   178  TYR178     -0.2867
      5  CB        13.8550    7.1580   61.0050 C.3   178  TYR178      0.0534
      6  CG        12.3740    6.8570   61.1150 C.ar  178  TYR178     -0.0201
      7  CD1       11.9240    5.5760   61.4130 C.ar  178  TYR178     -0.0009
      8  CD2       11.4270    7.8610   60.9510 C.ar  178  TYR178     -0.0009
      9  CE1       10.5620    5.2980   61.5220 C.ar  178  TYR178      0.0417
     10  CE2       10.0710    7.5960   61.0640 C.ar  178  TYR178      0.0417
     11  CZ         9.6430    6.3140   61.3470 C.ar  178  TYR178      0.1957
     12  OH         8.2920    6.0490   61.4430 O.3   178  TYR178     -0.2866
     13  N         11.9880    4.3050   55.6230 N.3   182  ARG182     -0.1245
     14  CA        10.5890    4.2400   55.2250 C.3   182  ARG182      0.1563
     15  C         10.4780    4.3340   53.7080 C.2   182  ARG182      0.2260
     16  O          9.7030    3.6010   53.0970 O.2   182  ARG182     -0.2867
     17  CB         9.7640    5.3380   55.8960 C.3   182  ARG182      0.0307
     18  CG         9.6780    5.1700   57.4000 C.3   182  ARG182      0.0489
     19  CD         8.7200    6.1650   58.0200 C.3   182  ARG182      0.2205
     20  NE         7.3640    5.6300   58.1210 N.pl3 182  ARG182     -0.0865
     21  CZ         6.2990    6.1900   57.5610 C.cat 182  ARG182      0.5346
     22  NH1        6.4310    7.3070   56.8540 N.pl3 182  ARG182      0.1354
     23  NH2        5.1010    5.6330   57.7110 N.pl3 182  ARG182      0.1354
     24  N          5.9560   -8.8700   70.0330 N.3   371  GLN371     -0.1231
     25  CA         6.0000   -7.5010   69.5480 C.3   371  GLN371      0.1698
     26  C          5.2990   -6.5340   70.4910 C.2   371  GLN371      0.2592
     27  O          5.7890   -5.4280   70.7190 O.2   371  GLN371     -0.2718
     28  CB         5.4040   -7.4170   68.1510 C.3   371  GLN371      0.0381
     29  CG         6.2800   -8.0620   67.0830 C.3   371  GLN371      0.0905
     30  CD         7.5800   -7.3150   66.8060 C.2   371  GLN371      0.2608
     31  OE1        7.9800   -6.3920   67.5280 O.2   371  GLN371     -0.2717
     32  NE2        8.2480   -7.7180   65.7430 N.am  371  GLN371     -0.0878
     33  N          4.1820   -6.9540   71.0740 N.am  372  LEU372     -0.1980
     34  CA         3.3780   -6.0300   71.8650 C.3   372  LEU372      0.1596
     35  C          3.8220   -5.9990   73.3150 C.2   372  LEU372      0.2287
     36  O          3.8820   -4.9360   73.9300 O.2   372  LEU372     -0.2864
     37  CB         1.8930   -6.4000   71.7710 C.3   372  LEU372      0.0297
     38  CG         1.3450   -6.3090   70.3430 C.3   372  LEU372      0.0022
     39  CD1       -0.0930   -6.8030   70.2650 C.3   372  LEU372      0.0001
     40  CD2        1.4390   -4.8710   69.8550 C.3   372  LEU372      0.0001
     41  N          8.5280   -6.5510   73.4840 N.3   375  HIS375     -0.1226
     42  CA         9.2090   -5.4740   72.7900 C.3   375  HIS375      0.1752
     43  C          8.5940   -4.0900   73.0810 C.2   375  HIS375      0.2595
     44  O          9.1890   -3.2830   73.7910 O.2   375  HIS375     -0.2718
     45  CB         9.1920   -5.7570   71.2870 C.3   375  HIS375      0.0759
     46  CG         9.9410   -4.7530   70.4790 C.ar  375  HIS375      0.0818
     47  ND1        9.7860   -4.6370   69.1160 N.ar  375  HIS375     -0.2268
     48  CD2       10.8490   -3.8150   70.8420 C.ar  375  HIS375      0.1154
     49  CE1       10.5740   -3.6730   68.6700 C.ar  375  HIS375      0.1986
     50  NE2       11.2300   -3.1640   69.6970 N.ar  375  HIS375     -0.2212
     51  N          7.4150   -3.8170   72.5310 N.am  376  LEU376     -0.1980
     52  CA         6.8640   -2.4650   72.6210 C.3   376  LEU376      0.1596
     53  C          6.5530   -2.0570   74.0610 C.2   376  LEU376      0.2287
     54  O          6.9480   -0.9740   74.4890 O.2   376  LEU376     -0.2864
     55  CB         5.6180   -2.3230   71.7470 C.3   376  LEU376      0.0297
     56  CG         4.8540   -0.9920   71.8880 C.3   376  LEU376      0.0022
     57  CD1        5.7380    0.2170   71.5670 C.3   376  LEU376      0.0001
     58  CD2        3.6270   -0.9840   71.0010 C.3   376  LEU376      0.0001
     59  N         10.4680   -0.0880   75.1160 N.3   380  HIS380     -0.1241
     60  CA         9.9100    1.2370   74.7880 C.3   380  HIS380      0.1621
     61  C          8.9840    1.9180   75.8160 C.2   380  HIS380      0.2264
     62  O          9.4130    2.8020   76.5510 O.2   380  HIS380     -0.2867
     63  CB         9.1390    1.1400   73.4790 C.3   380  HIS380      0.0745
     64  CG        10.0130    0.9610   72.2830 C.ar  380  HIS380      0.0817
     65  ND1       10.5250    2.0270   71.5730 N.ar  380  HIS380     -0.2268
     66  CD2       10.4690   -0.1580   71.6710 C.ar  380  HIS380      0.1154
     67  CE1       11.2510    1.5710   70.5690 C.ar  380  HIS380      0.1986
     68  NE2       11.2260    0.2520   70.6040 N.ar  380  HIS380     -0.2212
     69  N         11.1940    8.0340   69.3450 N.3   414  ILE414     -0.1231
     70  CA        10.6330    6.9280   68.5710 C.3   414  ILE414      0.1692
     71  C          9.2360    6.5920   69.0790 C.2   414  ILE414      0.2592
     72  O          8.3520    6.2530   68.2920 O.2   414  ILE414     -0.2718
     73  CB        11.5520    5.6540   68.6060 C.3   414  ILE414      0.0266
     74  CG1       11.0300    4.5870   67.6440 C.3   414  ILE414      0.0019
     75  CG2       11.7240    5.0970   70.0250 C.3   414  ILE414      0.0020
     76  CD1       11.0510    5.0330   66.1970 C.3   414  ILE414      0.0001
     77  N          9.0190    6.7260   70.3850 N.am  415  ASP415     -0.1974
     78  CA         7.6950    6.4350   70.9370 C.3   415  ASP415      0.1709
     79  C          6.6590    7.4750   70.5100 C.2   415  ASP415      0.2293
     80  O          5.4860    7.1460   70.3040 O.2   415  ASP415     -0.2864
     81  CB         7.7460    6.3550   72.4620 C.3   415  ASP415      0.1436
     82  CG         8.4280    5.0860   72.9650 C.2   415  ASP415      0.3671
     83  OD1        9.0440    4.3530   72.1610 O.co2 415  ASP415     -0.2456
     84  OD2        8.3640    4.8320   74.1810 O.co2 415  ASP415     -0.2456
     85  N          6.7610    9.1660   67.6640 N.3   417  ILE417     -0.1231
     86  CA         6.4830    8.7150   66.3060 C.3   417  ILE417      0.1692
     87  C          5.5800    7.4770   66.3240 C.2   417  ILE417      0.2592
     88  O          4.5560    7.4250   65.6420 O.2   417  ILE417     -0.2718
     89  CB         7.7870    8.3980   65.5500 C.3   417  ILE417      0.0266
     90  CG1        8.6350    9.6690   65.4200 C.3   417  ILE417      0.0019
     91  CG2        7.4830    7.7690   64.1810 C.3   417  ILE417      0.0020
     92  CD1       10.0520    9.4040   64.9580 C.3   417  ILE417      0.0001
     93  N          5.9520    6.4900   67.1300 N.am  418  GLY418     -0.1957
     94  CA         5.1980    5.2500   67.2300 C.3   418  GLY418      0.1869
     95  C          3.7400    5.3620   67.6520 C.2   418  GLY418      0.2309
     96  O          2.8930    4.6060   67.1740 O.2   418  GLY418     -0.2863
     97  N          2.3370    6.3360   64.1500 N.3   421  GLU421     -0.1231
     98  CA         2.6160    5.4630   63.0090 C.3   421  GLU421      0.1699
     99  C          2.4910    3.9650   63.2970 C.2   421  GLU421      0.2592
    100  O          2.1480    3.1930   62.4040 O.2   421  GLU421     -0.2718
    101  CB         4.0220    5.7460   62.4700 C.3   421  GLU421      0.0402
    102  CG         4.2950    7.2070   62.1310 C.3   421  GLU421      0.1161
    103  CD         3.4300    7.7160   60.9990 C.2   421  GLU421      0.3649
    104  OE1        3.0870    6.9140   60.1050 O.co2 421  GLU421     -0.2457
    105  OE2        3.0870    8.9170   61.0090 O.co2 421  GLU421     -0.2457
    106  N          2.7730    3.5460   64.5280 N.am  422  LEU422     -0.1980
    107  CA         2.8280    2.1110   64.8320 C.3   422  LEU422      0.1596
    108  C          1.5150    1.5330   65.3510 C.2   422  LEU422      0.2287
    109  O          0.9870    0.5800   64.7850 O.2   422  LEU422     -0.2864
    110  CB         3.9250    1.8220   65.8530 C.3   422  LEU422      0.0297
    111  CG         4.0910    0.3430   66.2130 C.3   422  LEU422      0.0022
    112  CD1        4.6280   -0.4510   65.0210 C.3   422  LEU422      0.0001
    113  CD2        4.9970    0.1940   67.4200 C.3   422  LEU422      0.0001
    114  N          0.9200    0.4850   61.4610 N.3   428  ILE428     -0.1231
    115  CA         1.6420   -0.7360   61.1290 C.3   428  ILE428      0.1692
    116  C          1.0640   -1.9860   61.7970 C.2   428  ILE428      0.2591
    117  O          0.8140   -2.9800   61.1220 O.2   428  ILE428     -0.2718
    118  CB         3.1170   -0.6060   61.5010 C.3   428  ILE428      0.0266
    119  CG1        3.7570    0.5070   60.6710 C.3   428  ILE428      0.0019
    120  CG2        3.8350   -1.9110   61.2710 C.3   428  ILE428      0.0020
    121  CD1        3.4570    0.3980   59.1830 C.3   428  ILE428      0.0001
    122  N          0.8390   -1.9220   63.1070 N.am  429  VAL429     -0.1980
    123  CA         0.2620   -3.0400   63.8410 C.3   429  VAL429      0.1595
    124  C         -1.0360   -3.5010   63.1920 C.2   429  VAL429      0.2287
    125  O         -1.2410   -4.6930   63.0070 O.2   429  VAL429     -0.2864
    126  CB        -0.0040   -2.6860   65.3200 C.3   429  VAL429      0.0276
    127  CG1       -0.8520   -3.7710   65.9850 C.3   429  VAL429      0.0022
    128  CG2        1.3000   -2.5220   66.0600 C.3   429  VAL429      0.0022
    129  N         -0.0200   -5.5530   60.1500 N.3   432  SER432     -0.1202
    130  CA         0.9410   -6.6570   60.1820 C.3   432  SER432      0.2020
    131  C          0.7110   -7.7390   61.2590 C.2   432  SER432      0.2618
    132  O          1.2400   -8.8490   61.1210 O.2   432  SER432     -0.2717
    133  CB         2.3570   -6.0890   60.3290 C.3   432  SER432      0.2103
    134  OG         2.4970   -5.3900   61.5530 O.3   432  SER432     -0.2182
    135  N         -0.0590   -7.4350   62.3070 N.am  433  LEU433     -0.1979
    136  CA        -0.3430   -8.4140   63.3690 C.3   433  LEU433      0.1596
    137  C         -1.7950   -8.8810   63.4180 C.2   433  LEU433      0.2287
    138  O         -2.7050   -8.1260   63.0870 O.2   433  LEU433     -0.2864
    139  CB         0.0090   -7.8410   64.7430 C.3   433  LEU433      0.0297
    140  CG         1.4540   -7.4300   65.0020 C.3   433  LEU433      0.0022
    141  CD1        1.6090   -6.9710   66.4440 C.3   433  LEU433      0.0001
    142  CD2        2.3910   -8.5720   64.6900 C.3   433  LEU433      0.0001
    143  N         15.2060   -9.3330   65.0680 N.3   568  GLN568     -0.1245
    144  CA        13.9450   -9.5000   64.3340 C.3   568  GLN568      0.1566
    145  C         14.1130   -9.8950   62.8800 C.2   568  GLN568      0.2260
    146  O         13.2180  -10.4950   62.2910 O.2   568  GLN568     -0.2867
    147  CB        13.1160   -8.2240   64.3780 C.3   568  GLN568      0.0367
    148  CG        12.4260   -7.9620   65.7000 C.3   568  GLN568      0.0905
    149  CD        11.5580   -6.7260   65.6100 C.2   568  GLN568      0.2608
    150  OE1       10.3560   -6.8280   65.4350 O.2   568  GLN568     -0.2717
    151  NE2       12.1770   -5.5500   65.6800 N.am  568  GLN568     -0.0878
    152  N         11.9780  -12.9400   61.7860 N.3   572  TYR572     -0.1241
    153  CA        10.7700  -12.6790   61.0140 C.3   572  TYR572      0.1605
    154  C         11.0230  -12.5740   59.5110 C.2   572  TYR572      0.2264
    155  O         10.0770  -12.5640   58.7340 O.2   572  TYR572     -0.2867
    156  CB        10.1090  -11.3850   61.4810 C.3   572  TYR572      0.0534
    157  CG         9.4830  -11.4120   62.8580 C.ar  572  TYR572     -0.0201
    158  CD1        8.3340  -12.1620   63.1110 C.ar  572  TYR572     -0.0009
    159  CD2       10.0140  -10.6530   63.8950 C.ar  572  TYR572     -0.0009
    160  CE1        7.7460  -12.1710   64.3700 C.ar  572  TYR572      0.0417
    161  CE2        9.4390  -10.6550   65.1550 C.ar  572  TYR572      0.0417
    162  CZ         8.3050  -11.4130   65.3850 C.ar  572  TYR572      0.1957
    163  OH         7.7380  -11.4060   66.6330 O.3   572  TYR572     -0.2866
    164  N          2.9760  -13.7820   61.8560 N.3   580  ALA580     -0.1245
    165  CA         2.4340  -12.8180   62.8100 C.3   580  ALA580      0.1562
    166  C          0.9280  -12.6290   62.6030 C.2   580  ALA580      0.2260
    167  O          0.2460  -11.9670   63.3930 O.2   580  ALA580     -0.2867
    168  CB         3.1680  -11.4870   62.6810 C.3   580  ALA580      0.0290
    169  N          5.2360   -7.2470   56.9430 N.3   611  ALA611     -0.1245
    170  CA         5.9670   -7.6260   58.1500 C.3   611  ALA611      0.1562
    171  C          7.4680   -7.4480   57.9290 C.2   611  ALA611      0.2260
    172  O          8.1850   -6.9550   58.7890 O.2   611  ALA611     -0.2867
    173  CB         5.6530   -9.0630   58.5430 C.3   611  ALA611      0.0290
    174  N          8.4080   -3.7430   57.8610 N.3   614  THR614     -0.1203
    175  CA         8.4350   -3.2160   59.2220 C.3   614  THR614      0.1994
    176  C          9.7270   -3.6100   59.9330 C.2   614  THR614      0.2617
    177  O         10.3960   -2.7830   60.5610 O.2   614  THR614     -0.2717
    178  CB         7.2380   -3.7210   60.0200 C.3   614  THR614      0.1784
    179  OG1        6.0400   -3.3460   59.3330 O.3   614  THR614     -0.2211
    180  CG2        7.2390   -3.1150   61.4260 C.3   614  THR614      0.0376
    181  N         10.0920   -4.8790   59.8070 N.am  615  VAL615     -0.1979
    182  CA        11.3110   -5.3740   60.4320 C.3   615  VAL615      0.1595
    183  C         12.5560   -4.6600   59.8760 C.2   615  VAL615      0.2287
    184  O         13.4520   -4.2910   60.6320 O.2   615  VAL615     -0.2864
    185  CB        11.4190   -6.9050   60.2570 C.3   615  VAL615      0.0276
    186  CG1       12.8150   -7.3780   60.5250 C.3   615  VAL615      0.0022
    187  CG2       10.4120   -7.5970   61.2020 C.3   615  VAL615      0.0022
    188  N         12.7130   -1.6140   58.7670 N.3   617  ILE617     -0.1231
    189  CA        12.7180   -0.3010   59.4100 C.3   617  ILE617      0.1692
    190  C         13.1190   -0.3490   60.8880 C.2   617  ILE617      0.2591
    191  O         13.9100    0.4710   61.3590 O.2   617  ILE617     -0.2718
    192  CB        11.3280    0.3700   59.2890 C.3   617  ILE617      0.0266
    193  CG1       11.0080    0.6440   57.8130 C.3   617  ILE617      0.0019
    194  CG2       11.2730    1.6780   60.1070 C.3   617  ILE617      0.0020
    195  CD1        9.5340    0.8780   57.5290 C.3   617  ILE617      0.0001
    196  N         12.5680   -1.3040   61.6260 N.am  618  LEU618     -0.1980
    197  CA        12.7900   -1.3630   63.0640 C.3   618  LEU618      0.1596
    198  C         14.2030   -1.8120   63.4350 C.2   618  LEU618      0.2287
    199  O         14.6380   -1.6160   64.5680 O.2   618  LEU618     -0.2864
    200  CB        11.7740   -2.3070   63.7190 C.3   618  LEU618      0.0297
    201  CG        10.3050   -1.8660   63.6900 C.3   618  LEU618      0.0022
    202  CD1        9.4510   -2.7670   64.5660 C.3   618  LEU618      0.0001
    203  CD2       10.1780   -0.4150   64.1350 C.3   618  LEU618      0.0001
    204  N         14.7860    2.8880   68.2200 N.3   684  ILE684     -0.1245
    205  CA        14.1820    2.4200   66.9790 C.3   684  ILE684      0.1561
    206  C         13.3170    1.2390   67.3310 C.2   684  ILE684      0.2260
    207  O         13.4950    0.7150   68.4300 O.2   684  ILE684     -0.2867
    208  CB        15.2460    2.0340   65.9290 C.3   684  ILE684      0.0252
    209  CG1       14.5900    1.7470   64.5640 C.3   684  ILE684      0.0019
    210  CG2       16.0600    0.8420   66.4160 C.3   684  ILE684      0.0019
    211  CD1       13.7960    2.9330   63.9820 C.3   684  ILE684      0.0001
@<TRIPOS>BOND
     1    16    15    2
     2    15    14    1
     3    14    13    1
     4    14    17    1
     5    17    18    1
     6    22    21    1
     7   169   170    1
     8    18    19    1
     9   195   193    1
    10    21    23    1
    11    21    20    2
    12   193   192    1
    13   174   175    1
    14   171   170    1
    15   171   172    2
    16     4     3    2
    17    19    20    1
    18   170   173    1
    19     3     2    1
    20   155   154    2
    21   188   189    1
    22   121   119    1
    23   175   176    1
    24   175   178    1
    25   192   189    1
    26   192   194    1
    27   179   178    1
    28   189   190    1
    29   154   153    1
    30     1     2    1
    31     2     5    1
    32   181   176   am
    33   181   182    1
    34   183   182    1
    35   183   184    2
    36   176   177    2
    37   178   180    1
    38   104   103   ar
    39   129   130    1
    40   130   133    1
    41   130   131    1
    42   185   182    1
    43   185   186    1
    44   185   187    1
    45   133   134    1
    46   119   118    1
    47   190   191    2
    48   190   196   am
    49     8    10   ar
    50     8     6   ar
    51   103   105   ar
    52   103   102    1
    53     5     6    1
    54   153   156    1
    55   153   152    1
    56    10    11   ar
    57     6     7   ar
    58   132   131    2
    59   117   116    2
    60   115   114    1
    61   115   118    1
    62   115   116    1
    63   131   135   am
    64   120   118    1
    65    11    12    1
    66    11     9   ar
    67     7     9   ar
    68   156   157    1
    69   196   197    1
    70   116   122   am
    71   164   165    1
    72   102   101    1
    73   146   145    2
    74   135   136    1
    75   100    99    2
    76   101    98    1
    77   166   165    1
    78   166   167    2
    79   168   165    1
    80   157   158   ar
    81   157   159   ar
    82   145   144    1
    83   125   124    2
    84    98    99    1
    85    98    97    1
    86   197   198    1
    87   197   200    1
    88   138   137    2
    89   122   123    1
    90   158   160   ar
    91   124   123    1
    92    99   106   am
    93   136   137    1
    94   136   139    1
    95   198   199    2
    96   201   200    1
    97   201   203    1
    98   201   202    1
    99   123   126    1
   100   159   161   ar
   101   211   209    1
   102    91    89    1
   103   144   147    1
   104   144   143    1
   105   160   162   ar
   106   147   148    1
   107   106   107    1
   108   209   208    1
   109   142   140    1
   110   139   140    1
   111   109   108    2
   112   107   108    1
   113   107   110    1
   114    92    90    1
   115   140   141    1
   116   112   111    1
   117   161   162   ar
   118   126   127    1
   119   126   128    1
   120   162   163    1
   121    90    89    1
   122   150   149    2
   123    89    86    1
   124   149   151   am
   125   149   148    1
   126    88    87    2
   127    32    30   am
   128   110   111    1
   129   208   210    1
   130   208   205    1
   131    76    74    1
   132   111   113    1
   133    86    87    1
   134    86    85    1
   135    87    93   am
   136    30    29    1
   137    30    31    2
   138   205   206    1
   139   205   204    1
   140    29    28    1
   141    93    94    1
   142    96    95    2
   143    94    95    1
   144   206   207    2
   145    74    73    1
   146    28    25    1
   147    72    71    2
   148    70    73    1
   149    70    71    1
   150    70    69    1
   151    73    75    1
   152    49    47   ar
   153    49    50   ar
   154    71    77   am
   155    47    46   ar
   156    25    24    1
   157    25    26    1
   158    50    48   ar
   159    40    38    1
   160    39    38    1
   161    80    79    2
   162    38    37    1
   163    77    78    1
   164    46    48   ar
   165    46    45    1
   166    26    27    2
   167    26    33   am
   168    79    78    1
   169    67    68   ar
   170    67    65   ar
   171    68    66   ar
   172    78    81    1
   173    58    56    1
   174    33    34    1
   175    45    42    1
   176    57    56    1
   177    65    64   ar
   178    66    64   ar
   179    55    56    1
   180    55    52    1
   181    37    34    1
   182    34    35    1
   183    83    82   ar
   184    64    63    1
   185    81    82    1
   186    51    52    1
   187    51    43   am
   188    52    53    1
   189    42    43    1
   190    42    41    1
   191    82    84   ar
   192    43    44    2
   193    35    36    2
   194    63    60    1
   195    53    54    2
   196    60    59    1
   197    60    61    1
   198    61    62    2
