@<TRIPOS>MOLECULE
tmp/4qwuV00.pdb
 115 107 0 0 0
SMALL
GASTEIGER

@<TRIPOS>ATOM
      1  N          4.9340 -158.9730   43.8940 N.3     1  THR1       -0.1218
      2  CA         4.3000 -160.2190   44.4100 C.3     1  THR1        0.1862
      3  C          4.2360 -160.1220   45.9220 C.2     1  THR1        0.2287
      4  O          5.1820 -159.6670   46.5610 O.2     1  THR1       -0.2866
      5  CB         5.1230 -161.4480   44.0200 C.3     1  THR1        0.1770
      6  OG1        4.9450 -161.6510   42.6240 O.3     1  THR1       -0.2211
      7  CG2        4.6490 -162.7210   44.7330 C.3     1  THR1        0.0375
      8  N         -1.0550 -161.2890   40.6750 N.3    19  ARG19      -0.1231
      9  CA        -0.5510 -160.3780   39.6400 C.3    19  ARG19       0.1694
     10  C          0.8480 -160.7730   39.1610 C.2    19  ARG19       0.2593
     11  O          1.7560 -160.9760   39.9660 O.2    19  ARG19      -0.2718
     12  CB        -0.5290 -158.9300   40.1470 C.3    19  ARG19       0.0321
     13  CG         0.0370 -157.9350   39.1380 C.3    19  ARG19       0.0489
     14  CD         0.0430 -156.5080   39.6620 C.3    19  ARG19       0.2205
     15  NE        -1.2900 -155.9100   39.6660 N.pl3  19  ARG19      -0.0865
     16  CZ        -1.5590 -154.6540   40.0200 C.cat  19  ARG19       0.5346
     17  NH1       -0.5880 -153.8330   40.4140 N.pl3  19  ARG19       0.1354
     18  NH2       -2.8110 -154.2120   39.9830 N.pl3  19  ARG19       0.1354
     19  N          1.0080 -160.8660   37.8430 N.am   20  SER20      -0.1938
     20  CA         2.3100 -161.0850   37.2160 C.3    20  SER20       0.2055
     21  C          2.6420 -159.8680   36.3570 C.2    20  SER20       0.2644
     22  O          1.8050 -159.4210   35.5700 O.2    20  SER20      -0.2714
     23  CB         2.2740 -162.3480   36.3540 C.3    20  SER20       0.2130
     24  OG         3.5180 -162.5750   35.7120 O.3    20  SER20      -0.2179
     25  N          3.8530 -159.3330   36.5030 N.am   21  THR21      -0.1936
     26  CA         4.2180 -158.0880   35.8240 C.3    21  THR21       0.2028
     27  C          5.4990 -158.1830   35.0060 C.2    21  THR21       0.2642
     28  O          6.4520 -158.8560   35.3930 O.2    21  THR21      -0.2714
     29  CB         4.3910 -156.9290   36.8210 C.3    21  THR21       0.1808
     30  OG1        5.3810 -157.2710   37.7960 O.3    21  THR21      -0.2208
     31  CG2        3.0820 -156.6280   37.5170 C.3    21  THR21       0.0379
     32  N          5.4980 -157.4890   33.8710 N.am   22  GLN22      -0.1963
     33  CA         6.6840 -157.3130   33.0440 C.3    22  GLN22       0.1733
     34  C          6.9430 -155.8150   32.9400 C.2    22  GLN22       0.2616
     35  O          6.3520 -155.1240   32.1070 O.2    22  GLN22      -0.2715
     36  CB         6.4770 -157.9420   31.6600 C.3    22  GLN22       0.0408
     37  CG         7.5190 -157.5790   30.6020 C.3    22  GLN22       0.0908
     38  CD         8.7870 -158.4100   30.6850 C.2    22  GLN22       0.2608
     39  OE1        9.1280 -159.1260   29.7410 O.2    22  GLN22      -0.2717
     40  NE2        9.4960 -158.3140   31.8070 N.am   22  GLN22      -0.0878
     41  N          7.8260 -155.3200   33.8000 N.am   23  GLY23      -0.1955
     42  CA         8.0510 -153.8880   33.9320 C.3    23  GLY23       0.1869
     43  C          6.8550 -153.2620   34.6310 C.2    23  GLY23       0.2309
     44  O          6.4670 -153.7150   35.7100 O.2    23  GLY23      -0.2863
     45  N          1.1790 -158.6350   33.0720 N.3    27  ALA27      -0.1245
     46  CA         1.1850 -159.7300   32.0990 C.3    27  ALA27       0.1562
     47  C         -0.0050 -160.6620   32.3100 C.2    27  ALA27       0.2260
     48  O         -0.6850 -161.0350   31.3520 O.2    27  ALA27      -0.2867
     49  CB         2.4870 -160.5100   32.1880 C.3    27  ALA27       0.0290
     50  N         -2.7970 -164.7810   37.9660 N.3    31  CYS31      -0.1235
     51  CA        -1.6800 -165.7180   37.9950 C.3    31  CYS31       0.1677
     52  C         -1.7960 -166.6610   39.1900 C.2    31  CYS31       0.2270
     53  O         -2.2980 -166.2740   40.2450 O.2    31  CYS31      -0.2867
     54  CB        -0.3620 -164.9450   38.0680 C.3    31  CYS31       0.0956
     55  SG         1.1160 -165.9650   37.8830 S.3    31  CYS31      -0.0801
     56  N          0.1990 -168.4780   41.8870 N.3    33  LYS33      -0.1245
     57  CA         1.5040 -168.4630   42.5560 C.3    33  LYS33       0.1561
     58  C          1.6650 -169.5530   43.6180 C.2    33  LYS33       0.2260
     59  O          2.7630 -169.7520   44.1380 O.2    33  LYS33      -0.2867
     60  CB         1.7510 -167.0890   43.1770 C.3    33  LYS33       0.0271
     61  CG         1.5880 -165.9530   42.1830 C.3    33  LYS33       0.0035
     62  CD         2.1090 -164.6400   42.7330 C.3    33  LYS33       0.0206
     63  CE         1.6550 -163.4730   41.8730 C.3    33  LYS33       0.1093
     64  NZ         2.2950 -162.2030   42.3060 N.3    33  LYS33      -0.1314
     65  N          1.9970 -173.2980   44.3840 N.3    35  HIS35      -0.1241
     66  CA         2.3970 -174.5080   43.6700 C.3    35  HIS35       0.1621
     67  C          2.3460 -175.7300   44.5800 C.2    35  HIS35       0.2264
     68  O          2.6820 -175.6460   45.7620 O.2    35  HIS35      -0.2867
     69  CB         3.8140 -174.3570   43.1210 C.3    35  HIS35       0.0745
     70  CG         4.0380 -173.1040   42.3360 C.ar   35  HIS35       0.0817
     71  ND1        3.7270 -173.0000   40.9970 N.ar   35  HIS35      -0.2268
     72  CD2        4.5610 -171.9080   42.6950 C.ar   35  HIS35       0.1154
     73  CE1        4.0390 -171.7890   40.5690 C.ar   35  HIS35       0.1986
     74  NE2        4.5460 -171.1070   41.5790 N.ar   35  HIS35      -0.2212
     75  N          5.4420 -168.9100   45.5210 N.3    45  GLY45      -0.1210
     76  CA         6.6520 -168.4910   44.8100 C.3    45  GLY45       0.1956
     77  C          6.6320 -167.0510   44.3360 C.2    45  GLY45       0.2612
     78  O          5.6210 -166.5740   43.8180 O.2    45  GLY45      -0.2717
     79  N          7.7630 -166.3690   44.5160 N.am   46  ALA46      -0.1965
     80  CA         7.9520 -164.9950   44.0570 C.3    46  ALA46       0.1728
     81  C          9.2250 -164.8990   43.2220 C.2    46  ALA46       0.2617
     82  O         10.0550 -165.8110   43.2370 O.2    46  ALA46      -0.2715
     83  CB         8.0360 -164.0530   45.2450 C.3    46  ALA46       0.0334
     84  N          9.3770 -163.7880   42.5050 N.am   47  GLY47      -0.1940
     85  CA        10.5550 -163.5540   41.6650 C.3    47  GLY47       0.2014
     86  C         10.2680 -163.8700   40.2100 C.2    47  GLY47       0.2640
     87  O          9.2410 -163.4540   39.6760 O.2    47  GLY47      -0.2714
     88  N         11.1750 -164.6070   39.5700 N.am   48  THR48      -0.1936
     89  CA        11.0100 -165.0080   38.1700 C.3    48  THR48       0.2028
     90  C         10.0160 -166.1700   38.0660 C.2    48  THR48       0.2642
     91  O         10.2210 -167.2300   38.6570 O.2    48  THR48      -0.2714
     92  CB        12.3590 -165.4090   37.5450 C.3    48  THR48       0.1808
     93  OG1       13.3050 -164.3480   37.7350 O.3    48  THR48      -0.2208
     94  CG2       12.2140 -165.6860   36.0530 C.3    48  THR48       0.0379
     95  N          8.9540 -165.9580   37.2930 N.am   49  ALA49      -0.1963
     96  CA         7.8040 -166.8700   37.2430 C.3    49  ALA49       0.1728
     97  C          8.1450 -168.2660   36.7490 C.2    49  ALA49       0.2616
     98  O          7.7250 -169.2600   37.3460 O.2    49  ALA49      -0.2715
     99  CB         6.7070 -166.2730   36.3760 C.3    49  ALA49       0.0334
    100  N          8.8910 -168.3380   35.6510 N.am   50  ALA50      -0.1977
    101  CA         9.3020 -169.6210   35.0900 C.3    50  ALA50       0.1597
    102  C         10.1130 -170.4260   36.1000 C.2    50  ALA50       0.2287
    103  O          9.9340 -171.6390   36.2180 O.2    50  ALA50      -0.2864
    104  CB        10.1070 -169.4100   33.8210 C.3    50  ALA50       0.0319
    105  N         10.1760 -170.2320   39.5680 N.3    52  THR52      -0.1218
    106  CA         9.3670 -170.7320   40.6860 C.3    52  THR52       0.1862
    107  C          8.5480 -171.9450   40.2620 C.2    52  THR52       0.2287
    108  O          8.4080 -172.9020   41.0230 O.2    52  THR52      -0.2866
    109  CB         8.4000 -169.6690   41.2480 C.3    52  THR52       0.1770
    110  OG1        7.5060 -169.2300   40.2180 O.3    52  THR52      -0.2211
    111  CG2        9.1690 -168.4800   41.8150 C.3    52  THR52       0.0375
    112  N          3.5830 -153.8970   42.5820 N.3   168  GLY168     -0.1225
    113  CA         4.0020 -155.2150   42.1130 C.3   168  GLY168      0.1811
    114  C          3.0000 -156.3170   42.4100 C.2   168  GLY168      0.2280
    115  O          3.0830 -157.4020   41.8320 O.2   168  GLY168     -0.2866
@<TRIPOS>BOND
     1    39    38    2
     2    37    38    1
     3    37    36    1
     4    38    40   am
     5    48    47    2
     6    36    33    1
     7    46    49    1
     8    46    47    1
     9    46    45    1
    10    35    34    2
    11    34    33    1
    12    34    41   am
    13    33    32    1
    14    41    42    1
    15   104   101    1
    16    32    27   am
    17    42    43    1
    18    43    44    2
    19    27    28    2
    20    27    26    1
    21   101   100    1
    22   101   102    1
    23    22    21    2
    24   100    97   am
    25    24    23    1
    26    26    25    1
    27    26    29    1
    28    94    92    1
    29   102   103    2
    30    23    20    1
    31    21    25   am
    32    21    20    1
    33    99    96    1
    34    97    96    1
    35    97    98    2
    36    29    31    1
    37    29    30    1
    38    20    19    1
    39    96    95    1
    40    95    90   am
    41    92    93    1
    42    92    89    1
    43    19    10   am
    44    55    54    1
    45    50    51    1
    46    51    54    1
    47    51    52    1
    48    90    89    1
    49    90    91    2
    50    89    88    1
    51    13    14    1
    52    13    12    1
    53    10     9    1
    54    10    11    2
    55    52    53    2
    56   105   106    1
    57    88    86   am
    58     9    12    1
    59     9     8    1
    60    14    15    1
    61    15    16    2
    62    87    86    2
    63    18    16    1
    64    16    17    1
    65    86    85    1
    66   110   109    1
    67   107   106    1
    68   107   108    2
    69    73    71   ar
    70    73    74   ar
    71   106   109    1
    72    71    70   ar
    73   109   111    1
    74    74    72   ar
    75    85    84    1
    76   115   114    2
    77    63    64    1
    78    63    62    1
    79    56    57    1
    80   113   114    1
    81   113   112    1
    82    61    62    1
    83    61    60    1
    84    70    72   ar
    85    70    69    1
    86    84    81   am
    87    57    60    1
    88    57    58    1
    89     6     5    1
    90    69    66    1
    91    81    82    2
    92    81    80    1
    93    58    59    2
    94    66    65    1
    95    66    67    1
    96    78    77    2
    97     1     2    1
    98     5     2    1
    99     5     7    1
   100    80    79    1
   101    80    83    1
   102    77    79   am
   103    77    76    1
   104     2     3    1
   105    67    68    2
   106    76    75    1
   107     3     4    2
