@<TRIPOS>MOLECULE
tmp/4qwwB00.pdb
 81 78 0 0 0
SMALL
GASTEIGER

@<TRIPOS>ATOM
      1  N          1.0060  -79.1880  -14.2840 N.3   283  LYS283     -0.1245
      2  CA         2.2060  -79.9560  -14.6240 C.3   283  LYS283      0.1561
      3  C          3.3020  -78.9750  -14.1920 C.2   283  LYS283      0.2260
      4  O          3.3780  -77.8700  -14.7330 O.2   283  LYS283     -0.2867
      5  CB         2.2690  -80.2230  -16.1390 C.3   283  LYS283      0.0271
      6  CG         3.0710  -81.4720  -16.5160 C.3   283  LYS283      0.0035
      7  CD         2.8640  -81.9260  -17.9670 C.3   283  LYS283      0.0206
      8  CE         3.4130  -83.3310  -18.2170 C.3   283  LYS283      0.1093
      9  NZ         2.5160  -84.2020  -19.0590 N.3   283  LYS283     -0.1314
     10  N         15.6300  -82.2850  -13.3140 N.3   331  ILE331     -0.1245
     11  CA        15.6840  -83.7140  -13.6360 C.3   331  ILE331      0.1561
     12  C         14.4880  -84.5260  -13.0830 C.2   331  ILE331      0.2260
     13  O         14.4320  -85.7490  -13.2340 O.2   331  ILE331     -0.2867
     14  CB        17.0550  -84.3020  -13.2020 C.3   331  ILE331      0.0252
     15  CG1       17.3000  -84.2570  -11.6770 C.3   331  ILE331      0.0019
     16  CG2       18.1840  -83.6440  -13.9480 C.3   331  ILE331      0.0019
     17  CD1       18.4700  -85.1830  -11.1890 C.3   331  ILE331      0.0001
     18  N         11.1300  -83.8590  -13.9350 N.3   333  GLY333     -0.1210
     19  CA         9.9870  -83.4200  -14.7150 C.3   333  GLY333      0.1956
     20  C         10.2270  -82.7370  -16.0340 C.2   333  GLY333      0.2612
     21  O          9.5450  -83.0620  -17.0100 O.2   333  GLY333     -0.2717
     22  N         11.1320  -81.7340  -16.0620 N.am  334  LEU334     -0.1966
     23  CA        11.3860  -80.9260  -17.2430 C.3   334  LEU334      0.1713
     24  C         11.8350  -81.7590  -18.4130 C.2   334  LEU334      0.2458
     25  O         12.6410  -82.6680  -18.2280 O.2   334  LEU334     -0.2730
     26  CB        12.3450  -79.7640  -16.9510 C.3   334  LEU334      0.0310
     27  CG        11.9160  -78.7380  -15.8720 C.3   334  LEU334      0.0022
     28  CD1       12.7890  -77.5180  -15.9290 C.3   334  LEU334      0.0001
     29  CD2       10.4830  -78.2850  -16.0480 C.3   334  LEU334      0.0001
     30  N         11.2390  -81.5320  -19.6020 N.am  335  PRO335     -0.2716
     31  CA        11.5750  -82.3670  -20.7670 C.3   335  PRO335      0.1536
     32  C         13.0140  -82.2540  -21.2350 C.2   335  PRO335      0.2599
     33  O         13.5440  -81.1490  -21.3520 O.2   335  PRO335     -0.2715
     34  CB        10.5880  -81.8980  -21.8400 C.3   335  PRO335      0.0310
     35  CG        10.2360  -80.5070  -21.4530 C.3   335  PRO335      0.0237
     36  CD        10.2340  -80.5030  -19.9530 C.3   335  PRO335      0.0939
     37  N         13.6260  -83.4110  -21.4650 N.am  336  GLY336     -0.1941
     38  CA        14.9950  -83.5330  -21.9590 C.3   336  GLY336      0.2014
     39  C         16.1050  -83.5080  -20.9320 C.2   336  GLY336      0.2639
     40  O         17.2790  -83.5730  -21.2990 O.2   336  GLY336     -0.2714
     41  N         15.7490  -83.4170  -19.6520 N.am  337  PHE337     -0.1959
     42  CA        16.6860  -83.3510  -18.5450 C.3   337  PHE337      0.1771
     43  C         16.9630  -84.6840  -17.9240 C.2   337  PHE337      0.2620
     44  O         16.0480  -85.4630  -17.6650 O.2   337  PHE337     -0.2715
     45  CB        16.1800  -82.3930  -17.4690 C.3   337  PHE337      0.0574
     46  CG        16.5000  -80.9550  -17.7680 C.ar  337  PHE337     -0.0200
     47  CD1       17.7300  -80.4110  -17.4210 C.ar  337  PHE337     -0.0042
     48  CD2       15.5720  -80.1380  -18.3910 C.ar  337  PHE337     -0.0042
     49  CE1       18.0300  -79.0900  -17.7120 C.ar  337  PHE337     -0.0003
     50  CE2       15.8650  -78.7980  -18.6470 C.ar  337  PHE337     -0.0003
     51  CZ        17.0860  -78.2800  -18.2950 C.ar  337  PHE337     -0.0000
     52  N         18.2430  -84.9310  -17.6530 N.am  338  SER338     -0.1950
     53  CA        18.7570  -86.1020  -16.9470 C.3   338  SER338      0.1924
     54  C         20.1330  -85.7900  -16.3220 C.2   338  SER338      0.2314
     55  O         20.8860  -84.9360  -16.8330 O.2   338  SER338     -0.2863
     56  CB        18.8550  -87.3060  -17.8750 C.3   338  SER338      0.2116
     57  OG        19.4000  -88.4140  -17.1810 O.3   338  SER338     -0.2180
     58  N         22.0490  -88.1850  -16.2710 N.3   340  ASP340     -0.1225
     59  CA        22.7590  -89.2060  -17.0260 C.3   340  ASP340      0.1805
     60  C         23.0700  -88.8010  -18.4490 C.2   340  ASP340      0.2597
     61  O         23.5370  -89.6220  -19.2300 O.2   340  ASP340     -0.2718
     62  CB        22.0240  -90.5410  -16.9380 C.3   340  ASP340      0.1424
     63  CG        22.1010  -91.0830  -15.5270 C.2   340  ASP340      0.3668
     64  OD1       23.1430  -90.8720  -14.8750 O.co2 340  ASP340     -0.2456
     65  OD2       21.1020  -91.6720  -15.0610 O.co2 340  ASP340     -0.2456
     66  N         22.9230  -87.5150  -18.7460 N.am  341  ASN341     -0.1974
     67  CA        23.2600  -86.9210  -20.0300 C.3   341  ASN341      0.1688
     68  C         23.5440  -85.4270  -19.8250 C.2   341  ASN341      0.2292
     69  O         23.4840  -84.9350  -18.7010 O.2   341  ASN341     -0.2864
     70  CB        22.2480  -87.2630  -21.1680 C.3   341  ASN341      0.1181
     71  CG        20.8320  -86.6770  -21.2030 C.2   341  ASN341      0.2629
     72  OD1       20.5420  -85.5520  -20.7630 O.2   341  ASN341     -0.2716
     73  ND2       19.9690  -87.4760  -21.8360 N.am  341  ASN341     -0.0877
     74  N          6.3770  -75.0210  -17.0300 N.3   356  MET356     -0.1245
     75  CA         6.3560  -75.8660  -15.8280 C.3   356  MET356      0.1570
     76  C          6.9800  -75.1740  -14.6010 C.2   356  MET356      0.2261
     77  O          6.7130  -75.5920  -13.4740 O.2   356  MET356     -0.2867
     78  CB         7.0410  -77.2200  -16.0700 C.3   356  MET356      0.0387
     79  CG         6.3100  -78.1160  -17.0350 C.3   356  MET356      0.0595
     80  SD         7.1350  -79.7110  -17.2280 S.3   356  MET356     -0.1393
     81  CE         6.4790  -80.2190  -18.7890 C.3   356  MET356      0.0692
@<TRIPOS>BOND
     1    38    37    1
     2    38    39    1
     3    34    35    1
     4    34    31    1
     5    73    71   am
     6    37    32   am
     7    35    36    1
     8    33    32    2
     9    40    39    2
    10    32    31    1
    11    71    70    1
    12    71    72    2
    13    70    67    1
    14    39    41   am
    15    31    30    1
    16    67    68    1
    17    67    66    1
    18    36    30    1
    19    68    69    2
    20    41    42    1
    21    30    24   am
    22    61    60    2
    23     9     8    1
    24    81    80    1
    25    66    60   am
    26    50    48   ar
    27    50    51   ar
    28    42    43    1
    29    42    45    1
    30    60    59    1
    31    24    25    2
    32    24    23    1
    33    48    46   ar
    34    51    49   ar
    35     8     7    1
    36     7     6    1
    37    43    44    2
    38    43    52   am
    39    56    57    1
    40    56    53    1
    41    46    45    1
    42    46    47   ar
    43    49    47   ar
    44    52    53    1
    45    23    26    1
    46    23    22    1
    47    80    79    1
    48    79    78    1
    49    74    75    1
    50    59    62    1
    51    59    58    1
    52    21    20    2
    53    26    27    1
    54    53    54    1
    55    62    63    1
    56    55    54    2
    57     6     5    1
    58     5     2    1
    59    78    75    1
    60    22    20   am
    61    29    27    1
    62    20    19    1
    63    28    27    1
    64    75    76    1
    65    63    65   ar
    66    63    64   ar
    67     4     3    2
    68    19    18    1
    69     2     1    1
    70     2     3    1
    71    76    77    2
    72    16    14    1
    73    11    10    1
    74    11    14    1
    75    11    12    1
    76    13    12    2
    77    14    15    1
    78    15    17    1
