@<TRIPOS>MOLECULE
tmp/4qwwD00.pdb
 88 86 0 0 0
SMALL
GASTEIGER

@<TRIPOS>ATOM
      1  N         20.0160 -104.8700  -19.4220 N.3    47  TRP47      -0.1241
      2  CA        18.7970 -104.2000  -18.9730 C.3    47  TRP47       0.1605
      3  C         18.0220 -103.6820  -20.2020 C.2    47  TRP47       0.2264
      4  O         18.6630 -103.2040  -21.1370 O.2    47  TRP47      -0.2867
      5  CB        19.1620 -103.0510  -18.0350 C.3    47  TRP47       0.0550
      6  CG        17.9920 -102.2120  -17.6600 C.ar   47  TRP47       0.0003
      7  CD1       16.9220 -102.5850  -16.9050 C.ar   47  TRP47       0.0946
      8  CD2       17.7550 -100.8580  -18.0590 C.ar   47  TRP47       0.0152
      9  NE1       16.0190 -101.5530  -16.8290 N.ar   47  TRP47      -0.2442
     10  CE2       16.5230 -100.4680  -17.5000 C.ar   47  TRP47       0.0810
     11  CE3       18.4660  -99.9300  -18.8420 C.ar   47  TRP47       0.0012
     12  CZ2       16.0070  -99.1820  -17.6670 C.ar   47  TRP47       0.0191
     13  CZ3       17.9680  -98.6560  -18.9860 C.ar   47  TRP47       0.0001
     14  CH2       16.7530  -98.2880  -18.4030 C.ar   47  TRP47       0.0015
     15  N          6.5580  -93.6260  -15.1000 N.3    59  ALA59      -0.1231
     16  CA         7.7830  -93.1710  -15.7420 C.3    59  ALA59       0.1694
     17  C          8.6180  -94.3070  -16.3140 C.2    59  ALA59       0.2593
     18  O          9.1190  -95.1520  -15.5700 O.2    59  ALA59      -0.2718
     19  CB         8.5980  -92.3170  -14.7790 C.3    59  ALA59       0.0304
     20  N          8.7370  -94.3370  -17.6540 N.am   60  THR60      -0.1939
     21  CA         9.4790  -95.3590  -18.3950 C.3    60  THR60       0.2028
     22  C         10.8550  -94.8440  -18.7940 C.2    60  THR60       0.2642
     23  O         10.9750  -93.6740  -19.1710 O.2    60  THR60      -0.2714
     24  CB         8.6720  -95.8610  -19.6010 C.3    60  THR60       0.1808
     25  OG1        8.5190  -94.8200  -20.5510 O.3    60  THR60      -0.2208
     26  CG2        7.2980  -96.3460  -19.2290 C.3    60  THR60       0.0379
     27  N         11.8990  -95.7100  -18.6700 N.am   61  HIS61      -0.1959
     28  CA        13.3190  -95.4770  -18.9940 C.3    61  HIS61       0.1787
     29  C         13.7530  -96.6650  -19.8040 C.2    61  HIS61       0.2620
     30  O         13.4070  -97.8000  -19.4430 O.2    61  HIS61      -0.2715
     31  CB        14.1790  -95.4010  -17.7230 C.3    61  HIS61       0.0785
     32  CG        13.9560  -94.1460  -16.9510 C.ar   61  HIS61       0.0821
     33  ND1       12.7670  -93.9120  -16.2770 N.ar   61  HIS61      -0.2267
     34  CD2       14.7720  -93.0880  -16.7750 C.ar   61  HIS61       0.1154
     35  CE1       12.8950  -92.7150  -15.7380 C.ar   61  HIS61       0.1986
     36  NE2       14.0920  -92.1900  -15.9990 N.ar   61  HIS61      -0.2212
     37  N         14.5170  -96.4110  -20.8960 N.am   62  TYR62      -0.1974
     38  CA        14.9560  -97.4380  -21.8310 C.3    62  TYR62       0.1639
     39  C         16.4430  -97.4900  -22.0440 C.2    62  TYR62       0.2290
     40  O         17.1230  -96.4590  -21.9230 O.2    62  TYR62      -0.2864
     41  CB        14.2790  -97.2000  -23.1880 C.3    62  TYR62       0.0560
     42  CG        12.7660  -97.2730  -23.1430 C.ar   62  TYR62      -0.0198
     43  CD1       12.0040  -96.1470  -22.8390 C.ar   62  TYR62      -0.0009
     44  CD2       12.0980  -98.4700  -23.3840 C.ar   62  TYR62      -0.0009
     45  CE1       10.6200  -96.2020  -22.7870 C.ar   62  TYR62       0.0417
     46  CE2       10.7060  -98.5410  -23.3250 C.ar   62  TYR62       0.0417
     47  CZ         9.9710  -97.3960  -23.0430 C.ar   62  TYR62       0.1957
     48  OH         8.6020  -97.4120  -22.9770 O.3    62  TYR62      -0.2866
     49  N         19.4850  -97.4970  -24.4670 N.3    64  ASP64      -0.1239
     50  CA        19.6130  -96.7130  -25.7050 C.3    64  ASP64       0.1674
     51  C         19.4090  -97.5360  -26.9870 C.2    64  ASP64       0.2266
     52  O         18.6970  -97.0810  -27.8850 O.2    64  ASP64      -0.2867
     53  CB        20.9320  -95.9160  -25.7420 C.3    64  ASP64       0.1410
     54  CG        21.0450  -94.8220  -24.6630 C.2    64  ASP64       0.3668
     55  OD1       19.9990  -94.4830  -24.0300 O.co2  64  ASP64      -0.2456
     56  OD2       22.1800  -94.3150  -24.4340 O.co2  64  ASP64      -0.2456
     57  N         15.5540  -97.6180  -27.2420 N.3    67  LYS67      -0.1231
     58  CA        14.8250  -96.3760  -26.9810 C.3    67  LYS67       0.1693
     59  C         13.5800  -95.8960  -27.8070 C.2    67  LYS67       0.2592
     60  O         12.6100  -95.4900  -27.1550 O.2    67  LYS67      -0.2718
     61  CB        15.7510  -95.1610  -26.9640 C.3    67  LYS67       0.0285
     62  CG        15.1990  -94.0120  -26.0910 C.3    67  LYS67       0.0035
     63  CD        15.8640  -92.6730  -26.3880 C.3    67  LYS67       0.0206
     64  CE        15.8540  -91.7760  -25.1720 C.3    67  LYS67       0.1093
     65  NZ        16.7150  -90.5840  -25.3730 N.3    67  LYS67      -0.1314
     66  N         13.5510  -95.8730  -29.1230 N.am   68  ASP68      -0.1974
     67  CA        12.2480  -95.5650  -29.6900 C.3    68  ASP68       0.1709
     68  C         11.5760  -96.7400  -30.4480 C.2    68  ASP68       0.2293
     69  O         10.4820  -96.5340  -31.0330 O.2    68  ASP68      -0.2864
     70  CB        12.3670  -94.2980  -30.5130 C.3    68  ASP68       0.1436
     71  CG        12.5280  -93.0530  -29.6500 C.2    68  ASP68       0.3671
     72  OD1       11.5310  -92.6590  -28.9610 O.co2  68  ASP68      -0.2456
     73  OD2       13.6310  -92.4520  -29.6800 O.co2  68  ASP68      -0.2456
     74  N          8.6190 -100.4710  -26.1980 N.3    71  THR71      -0.1218
     75  CA         7.7060  -99.7390  -25.3310 C.3    71  THR71       0.1862
     76  C          7.3160 -100.6510  -24.1730 C.2    71  THR71       0.2287
     77  O          6.7580 -101.7320  -24.4010 O.2    71  THR71      -0.2866
     78  CB         6.4640  -99.2650  -26.1320 C.3    71  THR71       0.1770
     79  OG1        6.8810  -98.4890  -27.2570 O.3    71  THR71      -0.2211
     80  CG2        5.4780  -98.4720  -25.2840 C.3    71  THR71       0.0375
     81  N          9.1360 -103.3640  -31.6670 N.3    86  ASN86      -0.1240
     82  CA         8.9580 -103.0750  -33.0840 C.3    86  ASN86       0.1653
     83  C         10.3330 -103.0510  -33.7870 C.2    86  ASN86       0.2266
     84  O         11.3620 -103.0560  -33.0990 O.2    86  ASN86      -0.2867
     85  CB         8.2190 -101.7330  -33.2380 C.3    86  ASN86       0.1155
     86  CG         6.8060 -101.7330  -32.6850 C.2    86  ASN86       0.2627
     87  OD1        6.0530 -102.7160  -32.7770 O.2    86  ASN86      -0.2716
     88  ND2        6.4040 -100.6080  -32.1180 N.am   86  ASN86      -0.0877
@<TRIPOS>BOND
     1    83    84    2
     2    83    82    1
     3    85    82    1
     4    85    86    1
     5    82    81    1
     6    87    86    2
     7    86    88   am
     8    69    68    2
     9    70    67    1
    10    70    71    1
    11    68    67    1
    12    67    66    1
    13    73    71   ar
    14    71    72   ar
    15    66    59   am
    16    52    51    2
    17    59    60    2
    18    59    58    1
    19    79    78    1
    20    57    58    1
    21    51    50    1
    22    58    61    1
    23    61    62    1
    24    63    62    1
    25    63    64    1
    26    74    75    1
    27    78    75    1
    28    78    80    1
    29    53    50    1
    30    53    54    1
    31    50    49    1
    32    65    64    1
    33    75    76    1
    34    54    56   ar
    35    54    55   ar
    36    77    76    2
    37    44    46   ar
    38    44    42   ar
    39    46    47   ar
    40    41    42    1
    41    41    38    1
    42    42    43   ar
    43    47    48    1
    44    47    45   ar
    45    43    45   ar
    46    39    40    2
    47    39    38    1
    48    38    37    1
    49     4     3    2
    50    37    29   am
    51    25    24    1
    52     3     2    1
    53    29    30    2
    54    29    28    1
    55    24    26    1
    56    24    21    1
    57     1     2    1
    58    23    22    2
    59    28    27    1
    60    28    31    1
    61    13    11   ar
    62    13    14   ar
    63     2     5    1
    64    11     8   ar
    65    22    27   am
    66    22    21    1
    67    14    12   ar
    68    21    20    1
    69     8     6   ar
    70     8    10   ar
    71     5     6    1
    72    31    32    1
    73    12    10   ar
    74     6     7   ar
    75    20    17   am
    76    10     9   ar
    77    32    34   ar
    78    32    33   ar
    79     7     9   ar
    80    34    36   ar
    81    17    16    1
    82    17    18    2
    83    33    35   ar
    84    36    35   ar
    85    16    15    1
    86    16    19    1
