@<TRIPOS>MOLECULE
tmp/4qwwB01.pdb
 142 135 0 0 0
SMALL
GASTEIGER

@<TRIPOS>ATOM
      1  N         24.7330  -91.7370   25.0500 N.3    16  LEU16      -0.1245
      2  CA        25.7290  -92.4810   24.2850 C.3    16  LEU16       0.1561
      3  C         26.9750  -91.6330   24.1610 C.2    16  LEU16       0.2260
      4  O         26.8910  -90.4760   23.7380 O.2    16  LEU16      -0.2867
      5  CB        25.1990  -92.7090   22.8400 C.3    16  LEU16       0.0270
      6  CG        24.8250  -94.1080   22.3580 C.3    16  LEU16       0.0019
      7  CD1       24.3420  -94.0250   20.9290 C.3    16  LEU16       0.0001
      8  CD2       26.0110  -95.0570   22.4050 C.3    16  LEU16       0.0001
      9  N         30.1380  -90.6540   22.0350 N.3    18  LEU18      -0.1231
     10  CA        30.5950  -90.8270   20.6430 C.3    18  LEU18       0.1678
     11  C         31.9770  -90.2250   20.3730 C.2    18  LEU18       0.2434
     12  O         32.1690  -89.0400   20.6170 O.2    18  LEU18      -0.2733
     13  CB        29.5690  -90.3120   19.6200 C.3    18  LEU18       0.0284
     14  CG        28.1830  -90.9620   19.6450 C.3    18  LEU18       0.0019
     15  CD1       27.2240  -90.1990   18.7610 C.3    18  LEU18       0.0001
     16  CD2       28.2300  -92.4100   19.1990 C.3    18  LEU18       0.0001
     17  N         32.9680  -91.0100   19.8990 N.am   19  PRO19      -0.2718
     18  CA        34.2800  -90.4150   19.6070 C.3    19  PRO19       0.1535
     19  C         34.2780  -89.6130   18.3030 C.2    19  PRO19       0.2598
     20  O         33.6640  -90.0140   17.2960 O.2    19  PRO19      -0.2715
     21  CB        35.2160  -91.6240   19.5410 C.3    19  PRO19       0.0310
     22  CG        34.3560  -92.7420   19.1220 C.3    19  PRO19       0.0237
     23  CD        32.9410  -92.4460   19.5620 C.3    19  PRO19       0.0939
     24  N         34.9480  -88.4560   18.3480 N.am   20  VAL20      -0.1964
     25  CA        35.1180  -87.5350   17.2230 C.3    20  VAL20       0.1727
     26  C         36.5880  -87.0950   17.2840 C.2    20  VAL20       0.2616
     27  O         37.0260  -86.5710   18.3070 O.2    20  VAL20      -0.2715
     28  CB        34.1490  -86.3040   17.2520 C.3    20  VAL20       0.0290
     29  CG1       34.3340  -85.4280   16.0160 C.3    20  VAL20       0.0023
     30  CG2       32.6820  -86.7110   17.3890 C.3    20  VAL20       0.0023
     31  N         37.3470  -87.3170   16.1980 N.am   21  LEU21      -0.1977
     32  CA        38.7720  -86.9460   16.0630 C.3    21  LEU21       0.1596
     33  C         39.6040  -87.3680   17.2760 C.2    21  LEU21       0.2287
     34  O         39.6400  -88.5530   17.5970 O.2    21  LEU21      -0.2864
     35  CB        38.9430  -85.4400   15.7580 C.3    21  LEU21       0.0297
     36  CG        37.9620  -84.8070   14.7840 C.3    21  LEU21       0.0022
     37  CD1       37.9190  -83.3170   14.9570 C.3    21  LEU21       0.0001
     38  CD2       38.3290  -85.1290   13.3700 C.3    21  LEU21       0.0001
     39  N         19.5280  -89.6900   21.4130 N.3    29  LEU29      -0.1245
     40  CA        18.6700  -89.8080   20.2390 C.3    29  LEU29       0.1561
     41  C         17.3030  -90.4330   20.5250 C.2    29  LEU29       0.2260
     42  O         17.2060  -91.4000   21.2610 O.2    29  LEU29      -0.2867
     43  CB        19.4040  -90.6190   19.1610 C.3    29  LEU29       0.0270
     44  CG        20.9150  -90.4160   19.0550 C.3    29  LEU29       0.0019
     45  CD1       21.5570  -91.5900   18.3650 C.3    29  LEU29       0.0001
     46  CD2       21.2740  -89.0680   18.3920 C.3    29  LEU29       0.0001
     47  N         19.2860  -93.8880   22.9730 N.3    59  THR59      -0.1203
     48  CA        20.5410  -94.3780   22.4160 C.3    59  THR59       0.1994
     49  C         20.4290  -94.6750   20.9140 C.2    59  THR59       0.2619
     50  O         21.4530  -94.8770   20.2660 O.2    59  THR59      -0.2717
     51  CB        21.0700  -95.5880   23.2220 C.3    59  THR59       0.1784
     52  OG1       20.2320  -96.7300   23.0130 O.3    59  THR59      -0.2211
     53  CG2       21.2070  -95.2970   24.6860 C.3    59  THR59       0.0376
     54  N         19.2010  -94.7080   20.3680 N.am   60  SER60      -0.1937
     55  CA        18.9910  -94.9600   18.9340 C.3    60  SER60       0.2055
     56  C         18.1040  -93.9000   18.2910 C.2    60  SER60       0.2643
     57  O         17.1460  -93.4620   18.9320 O.2    60  SER60      -0.2714
     58  CB        18.3260  -96.3150   18.7240 C.3    60  SER60       0.2130
     59  OG        19.1940  -97.3900   19.0350 O.3    60  SER60      -0.2179
     60  N         18.3670  -93.5270   17.0170 N.am   61  TYR61      -0.1973
     61  CA        17.4900  -92.5940   16.3030 C.3    61  TYR61       0.1639
     62  C         16.1300  -93.3180   16.1850 C.2    61  TYR61       0.2290
     63  O         16.1020  -94.5600   16.1810 O.2    61  TYR61      -0.2864
     64  CB        17.9730  -92.3700   14.8580 C.3    61  TYR61       0.0560
     65  CG        19.2340  -91.5630   14.6360 C.ar   61  TYR61      -0.0198
     66  CD1       19.2260  -90.1740   14.7490 C.ar   61  TYR61      -0.0009
     67  CD2       20.3750  -92.1570   14.1100 C.ar   61  TYR61      -0.0009
     68  CE1       20.3590  -89.4100   14.4500 C.ar   61  TYR61       0.0417
     69  CE2       21.5170  -91.4100   13.8160 C.ar   61  TYR61       0.0417
     70  CZ        21.5050  -90.0350   13.9830 C.ar   61  TYR61       0.1957
     71  OH        22.6300  -89.3050   13.6780 O.3    61  TYR61      -0.2866
     72  N         16.3900  -94.7010    8.7440 N.3    86  ARG86      -0.1245
     73  CA        16.0400  -95.5280    9.8920 C.3    86  ARG86       0.1563
     74  C         14.5490  -95.9060    9.9320 C.2    86  ARG86       0.2260
     75  O         13.9980  -96.1210   11.0120 O.2    86  ARG86      -0.2867
     76  CB        16.5080  -94.8740   11.2060 C.3    86  ARG86       0.0307
     77  CG        18.0240  -94.7010   11.3550 C.3    86  ARG86       0.0489
     78  CD        18.8050  -96.0070   11.3720 C.3    86  ARG86       0.2205
     79  NE        20.2280  -95.7770   11.6250 N.pl3  86  ARG86      -0.0865
     80  CZ        21.1310  -95.5330   10.6820 C.cat  86  ARG86       0.5346
     81  NH1       20.7720  -95.4860    9.4050 N.pl3  86  ARG86       0.1354
     82  NH2       22.4000  -95.3230   11.0090 N.pl3  86  ARG86       0.1354
     83  N         22.5480  -88.6830    7.6310 N.3   126  ASP126     -0.1239
     84  CA        23.9930  -88.6090    7.8620 C.3   126  ASP126      0.1674
     85  C         24.5520  -87.2260    7.6440 C.2   126  ASP126      0.2266
     86  O         25.5600  -86.8640    8.2500 O.2   126  ASP126     -0.2867
     87  CB        24.7230  -89.5980    6.9310 C.3   126  ASP126      0.1410
     88  CG        24.5160  -91.0550    7.2630 C.2   126  ASP126      0.3668
     89  OD1       23.6520  -91.3570    8.1130 O.co2 126  ASP126     -0.2456
     90  OD2       25.2640  -91.8890    6.7310 O.co2 126  ASP126     -0.2456
     91  N         24.1190  -85.1060   10.8930 N.3   129  ASP129     -0.1239
     92  CA        24.7380  -85.6290   12.1130 C.3   129  ASP129      0.1674
     93  C         25.5660  -84.4680   12.7440 C.2   129  ASP129      0.2266
     94  O         26.3990  -83.8410   12.0650 O.2   129  ASP129     -0.2867
     95  CB        25.5930  -86.8720   11.7960 C.3   129  ASP129      0.1410
     96  CG        26.0290  -87.6980   12.9940 C.2   129  ASP129      0.3668
     97  OD1       26.8090  -87.1810   13.8100 O.co2 129  ASP129     -0.2456
     98  OD2       25.6540  -88.9000   13.0650 O.co2 129  ASP129     -0.2456
     99  N         27.8220  -84.4120   15.2000 N.3   131  ARG131     -0.1231
    100  CA        29.1150  -84.8210   15.7590 C.3   131  ARG131      0.1694
    101  C         30.2690  -83.8450   15.5550 C.2   131  ARG131      0.2592
    102  O         31.0270  -83.6080   16.4880 O.2   131  ARG131     -0.2718
    103  CB        29.5180  -86.2100   15.2250 C.3   131  ARG131      0.0321
    104  CG        28.9000  -87.3600   15.9920 C.3   131  ARG131      0.0489
    105  CD        29.7900  -88.5720   15.9180 C.3   131  ARG131      0.2205
    106  NE        29.8480  -89.1810   14.5890 N.pl3 131  ARG131     -0.0865
    107  CZ        28.9470  -90.0420   14.1280 C.cat 131  ARG131      0.5346
    108  NH1       29.0890  -90.5770   12.9260 N.pl3 131  ARG131      0.1354
    109  NH2       27.8840  -90.3580   14.8600 N.pl3 131  ARG131      0.1354
    110  N         30.4490  -83.3350   14.3350 N.am  132  PHE132     -0.1976
    111  CA        31.5670  -82.4370   14.0730 C.3   132  PHE132      0.1639
    112  C         31.3010  -81.0060   14.5240 C.2   132  PHE132      0.2290
    113  O         32.2370  -80.3150   14.9490 O.2   132  PHE132     -0.2864
    114  CB        32.0000  -82.5030   12.6110 C.3   132  PHE132      0.0560
    115  CG        32.7970  -83.7300   12.2080 C.ar  132  PHE132     -0.0200
    116  CD1       34.1190  -83.8870   12.6140 C.ar  132  PHE132     -0.0042
    117  CD2       32.2560  -84.6770   11.3480 C.ar  132  PHE132     -0.0042
    118  CE1       34.8650  -84.9950   12.2110 C.ar  132  PHE132     -0.0003
    119  CE2       33.0190  -85.7660   10.9190 C.ar  132  PHE132     -0.0003
    120  CZ        34.3240  -85.9050   11.3400 C.ar  132  PHE132     -0.0000
    121  N         36.0020  -86.0740    8.0830 N.3   451  ASN451     -0.1240
    122  CA        35.9690  -87.5310    8.1880 C.3   451  ASN451      0.1653
    123  C         36.8120  -88.1840    7.1090 C.2   451  ASN451      0.2266
    124  O         36.4650  -88.1260    5.9270 O.2   451  ASN451     -0.2867
    125  CB        34.5430  -87.9990    8.0850 C.3   451  ASN451      0.1155
    126  CG        34.3760  -89.4510    8.3650 C.2   451  ASN451      0.2627
    127  OD1       35.3120  -90.2610    8.3270 O.2   451  ASN451     -0.2716
    128  ND2       33.1490  -89.7860    8.6150 N.am  451  ASN451     -0.0877
    129  N         37.0760  -91.2560    6.3730 N.3   453  SER453     -0.1202
    130  CA        36.3660  -92.3240    5.6690 C.3   453  SER453      0.2020
    131  C         35.5510  -91.7550    4.4790 C.2   453  SER453      0.2618
    132  O         35.0740  -92.5460    3.6530 O.2   453  SER453     -0.2717
    133  CB        35.4310  -93.0600    6.6270 C.3   453  SER453      0.2103
    134  OG        36.1340  -93.6260    7.7200 O.3   453  SER453     -0.2182
    135  N         35.4300  -90.3960    4.3650 N.am  454  LEU454     -0.1979
    136  CA        34.6070  -89.7470    3.3420 C.3   454  LEU454      0.1596
    137  C         35.3250  -89.1710    2.0840 C.2   454  LEU454      0.2287
    138  O         34.6180  -88.7540    1.1520 O.2   454  LEU454     -0.2864
    139  CB        33.7320  -88.6660    3.9700 C.3   454  LEU454      0.0297
    140  CG        32.5700  -89.1550    4.8440 C.3   454  LEU454      0.0022
    141  CD1       31.6310  -88.0190    5.1920 C.3   454  LEU454      0.0001
    142  CD2       31.7900  -90.3050    4.1800 C.3   454  LEU454      0.0001
@<TRIPOS>BOND
     1   138   137    2
     2   137   136    1
     3   136   139    1
     4   136   135    1
     5   132   131    2
     6   139   140    1
     7   142   140    1
     8   135   131   am
     9   131   130    1
    10   140   141    1
    11   130   129    1
    12   130   133    1
    13   124   123    2
    14   133   134    1
    15    90    88   ar
    16    87    88    1
    17    87    84    1
    18   123   122    1
    19    88    89   ar
    20    83    84    1
    21    85    84    1
    22    85    86    2
    23   121   122    1
    24   125   122    1
    25   125   126    1
    26   127   126    2
    27   126   128   am
    28    72    73    1
    29    81    80    1
    30    73    74    1
    31    73    76    1
    32    74    75    2
    33    80    82    1
    34    80    79    2
    35    91    92    1
    36   119   120   ar
    37   119   117   ar
    38    76    77    1
    39   120   118   ar
    40   117   115   ar
    41    77    78    1
    42    78    79    1
    43    95    92    1
    44    95    96    1
    45    94    93    2
    46    92    93    1
    47   115   114    1
    48   115   116   ar
    49   118   116   ar
    50   114   111    1
    51   108   107    1
    52    96    98   ar
    53    96    97   ar
    54    38    36    1
    55    71    70    1
    56    69    70   ar
    57    69    67   ar
    58    70    68   ar
    59   111   110    1
    60   111   112    1
    61    67    65   ar
    62   107   106    2
    63   107   109    1
    64   110   101   am
    65    68    66   ar
    66   112   113    2
    67   106   105    1
    68    65    66   ar
    69    65    64    1
    70    36    37    1
    71    36    35    1
    72    64    61    1
    73    99   100    1
    74   103   100    1
    75   103   104    1
    76   101   100    1
    77   101   102    2
    78    35    32    1
    79   105   104    1
    80    29    28    1
    81    32    31    1
    82    32    33    1
    83    63    62    2
    84    62    61    1
    85    31    26   am
    86    61    60    1
    87    60    56   am
    88    25    28    1
    89    25    26    1
    90    25    24    1
    91    28    30    1
    92    33    34    2
    93    26    27    2
    94    20    19    2
    95    56    57    2
    96    56    55    1
    97    19    24   am
    98    19    18    1
    99    45    44    1
   100    46    44    1
   101    58    55    1
   102    58    59    1
   103    15    14    1
   104    55    54    1
   105    44    43    1
   106    22    21    1
   107    22    23    1
   108    43    40    1
   109    16    14    1
   110    21    18    1
   111    23    17    1
   112    18    17    1
   113    13    14    1
   114    13    10    1
   115    17    11   am
   116    40    41    1
   117    40    39    1
   118    50    49    2
   119    54    49   am
   120    11    12    2
   121    11    10    1
   122    41    42    2
   123    10     9    1
   124    49    48    1
   125     7     6    1
   126     6     8    1
   127     6     5    1
   128    48    47    1
   129    48    51    1
   130     5     2    1
   131    52    51    1
   132    51    53    1
   133     4     3    2
   134     3     2    1
   135     2     1    1
