@<TRIPOS>MOLECULE
tmp/4qx4A01.pdb
 152 155 0 0 0
SMALL
GASTEIGER

@<TRIPOS>ATOM
      1  N         14.6000   -8.6600   49.2520 N.3    21  TRP21      -0.1241
      2  CA        15.0710   -9.3520   48.0540 C.3    21  TRP21       0.1605
      3  C         16.1660  -10.3410   48.4470 C.2    21  TRP21       0.2264
      4  O         17.1210   -9.9680   49.1380 O.2    21  TRP21      -0.2867
      5  CB        15.5860   -8.3560   47.0180 C.3    21  TRP21       0.0550
      6  CG        16.2140   -9.0020   45.8180 C.ar   21  TRP21       0.0003
      7  CD1       15.8050  -10.1430   45.1770 C.ar   21  TRP21       0.0946
      8  CD2       17.3870   -8.5530   45.1310 C.ar   21  TRP21       0.0152
      9  NE1       16.6490  -10.4180   44.1210 N.ar   21  TRP21      -0.2442
     10  CE2       17.6240   -9.4560   44.0710 C.ar   21  TRP21       0.0810
     11  CE3       18.2510   -7.4620   45.2980 C.ar   21  TRP21       0.0012
     12  CZ2       18.7020   -9.3100   43.1970 C.ar   21  TRP21       0.0191
     13  CZ3       19.3190   -7.3160   44.4260 C.ar   21  TRP21       0.0001
     14  CH2       19.5310   -8.2280   43.3850 C.ar   21  TRP21       0.0015
     15  N          7.9490   -9.9130   42.6820 N.3    48  VAL48      -0.1231
     16  CA         9.0140  -10.6400   41.9990 C.3    48  VAL48       0.1692
     17  C         10.0150  -11.3030   42.9700 C.2    48  VAL48       0.2592
     18  O         10.7940  -12.1570   42.5530 O.2    48  VAL48      -0.2718
     19  CB         9.7370   -9.7090   40.9700 C.3    48  VAL48       0.0266
     20  CG1       10.7230   -8.8010   41.6580 C.3    48  VAL48       0.0020
     21  CG2       10.4210  -10.5020   39.8540 C.3    48  VAL48       0.0020
     22  N          9.9920  -10.9200   44.2510 N.am   49  TYR49      -0.1976
     23  CA        10.9010  -11.5280   45.2290 C.3    49  TYR49       0.1639
     24  C         10.4310  -12.9210   45.6520 C.2    49  TYR49       0.2290
     25  O         11.1790  -13.6510   46.2900 O.2    49  TYR49      -0.2864
     26  CB        11.1170  -10.6390   46.4700 C.3    49  TYR49       0.0560
     27  CG        11.6980   -9.2660   46.1760 C.ar   49  TYR49      -0.0198
     28  CD1       12.2820   -8.9720   44.9480 C.ar   49  TYR49      -0.0009
     29  CD2       11.6390   -8.2550   47.1300 C.ar   49  TYR49      -0.0009
     30  CE1       12.7860   -7.6970   44.6780 C.ar   49  TYR49       0.0417
     31  CE2       12.1520   -6.9910   46.8780 C.ar   49  TYR49       0.0417
     32  CZ        12.7120   -6.7130   45.6500 C.ar   49  TYR49       0.1957
     33  OH        13.2020   -5.4530   45.3950 O.3    49  TYR49      -0.2866
     34  N          5.4210   -5.6330   39.1470 N.3    80  TRP80      -0.1241
     35  CA         6.4350   -6.2200   38.2800 C.3    80  TRP80       0.1605
     36  C          6.2360   -5.8360   36.8010 C.2    80  TRP80       0.2264
     37  O          5.1440   -5.4360   36.3720 O.2    80  TRP80      -0.2867
     38  CB         6.5830   -7.7490   38.4930 C.3    80  TRP80       0.0550
     39  CG         7.7240   -8.2830   37.6770 C.ar   80  TRP80       0.0003
     40  CD1        7.6520   -9.1400   36.6080 C.ar   80  TRP80       0.0946
     41  CD2        9.1010   -7.8810   37.7750 C.ar   80  TRP80       0.0152
     42  NE1        8.9030   -9.3230   36.0710 N.ar   80  TRP80      -0.2442
     43  CE2        9.8050   -8.5550   36.7620 C.ar   80  TRP80       0.0810
     44  CE3        9.8070   -7.0210   38.6340 C.ar   80  TRP80       0.0012
     45  CZ2       11.1830   -8.4050   36.5880 C.ar   80  TRP80       0.0191
     46  CZ3       11.1700   -6.8810   38.4610 C.ar   80  TRP80       0.0001
     47  CH2       11.8430   -7.5670   37.4450 C.ar   80  TRP80       0.0015
     48  N          8.0540   -1.0430   39.5270 N.3   111  HIS111     -0.1226
     49  CA         9.3340   -1.6210   39.9420 C.3   111  HIS111      0.1752
     50  C         10.4840   -1.1850   39.0270 C.2   111  HIS111      0.2596
     51  O         11.5730   -0.8660   39.5120 O.2   111  HIS111     -0.2718
     52  CB         9.2160   -3.1500   39.9850 C.3   111  HIS111      0.0759
     53  CG        10.2230   -3.8260   40.8600 C.ar  111  HIS111      0.0818
     54  ND1        9.9510   -5.0060   41.5220 N.ar  111  HIS111     -0.2268
     55  CD2       11.5040   -3.5070   41.1580 C.ar  111  HIS111      0.1154
     56  CE1       11.0300   -5.3830   42.1870 C.ar  111  HIS111      0.1986
     57  NE2       11.9830   -4.4910   41.9850 N.ar  111  HIS111     -0.2212
     58  N         10.2200   -1.1790   37.7160 N.am  112  TRP112     -0.1976
     59  CA        11.1560   -0.7090   36.6910 C.3   112  TRP112      0.1640
     60  C         10.3500    0.0100   35.6160 C.2   112  TRP112      0.2290
     61  O          9.1710   -0.2940   35.4120 O.2   112  TRP112     -0.2864
     62  CB        11.8990   -1.8900   36.0360 C.3   112  TRP112      0.0576
     63  CG        12.8440   -2.6190   36.9480 C.ar  112  TRP112      0.0006
     64  CD1       12.5320   -3.6170   37.8320 C.ar  112  TRP112      0.0946
     65  CD2       14.2550   -2.3960   37.0730 C.ar  112  TRP112      0.0152
     66  NE1       13.6630   -4.0180   38.5060 N.ar  112  TRP112     -0.2442
     67  CE2       14.7350   -3.2950   38.0490 C.ar  112  TRP112      0.0810
     68  CE3       15.1620   -1.5350   36.4430 C.ar  112  TRP112      0.0012
     69  CZ2       16.0750   -3.3410   38.4300 C.ar  112  TRP112      0.0191
     70  CZ3       16.4950   -1.5810   36.8220 C.ar  112  TRP112      0.0001
     71  CH2       16.9390   -2.4850   37.8000 C.ar  112  TRP112      0.0015
     72  N          8.6750  -14.1080   34.5730 N.3   122  PHE122     -0.1227
     73  CA         9.0710  -12.7680   34.9820 C.3   122  PHE122      0.1736
     74  C          9.9220  -12.0510   33.9330 C.2   122  PHE122      0.2595
     75  O          9.8840  -10.8280   33.8470 O.2   122  PHE122     -0.2718
     76  CB         9.8430  -12.8100   36.3000 C.3   122  PHE122      0.0547
     77  CG         9.0180  -13.1970   37.4990 C.ar  122  PHE122     -0.0202
     78  CD1        7.6460  -12.9650   37.5470 C.ar  122  PHE122     -0.0042
     79  CD2        9.6310  -13.7690   38.5980 C.ar  122  PHE122     -0.0042
     80  CE1        6.9080  -13.3030   38.6710 C.ar  122  PHE122     -0.0003
     81  CE2        8.8920  -14.1030   39.7350 C.ar  122  PHE122     -0.0003
     82  CZ         7.5340  -13.8730   39.7580 C.ar  122  PHE122     -0.0000
     83  N         10.6930  -12.8150   33.1580 N.am  123  PHE123     -0.1976
     84  CA        11.5490  -12.2850   32.1010 C.3   123  PHE123      0.1639
     85  C         11.2630  -13.0670   30.8240 C.2   123  PHE123      0.2290
     86  O         12.0090  -13.9830   30.4750 O.2   123  PHE123     -0.2864
     87  CB        13.0330  -12.4090   32.4720 C.3   123  PHE123      0.0560
     88  CG        13.4970  -11.4060   33.4970 C.ar  123  PHE123     -0.0200
     89  CD1       14.1200  -10.2270   33.1080 C.ar  123  PHE123     -0.0042
     90  CD2       13.3220  -11.6470   34.8500 C.ar  123  PHE123     -0.0042
     91  CE1       14.5550   -9.3110   34.0500 C.ar  123  PHE123     -0.0003
     92  CE2       13.7450  -10.7290   35.7940 C.ar  123  PHE123     -0.0003
     93  CZ        14.3570   -9.5610   35.3900 C.ar  123  PHE123     -0.0000
     94  N         13.8880    2.8950   39.8660 N.3   161  ASN161     -0.1240
     95  CA        14.8090    2.7630   38.7420 C.3   161  ASN161      0.1653
     96  C         14.4360    3.6680   37.5700 C.2   161  ASN161      0.2266
     97  O         14.7240    3.3400   36.4240 O.2   161  ASN161     -0.2867
     98  CB        14.9280    1.3070   38.2790 C.3   161  ASN161      0.1155
     99  CG        15.4170    0.3940   39.3700 C.2   161  ASN161      0.2627
    100  OD1       16.5460    0.5300   39.8480 O.2   161  ASN161     -0.2716
    101  ND2       14.5690   -0.5460   39.7830 N.am  161  ASN161     -0.0877
    102  N         18.3580    1.8970   47.6980 N.3   210  TYR210     -0.1241
    103  CA        18.4350    0.4500   47.7740 C.3   210  TYR210      0.1605
    104  C         19.8690   -0.0550   47.6250 C.2   210  TYR210      0.2264
    105  O         20.7540    0.6880   47.2020 O.2   210  TYR210     -0.2867
    106  CB        17.4440   -0.1950   46.8090 C.3   210  TYR210      0.0534
    107  CG        17.7400   -0.3100   45.3210 C.ar  210  TYR210     -0.0201
    108  CD1       18.8460   -1.0130   44.8390 C.ar  210  TYR210     -0.0009
    109  CD2       16.8170    0.1650   44.3870 C.ar  210  TYR210     -0.0009
    110  CE1       19.0450   -1.1960   43.4780 C.ar  210  TYR210      0.0417
    111  CE2       17.0070   -0.0210   43.0310 C.ar  210  TYR210      0.0417
    112  CZ        18.1130   -0.7130   42.5820 C.ar  210  TYR210      0.1957
    113  OH        18.2890   -0.9390   41.2370 O.3   210  TYR210     -0.2866
    114  N         24.9270  -12.3600   40.8470 N.3   220  TRP220     -0.1241
    115  CA        25.9420  -12.1740   39.8140 C.3   220  TRP220      0.1605
    116  C         27.2210  -11.5290   40.3460 C.2   220  TRP220      0.2264
    117  O         28.0550  -11.0580   39.5730 O.2   220  TRP220     -0.2867
    118  CB        25.3710  -11.3490   38.6550 C.3   220  TRP220      0.0550
    119  CG        24.7070  -10.0740   39.0970 C.ar  220  TRP220      0.0003
    120  CD1       25.3080   -8.8630   39.3160 C.ar  220  TRP220      0.0946
    121  CD2       23.3110   -9.8810   39.3590 C.ar  220  TRP220      0.0152
    122  NE1       24.3700   -7.9320   39.7090 N.ar  220  TRP220     -0.2442
    123  CE2       23.1380   -8.5330   39.7470 C.ar  220  TRP220      0.0810
    124  CE3       22.1920  -10.7200   39.3200 C.ar  220  TRP220      0.0012
    125  CZ2       21.8890   -8.0070   40.0810 C.ar  220  TRP220      0.0191
    126  CZ3       20.9540  -10.1940   39.6520 C.ar  220  TRP220      0.0001
    127  CH2       20.8140   -8.8510   40.0270 C.ar  220  TRP220      0.0015
    128  N         23.0050   -3.1820   40.2790 N.3   299  CYS299     -0.1221
    129  CA        21.7640   -3.5830   39.6170 C.3   299  CYS299      0.1808
    130  C         21.6080   -2.8350   38.3020 C.2   299  CYS299      0.2601
    131  O         20.9370   -1.8080   38.2420 O.2   299  CYS299     -0.2717
    132  CB        20.5480   -3.3240   40.5150 C.3   299  CYS299      0.0970
    133  SG        20.2960   -4.5420   41.8430 S.3   299  CYS299     -0.0800
    134  N         22.2360   -3.3500   37.2490 N.am  300  ALA300     -0.1965
    135  CA        22.2480   -2.6390   35.9710 C.3   300  ALA300      0.1728
    136  C         21.2830   -3.2050   34.9300 C.2   300  ALA300      0.2616
    137  O         21.2200   -2.6940   33.8160 O.2   300  ALA300     -0.2715
    138  CB        23.6670   -2.5530   35.4090 C.3   300  ALA300      0.0334
    139  N         20.5390   -4.2490   35.2950 N.am  301  LEU301     -0.1977
    140  CA        19.5190   -4.8320   34.4190 C.3   301  LEU301      0.1596
    141  C         20.0960   -5.1090   33.0290 C.2   301  LEU301      0.2287
    142  O         19.4940   -4.7680   32.0030 O.2   301  LEU301     -0.2864
    143  CB        18.2790   -3.9250   34.3410 C.3   301  LEU301      0.0297
    144  CG        16.9660   -4.6020   33.9280 C.3   301  LEU301      0.0022
    145  CD1       16.4410   -5.5040   35.0470 C.3   301  LEU301      0.0001
    146  CD2       15.9220   -3.5770   33.5040 C.3   301  LEU301      0.0001
    147  N         20.2760   -7.6480   31.3500 N.3   303  SER303     -0.1217
    148  CA        19.3450   -8.4580   30.5650 C.3   303  SER303      0.1889
    149  C         18.4540   -7.6440   29.6230 C.2   303  SER303      0.2288
    150  O         17.9160   -8.1800   28.6530 O.2   303  SER303     -0.2866
    151  CB        18.4610   -9.2930   31.5020 C.3   303  SER303      0.2089
    152  OG        17.7640   -8.4780   32.4350 O.3   303  SER303     -0.2183
@<TRIPOS>BOND
     1   150   149    2
     2   149   148    1
     3    86    85    2
     4   148   147    1
     5   148   151    1
     6    85    84    1
     7   151   152    1
     8   142   141    2
     9    84    87    1
    10    84    83    1
    11    87    88    1
    12   141   140    1
    13    89    88   ar
    14    89    91   ar
    15    83    74   am
    16    88    90   ar
    17   146   144    1
    18   137   136    2
    19    75    74    2
    20   144   143    1
    21   144   145    1
    22    74    73    1
    23    91    93   ar
    24   143   140    1
    25   140   139    1
    26    72    73    1
    27    90    92   ar
    28   136   139   am
    29   136   135    1
    30    73    76    1
    31    93    92   ar
    32   138   135    1
    33    61    60    2
    34    60    59    1
    35   135   134    1
    36    62    59    1
    37    62    63    1
    38    42    40   ar
    39    42    43   ar
    40    76    77    1
    41    37    36    2
    42    97    96    2
    43    68    70   ar
    44    68    65   ar
    45    45    43   ar
    46    45    47   ar
    47    40    39   ar
    48    59    58    1
    49    43    41   ar
    50    36    35    1
    51    70    71   ar
    52    63    65   ar
    53    63    64   ar
    54    65    67   ar
    55   134   130   am
    56    47    46   ar
    57    77    78   ar
    58    77    79   ar
    59    78    80   ar
    60    96    95    1
    61    39    41   ar
    62    39    38    1
    63    58    50   am
    64    41    44   ar
    65    71    69   ar
    66    64    66   ar
    67    67    69   ar
    68    67    66   ar
    69   131   130    2
    70    98    95    1
    71    98    99    1
    72    35    38    1
    73    35    34    1
    74   130   129    1
    75    46    44   ar
    76    79    81   ar
    77   118   119    1
    78   118   115    1
    79    80    82   ar
    80    95    94    1
    81    50    51    2
    82    50    49    1
    83   119   120   ar
    84   119   121   ar
    85   120   122   ar
    86   124   121   ar
    87   124   126   ar
    88   121   123   ar
    89    99   101   am
    90    99   100    2
    91    48    49    1
    92   117   116    2
    93   129   128    1
    94   129   132    1
    95   126   127   ar
    96   122   123   ar
    97    81    82   ar
    98   123   125   ar
    99   115   116    1
   100   115   114    1
   101    21    19    1
   102    49    52    1
   103    52    53    1
   104   127   125   ar
   105   132   133    1
   106    53    55   ar
   107    53    54   ar
   108    19    20    1
   109    19    16    1
   110    55    57   ar
   111   113   112    1
   112    54    56   ar
   113    57    56   ar
   114    16    15    1
   115    16    17    1
   116    18    17    2
   117   112   111   ar
   118   112   110   ar
   119    17    22   am
   120   111   109   ar
   121    12    14   ar
   122    12    10   ar
   123    14    13   ar
   124   110   108   ar
   125    10     9   ar
   126    10     8   ar
   127     9     7   ar
   128    22    23    1
   129   109   107   ar
   130    13    11   ar
   131    30    28   ar
   132    30    32   ar
   133   108   107   ar
   134    28    27   ar
   135     8    11   ar
   136     8     6   ar
   137     7     6   ar
   138    23    24    1
   139    23    26    1
   140   107   106    1
   141    33    32    1
   142    32    31   ar
   143    24    25    2
   144     6     5    1
   145    27    26    1
   146    27    29   ar
   147   106   103    1
   148    31    29   ar
   149     5     2    1
   150   105   104    2
   151   104   103    1
   152   102   103    1
   153     2     3    1
   154     2     1    1
   155     3     4    2
