@<TRIPOS>MOLECULE
tmp/4qx5A00.pdb
 133 126 0 0 0
SMALL
GASTEIGER

@<TRIPOS>ATOM
      1  N        -17.8840   -0.5050  -12.6320 N.3    43  ILE43      -0.1245
      2  CA       -17.6280   -0.7540  -14.0490 C.3    43  ILE43       0.1561
      3  C        -18.2580   -2.0890  -14.4190 C.2    43  ILE43       0.2260
      4  O        -18.1880   -3.0420  -13.6430 O.2    43  ILE43      -0.2867
      5  CB       -16.1130   -0.8140  -14.3490 C.3    43  ILE43       0.0252
      6  CG1      -15.4980    0.5800  -14.2890 C.3    43  ILE43       0.0019
      7  CG2      -15.8180   -1.4440  -15.7240 C.3    43  ILE43       0.0019
      8  CD1      -13.9970    0.5970  -14.3940 C.3    43  ILE43       0.0001
      9  N        -12.8700   -7.5440   -8.6580 N.3    62  VAL62      -0.1245
     10  CA       -12.7930   -7.5300  -10.1090 C.3    62  VAL62       0.1561
     11  C        -13.1760   -8.9150  -10.6010 C.2    62  VAL62       0.2260
     12  O        -12.6350   -9.9140  -10.1400 O.2    62  VAL62      -0.2867
     13  CB       -11.3790   -7.1330  -10.6150 C.3    62  VAL62       0.0252
     14  CG1      -11.3570   -7.0400  -12.1340 C.3    62  VAL62       0.0019
     15  CG2      -10.9370   -5.8080  -10.0060 C.3    62  VAL62       0.0019
     16  N        -14.7850  -11.2750  -14.2780 N.3    64  ARG64      -0.1245
     17  CA       -14.7850  -11.2950  -15.7260 C.3    64  ARG64       0.1563
     18  C        -15.4900  -12.5420  -16.2220 C.2    64  ARG64       0.2260
     19  O        -15.3360  -13.6210  -15.6460 O.2    64  ARG64      -0.2867
     20  CB       -13.3470  -11.2490  -16.2450 C.3    64  ARG64       0.0307
     21  CG       -13.1940  -11.1540  -17.7460 C.3    64  ARG64       0.0489
     22  CD       -11.7190  -11.0660  -18.1150 C.3    64  ARG64       0.2205
     23  NE       -10.9920  -12.2830  -17.7600 N.pl3  64  ARG64      -0.0865
     24  CZ        -9.6720  -12.3520  -17.6180 C.cat  64  ARG64       0.5346
     25  NH1       -8.9280  -11.2670  -17.7860 N.pl3  64  ARG64       0.1354
     26  NH2       -9.0960  -13.5010  -17.2970 N.pl3  64  ARG64       0.1354
     27  N        -11.3660  -12.3960  -10.3370 N.3    72  LEU72      -0.1231
     28  CA        -9.9940  -12.1100  -10.7470 C.3    72  LEU72       0.1693
     29  C         -9.1470  -11.6870   -9.5490 C.2    72  LEU72       0.2591
     30  O         -8.1960  -12.3810   -9.1900 O.2    72  LEU72      -0.2718
     31  CB        -9.9650  -11.0380  -11.8380 C.3    72  LEU72       0.0284
     32  CG       -10.5840  -11.4440  -13.1790 C.3    72  LEU72       0.0019
     33  CD1      -10.5130  -10.2860  -14.1550 C.3    72  LEU72       0.0001
     34  CD2       -9.9010  -12.6820  -13.7590 C.3    72  LEU72       0.0001
     35  N         -9.4890  -10.5560   -8.9370 N.am   73  ARG73      -0.1980
     36  CA        -8.8260  -10.1390   -7.7050 C.3    73  ARG73       0.1597
     37  C         -9.5700   -9.0230   -6.9940 C.2    73  ARG73       0.2287
     38  O        -10.5400   -8.4570   -7.5000 O.2    73  ARG73      -0.2864
     39  CB        -7.3970   -9.6690   -7.9710 C.3    73  ARG73       0.0334
     40  CG        -7.3680   -8.3660   -8.6910 C.3    73  ARG73       0.0492
     41  CD        -6.0310   -8.0520   -9.3270 C.3    73  ARG73       0.2205
     42  NE        -4.8400   -8.1510   -8.5060 N.pl3  73  ARG73      -0.0865
     43  CZ        -3.6530   -7.7440   -8.9420 C.cat  73  ARG73       0.5346
     44  NH1       -3.5450   -7.2490  -10.1710 N.pl3  73  ARG73       0.1354
     45  NH2       -2.5790   -7.8380   -8.1710 N.pl3  73  ARG73       0.1354
     46  N         -9.0400   -5.2830   -5.2120 N.3    75  LEU75      -0.1245
     47  CA        -8.1840   -4.0990   -5.1660 C.3    75  LEU75       0.1561
     48  C         -8.5740   -3.2380   -3.9850 C.2    75  LEU75       0.2260
     49  O         -9.7250   -3.2550   -3.5640 O.2    75  LEU75      -0.2867
     50  CB        -8.2950   -3.2780   -6.4520 C.3    75  LEU75       0.0270
     51  CG        -7.9460   -3.9510   -7.7830 C.3    75  LEU75       0.0019
     52  CD1       -8.2650   -3.0250   -8.9470 C.3    75  LEU75       0.0001
     53  CD2       -6.4850   -4.3470   -7.8230 C.3    75  LEU75       0.0001
     54  N         -7.7350    1.4690  -11.2550 N.3    81  PHE81      -0.1227
     55  CA        -8.3060    0.6220  -12.2850 C.3    81  PHE81       0.1736
     56  C         -9.0240    1.4870  -13.3100 C.2    81  PHE81       0.2596
     57  O         -9.2250    2.6850  -13.1130 O.2    81  PHE81      -0.2718
     58  CB        -9.2600   -0.4250  -11.6730 C.3    81  PHE81       0.0547
     59  CG       -10.4480    0.1670  -10.9450 C.ar   81  PHE81      -0.0202
     60  CD1      -10.4050    0.3860   -9.5680 C.ar   81  PHE81      -0.0042
     61  CD2      -11.6110    0.4910  -11.6320 C.ar   81  PHE81      -0.0042
     62  CE1      -11.5030    0.9460   -8.8900 C.ar   81  PHE81      -0.0003
     63  CE2      -12.7090    1.0430  -10.9670 C.ar   81  PHE81      -0.0003
     64  CZ       -12.6540    1.2700   -9.5900 C.ar   81  PHE81      -0.0000
     65  N         -9.4100    0.8600  -14.4180 N.am   82  GLY82      -0.1942
     66  CA       -10.0960    1.5430  -15.5010 C.3    82  GLY82       0.2014
     67  C         -9.2010    2.0930  -16.5910 C.2    82  GLY82       0.2639
     68  O         -9.6900    2.8160  -17.4760 O.2    82  GLY82      -0.2714
     69  N         -7.9220    1.7300  -16.5920 N.am   83  GLU83      -0.1963
     70  CA        -7.0000    2.2710  -17.5870 C.3    83  GLU83       0.1733
     71  C         -7.1190    1.5910  -18.9380 C.2    83  GLU83       0.2616
     72  O         -6.7620    2.1900  -19.9680 O.2    83  GLU83      -0.2715
     73  CB        -5.5480    2.1880  -17.0890 C.3    83  GLU83       0.0429
     74  CG        -4.8340    0.8420  -17.2640 C.3    83  GLU83       0.1163
     75  CD        -5.3140   -0.2600  -16.3150 C.2    83  GLU83       0.3649
     76  OE1       -6.1460    0.0000  -15.4160 O.co2  83  GLU83      -0.2457
     77  OE2       -4.8420   -1.4010  -16.4850 O.co2  83  GLU83      -0.2457
     78  N         -7.5630    0.3370  -18.9740 N.am   84  LYS84      -0.1963
     79  CA        -7.5380   -0.3670  -20.2610 C.3    84  LYS84       0.1728
     80  C         -8.4800    0.2780  -21.2880 C.2    84  LYS84       0.2616
     81  O         -8.1190    0.3650  -22.4640 O.2    84  LYS84      -0.2715
     82  CB        -7.8460   -1.8630  -20.0930 C.3    84  LYS84       0.0311
     83  CG        -6.7660   -2.6240  -19.3450 C.3    84  LYS84       0.0038
     84  CD        -5.6060   -2.9700  -20.2770 C.3    84  LYS84       0.0206
     85  CE        -4.3510   -3.4170  -19.5340 C.3    84  LYS84       0.1093
     86  NZ        -3.5870   -2.2560  -18.9650 N.3    84  LYS84      -0.1314
     87  N         -9.6350    0.7800  -20.8600 N.am   85  ALA85      -0.1977
     88  CA       -10.5430    1.4440  -21.8010 C.3    85  ALA85       0.1597
     89  C         -9.9780    2.7860  -22.2630 C.2    85  ALA85       0.2287
     90  O        -10.5000    3.3890  -23.2090 O.2    85  ALA85      -0.2864
     91  CB       -11.9230    1.6310  -21.1780 C.3    85  ALA85       0.0319
     92  N        -14.4710   -1.8240  -21.7350 N.3    92  ARG92      -0.1231
     93  CA       -14.1460   -2.3220  -20.4030 C.3    92  ARG92       0.1694
     94  C        -13.9290   -3.8240  -20.4440 C.2    92  ARG92       0.2593
     95  O        -14.7480   -4.5630  -20.9720 O.2    92  ARG92      -0.2718
     96  CB       -15.2630   -1.9750  -19.4100 C.3    92  ARG92       0.0321
     97  CG       -15.5350   -0.4900  -19.2310 C.3    92  ARG92       0.0489
     98  CD       -14.3430    0.2340  -18.6070 C.3    92  ARG92       0.2205
     99  NE       -14.7440    1.5570  -18.1330 N.pl3  92  ARG92      -0.0865
    100  CZ       -13.9150    2.5010  -17.7050 C.cat  92  ARG92       0.5346
    101  NH1      -12.5980    2.2840  -17.6770 N.pl3  92  ARG92       0.1354
    102  NH2      -14.4080    3.6680  -17.2960 N.pl3  92  ARG92       0.1354
    103  N        -12.8270   -4.2690  -19.8470 N.am   93  THR93      -0.1939
    104  CA       -12.4140   -5.6560  -19.9610 C.3    93  THR93       0.2028
    105  C        -12.7790   -6.5340  -18.7560 C.2    93  THR93       0.2642
    106  O        -12.5230   -7.7370  -18.7670 O.2    93  THR93      -0.2714
    107  CB       -10.8950   -5.7660  -20.1980 C.3    93  THR93       0.1808
    108  OG1      -10.1880   -5.3190  -19.0350 O.3    93  THR93      -0.2208
    109  CG2      -10.4780   -4.9420  -21.4300 C.3    93  THR93       0.0379
    110  N        -13.4150   -5.9390  -17.7570 N.am   94  ALA94      -0.1977
    111  CA       -13.8030   -6.6680  -16.5530 C.3    94  ALA94       0.1597
    112  C        -14.8520   -5.8740  -15.7990 C.2    94  ALA94       0.2287
    113  O        -15.0260   -4.6740  -16.0460 O.2    94  ALA94      -0.2864
    114  CB       -12.5880   -6.9340  -15.6670 C.3    94  ALA94       0.0319
    115  N        -15.9530   -4.2470  -12.1700 N.3    96  VAL96      -0.1245
    116  CA       -15.4140   -3.8180  -10.8840 C.3    96  VAL96       0.1561
    117  C        -16.5890   -3.4750   -9.9800 C.2    96  VAL96       0.2260
    118  O        -17.4040   -2.6150  -10.3110 O.2    96  VAL96      -0.2867
    119  CB       -14.4680   -2.6090  -11.0160 C.3    96  VAL96       0.0252
    120  CG1      -13.8750   -2.2710   -9.6410 C.3    96  VAL96       0.0019
    121  CG2      -13.3680   -2.9030  -12.0510 C.3    96  VAL96       0.0019
    122  N         -0.4010   -7.0860  -15.2040 N.3   127  TYR127     -0.1241
    123  CA        -1.3660   -8.0930  -14.7450 C.3   127  TYR127      0.1605
    124  C         -0.8350   -9.5050  -14.9540 C.2   127  TYR127      0.2264
    125  O         -1.0000  -10.3660  -14.0900 O.2   127  TYR127     -0.2867
    126  CB        -2.7240   -7.9420  -15.4410 C.3   127  TYR127      0.0534
    127  CG        -3.3790   -6.6150  -15.1700 C.ar  127  TYR127     -0.0201
    128  CD1       -3.8740   -6.3080  -13.9090 C.ar  127  TYR127     -0.0009
    129  CD2       -3.5000   -5.6680  -16.1730 C.ar  127  TYR127     -0.0009
    130  CE1       -4.4600   -5.0950  -13.6570 C.ar  127  TYR127      0.0417
    131  CE2       -4.0910   -4.4610  -15.9320 C.ar  127  TYR127      0.0417
    132  CZ        -4.5670   -4.1770  -14.6750 C.ar  127  TYR127      0.1957
    133  OH        -5.1440   -2.9650  -14.4380 O.3   127  TYR127     -0.2866
@<TRIPOS>BOND
     1    90    89    2
     2    81    80    2
     3    89    88    1
     4    88    91    1
     5    88    87    1
     6    92    93    1
     7   109   107    1
     8    80    87   am
     9    80    79    1
    10    95    94    2
    11    94    93    1
    12    94   103   am
    13    93    96    1
    14    84    85    1
    15    84    83    1
    16    79    82    1
    17    79    78    1
    18   107   104    1
    19   107   108    1
    20    82    83    1
    21    72    71    2
    22   104   103    1
    23   104   105    1
    24    85    86    1
    25    96    97    1
    26    97    98    1
    27    78    71   am
    28    71    70    1
    29   106   105    2
    30   105   110   am
    31    98    99    1
    32    99   100    2
    33    22    23    1
    34    22    21    1
    35    25    24    1
    36    23    24    2
    37   110   111    1
    38    21    20    1
    39   100   101    1
    40   100   102    1
    41    24    26    1
    42    70    73    1
    43    70    69    1
    44    68    67    2
    45    74    73    1
    46    74    75    1
    47    69    67   am
    48    67    66    1
    49   111   112    1
    50   111   114    1
    51    77    75   ar
    52    75    76   ar
    53    20    17    1
    54    18    17    1
    55    18    19    2
    56   129   131   ar
    57   129   127   ar
    58   113   112    2
    59   131   132   ar
    60    17    16    1
    61     7     5    1
    62    66    65    1
    63   126   127    1
    64   126   123    1
    65   122   123    1
    66   127   128   ar
    67   124   123    1
    68   124   125    2
    69   132   133    1
    70   132   130   ar
    71     3     2    1
    72     3     4    2
    73    65    56   am
    74     8     6    1
    75     5     6    1
    76     5     2    1
    77    33    32    1
    78     2     1    1
    79   128   130   ar
    80    34    32    1
    81    56    57    2
    82    56    55    1
    83    32    31    1
    84    55    58    1
    85    55    54    1
    86   115   116    1
    87    14    13    1
    88   121   119    1
    89    31    28    1
    90    58    59    1
    91    61    63   ar
    92    61    59   ar
    93   119   116    1
    94   119   120    1
    95    63    64   ar
    96    59    60   ar
    97   116   117    1
    98    28    27    1
    99    28    29    1
   100    13    10    1
   101    13    15    1
   102    11    12    2
   103    11    10    1
   104   118   117    2
   105    44    43    1
   106    10     9    1
   107    64    62   ar
   108    60    62   ar
   109    29    30    2
   110    29    35   am
   111    41    40    1
   112    41    42    1
   113    52    51    1
   114    43    42    2
   115    43    45    1
   116    35    36    1
   117    40    39    1
   118    39    36    1
   119    53    51    1
   120    51    50    1
   121    36    37    1
   122    38    37    2
   123    50    47    1
   124    46    47    1
   125    47    48    1
   126    48    49    2
