@<TRIPOS>MOLECULE
tmp/4qxaA00.pdb
 190 186 0 0 0
SMALL
GASTEIGER

@<TRIPOS>ATOM
      1  N         -7.1280   17.7740   -0.0830 N.3    11  GLY11      -0.1210
      2  CA        -8.0520   17.3290   -1.1070 C.3    11  GLY11       0.1956
      3  C         -9.3490   18.1110   -0.9890 C.2    11  GLY11       0.2612
      4  O         -9.8670   18.3000    0.1180 O.2    11  GLY11      -0.2717
      5  N         -9.8350   18.6160   -2.1230 N.am   12  GLY12      -0.1942
      6  CA       -11.1570   19.2040   -2.2030 C.3    12  GLY12       0.2014
      7  C        -11.2200   20.6910   -1.8610 C.2    12  GLY12       0.2639
      8  O        -12.3020   21.2590   -1.8540 O.2    12  GLY12      -0.2714
      9  N        -10.0900   21.3270   -1.5640 N.am   13  VAL13      -0.1963
     10  CA       -10.1300   22.7610   -1.2030 C.3    13  VAL13       0.1727
     11  C        -10.3340   23.6770   -2.4050 C.2    13  VAL13       0.2617
     12  O        -10.6970   24.8320   -2.2420 O.2    13  VAL13      -0.2715
     13  CB        -8.8900   23.2510   -0.4390 C.3    13  VAL13       0.0290
     14  CG1       -8.7210   22.4740    0.8760 C.3    13  VAL13       0.0023
     15  CG2       -7.6470   23.1890   -1.3290 C.3    13  VAL13       0.0023
     16  N        -10.1060   23.1540   -3.6070 N.am   14  GLY14      -0.1940
     17  CA       -10.4050   23.8940   -4.8090 C.3    14  GLY14       0.2014
     18  C         -9.1930   24.2610   -5.6420 C.2    14  GLY14       0.2639
     19  O         -9.2890   25.1850   -6.4430 O.2    14  GLY14      -0.2714
     20  N         -8.0740   23.5440   -5.4750 N.am   15  LYS15      -0.1963
     21  CA        -6.8450   23.7970   -6.2620 C.3    15  LYS15       0.1728
     22  C         -7.0790   23.7270   -7.7860 C.2    15  LYS15       0.2617
     23  O         -6.7120   24.6390   -8.5350 O.2    15  LYS15      -0.2715
     24  CB        -5.7050   22.8600   -5.8350 C.3    15  LYS15       0.0311
     25  CG        -5.2680   23.0340   -4.3650 C.3    15  LYS15       0.0038
     26  CD        -4.0910   22.1190   -3.9890 C.3    15  LYS15       0.0206
     27  CE        -4.3840   20.6320   -4.2810 C.3    15  LYS15       0.1093
     28  NZ        -5.6170   20.1100   -3.6390 N.3    15  LYS15      -0.1314
     29  N         -7.7290   22.6590   -8.2380 N.am   16  SER16      -0.1936
     30  CA        -7.9790   22.5010   -9.6590 C.3    16  SER16       0.2055
     31  C         -8.9600   23.5420  -10.1790 C.2    16  SER16       0.2643
     32  O         -8.8090   24.0540  -11.2890 O.2    16  SER16      -0.2714
     33  CB        -8.5090   21.1110   -9.9550 C.3    16  SER16       0.2130
     34  OG        -7.4240   20.2280  -10.0530 O.3    16  SER16      -0.2179
     35  N         -9.9740   23.8250   -9.3720 N.am   17  SER17      -0.1949
     36  CA       -10.9480   24.8450   -9.7000 C.3    17  SER17       0.1924
     37  C        -10.3040   26.2210   -9.8260 C.2    17  SER17       0.2314
     38  O        -10.6750   27.0040  -10.6960 O.2    17  SER17      -0.2863
     39  CB       -12.0770   24.8690   -8.6710 C.3    17  SER17       0.2116
     40  OG       -12.8310   23.6760   -8.7520 O.3    17  SER17      -0.2180
     41  N        -15.8510   27.1760  -14.5530 N.3    27  PHE27      -0.1227
     42  CA       -16.0410   26.4970  -13.2780 C.3    27  PHE27       0.1736
     43  C        -16.8890   25.2340  -13.4360 C.2    27  PHE27       0.2595
     44  O        -17.9670   25.2690  -14.0280 O.2    27  PHE27      -0.2718
     45  CB       -16.6910   27.4340  -12.2490 C.3    27  PHE27       0.0547
     46  CG       -16.9580   26.7780  -10.8990 C.ar   27  PHE27      -0.0202
     47  CD1      -15.9100   26.5070  -10.0210 C.ar   27  PHE27      -0.0042
     48  CD2      -18.2550   26.4410  -10.5140 C.ar   27  PHE27      -0.0042
     49  CE1      -16.1470   25.9010   -8.7690 C.ar   27  PHE27      -0.0003
     50  CE2      -18.5060   25.8340   -9.2690 C.ar   27  PHE27      -0.0003
     51  CZ       -17.4520   25.5660   -8.3960 C.ar   27  PHE27      -0.0000
     52  N        -16.4040   24.1350  -12.8650 N.am   28  ASP28      -0.1960
     53  CA       -17.1260   22.8680  -12.8430 C.3    28  ASP28       0.1840
     54  C        -17.4380   22.4350  -11.4030 C.2    28  ASP28       0.2623
     55  O        -16.5580   22.4040  -10.5560 O.2    28  ASP28      -0.2715
     56  CB       -16.2910   21.7900  -13.5300 C.3    28  ASP28       0.1450
     57  CG       -17.1090   20.5680  -13.9070 C.2    28  ASP28       0.3671
     58  OD1      -18.3260   20.5200  -13.5950 O.co2  28  ASP28      -0.2456
     59  OD2      -16.5210   19.6480  -14.5130 O.co2  28  ASP28      -0.2456
     60  N        -18.6870   22.0850  -11.1320 N.am   29  SER29      -0.1936
     61  CA       -19.0710   21.6930   -9.7820 C.3    29  SER29       0.2055
     62  C        -18.6820   20.2500   -9.4300 C.2    29  SER29       0.2643
     63  O        -18.7950   19.8390   -8.2720 O.2    29  SER29      -0.2714
     64  CB       -20.5780   21.8690   -9.6060 C.3    29  SER29       0.2130
     65  OG       -21.2780   20.9590  -10.4380 O.3    29  SER29      -0.2179
     66  N        -18.2160   19.4950  -10.4230 N.am   30  GLN30      -0.1963
     67  CA       -18.0660   18.0400  -10.3000 C.3    30  GLN30       0.1733
     68  C        -16.9550   17.5620   -9.3470 C.2    30  GLN30       0.2616
     69  O        -15.9220   18.2180   -9.1900 O.2    30  GLN30      -0.2715
     70  CB       -17.8510   17.4160  -11.6790 C.3    30  GLN30       0.0408
     71  CG       -16.4380   16.9080  -11.9130 C.3    30  GLN30       0.0908
     72  CD       -16.1640   16.5160  -13.3620 C.2    30  GLN30       0.2608
     73  OE1      -16.9440   16.8240  -14.2750 O.2    30  GLN30      -0.2717
     74  NE2      -15.0380   15.8350  -13.5780 N.am   30  GLN30      -0.0878
     75  N        -17.1810   16.3990   -8.7330 N.am   31  LEU31      -0.1963
     76  CA       -16.2390   15.7910   -7.7900 C.3    31  LEU31       0.1728
     77  C        -15.2220   14.8620   -8.4440 C.2    31  LEU31       0.2616
     78  O        -15.5720   13.8020   -8.9480 O.2    31  LEU31      -0.2715
     79  CB       -17.0040   15.0050   -6.7270 C.3    31  LEU31       0.0311
     80  CG       -18.0580   15.8330   -6.0100 C.3    31  LEU31       0.0022
     81  CD1      -18.9550   14.9280   -5.1660 C.3    31  LEU31       0.0001
     82  CD2      -17.3660   16.9290   -5.1690 C.3    31  LEU31       0.0001
     83  N        -13.9600   15.2690   -8.4430 N.am   32  PHE32      -0.1960
     84  CA       -12.8890   14.3800   -8.8630 C.3    32  PHE32       0.1771
     85  C        -11.5810   14.7510   -8.1750 C.2    32  PHE32       0.2620
     86  O        -11.0810   15.8740   -8.2930 O.2    32  PHE32      -0.2715
     87  CB       -12.6870   14.3750  -10.3840 C.3    32  PHE32       0.0574
     88  CG       -11.4120   13.6960  -10.8030 C.ar   32  PHE32      -0.0200
     89  CD1      -11.3350   12.2970  -10.8430 C.ar   32  PHE32      -0.0042
     90  CD2      -10.2740   14.4450  -11.1250 C.ar   32  PHE32      -0.0042
     91  CE1      -10.1460   11.6550  -11.1950 C.ar   32  PHE32      -0.0003
     92  CE2       -9.0680   13.8180  -11.4880 C.ar   32  PHE32      -0.0003
     93  CZ        -9.0020   12.4230  -11.5230 C.ar   32  PHE32      -0.0000
     94  N        -11.0190   13.7930   -7.4590 N.am   33  HIS33      -0.1959
     95  CA        -9.7230   14.0060   -6.8300 C.3    33  HIS33       0.1787
     96  C         -8.6320   13.8880   -7.8810 C.2    33  HIS33       0.2620
     97  O         -8.5510   12.8950   -8.5760 O.2    33  HIS33      -0.2715
     98  CB        -9.5060   12.9580   -5.7250 C.3    33  HIS33       0.0785
     99  CG       -10.3340   13.1930   -4.4970 C.ar   33  HIS33       0.0821
    100  ND1      -10.2970   14.3780   -3.7920 N.ar   33  HIS33      -0.2267
    101  CD2      -11.2000   12.3890   -3.8340 C.ar   33  HIS33       0.1154
    102  CE1      -11.0970   14.2890   -2.7430 C.ar   33  HIS33       0.1986
    103  NE2      -11.6580   13.0930   -2.7460 N.ar   33  HIS33      -0.2212
    104  N         -7.7980   14.9000   -7.9890 N.am   34  THR34      -0.1951
    105  CA        -6.6480   14.8510   -8.8690 C.3    34  THR34       0.1897
    106  C         -5.7230   13.7490   -8.4230 C.2    34  THR34       0.2313
    107  O         -5.4310   13.6020   -7.2560 O.2    34  THR34      -0.2863
    108  CB        -5.9460   16.2030   -8.8970 C.3    34  THR34       0.1794
    109  OG1       -6.7850   17.0810   -9.6110 O.3    34  THR34      -0.2208
    110  CG2       -4.5950   16.1670   -9.6010 C.3    34  THR34       0.0378
    111  N         -0.7910   21.9960  -10.8720 N.3    57  ASP57      -0.1225
    112  CA        -1.8610   21.4780  -10.0600 C.3    57  ASP57       0.1805
    113  C         -1.4500   20.1130   -9.5130 C.2    57  ASP57       0.2598
    114  O         -0.8260   19.3240  -10.2300 O.2    57  ASP57      -0.2718
    115  CB        -3.0990   21.3500  -10.9180 C.3    57  ASP57       0.1424
    116  CG        -4.3240   20.9990  -10.1190 C.2    57  ASP57       0.3668
    117  OD1       -4.3360   21.2550   -8.8800 O.co2  57  ASP57      -0.2456
    118  OD2       -5.2700   20.4720  -10.7490 O.co2  57  ASP57      -0.2456
    119  N         -1.8000   19.8350   -8.2520 N.am   58  THR58      -0.1953
    120  CA        -1.3410   18.6110   -7.5890 C.3    58  THR58       0.1897
    121  C         -2.4510   17.8840   -6.8510 C.2    58  THR58       0.2313
    122  O         -3.5160   18.4160   -6.6200 O.2    58  THR58      -0.2863
    123  CB        -0.1980   18.8940   -6.5600 C.3    58  THR58       0.1794
    124  OG1       -0.7080   19.7030   -5.5010 O.3    58  THR58      -0.2208
    125  CG2        0.9780   19.6270   -7.2000 C.3    58  THR58       0.0378
    126  N         -4.1920   16.7070   -3.6140 N.3    60  GLY60      -0.1210
    127  CA        -4.2900   17.0800   -2.2210 C.3    60  GLY60       0.1956
    128  C         -4.3230   15.8980   -1.2560 C.2    60  GLY60       0.2611
    129  O         -3.9080   16.0400   -0.1200 O.2    60  GLY60      -0.2717
    130  N         -4.8200   14.7410   -1.6970 N.am   61  LEU61      -0.1979
    131  CA        -4.9490   13.5760   -0.8170 C.3    61  LEU61       0.1596
    132  C         -3.6070   13.0450   -0.2990 C.2    61  LEU61       0.2287
    133  O         -2.6430   12.8960   -1.0470 O.2    61  LEU61      -0.2864
    134  CB        -5.7330   12.4490   -1.4960 C.3    61  LEU61       0.0297
    135  CG        -7.2380   12.6550   -1.7290 C.3    61  LEU61       0.0022
    136  CD1       -7.8170   11.4130   -2.3990 C.3    61  LEU61       0.0001
    137  CD2       -8.0040   12.9650   -0.4350 C.3    61  LEU61       0.0001
    138  N        -10.0580   29.5320    0.0760 N.3   119  ASN119     -0.1225
    139  CA       -10.9880   29.4130   -1.0430 C.3   119  ASN119      0.1785
    140  C        -12.4180   29.1650   -0.5700 C.2   119  ASN119      0.2597
    141  O        -12.6360   28.8970    0.6130 O.2   119  ASN119     -0.2718
    142  CB       -10.5240   28.3100   -2.0130 C.3   119  ASN119      0.1169
    143  CG       -11.2540   28.3510   -3.3610 C.2   119  ASN119      0.2627
    144  OD1      -11.4570   29.4230   -3.9440 O.2   119  ASN119     -0.2716
    145  ND2      -11.6550   27.1760   -3.8560 N.am  119  ASN119     -0.0877
    146  N        -13.3780   29.2810   -1.4970 N.am  120  LYS120     -0.1980
    147  CA       -14.8130   29.0090   -1.2530 C.3   120  LYS120      0.1596
    148  C        -15.4840   30.0940   -0.4030 C.2   120  LYS120      0.2287
    149  O        -16.4710   29.8640    0.2920 O.2   120  LYS120     -0.2864
    150  CB       -15.0600   27.6010   -0.6740 C.3   120  LYS120      0.0298
    151  CG       -14.3990   26.4610   -1.4750 C.3   120  LYS120      0.0038
    152  CD       -15.0360   25.1020   -1.1990 C.3   120  LYS120      0.0206
    153  CE       -14.3110   23.9530   -1.9630 C.3   120  LYS120      0.1093
    154  NZ       -14.7420   22.5900   -1.5020 N.3   120  LYS120     -0.1314
    155  N        -17.4770   32.1690   -1.1950 N.3   122  ASP122     -0.1225
    156  CA       -18.9050   32.2880   -1.5300 C.3   122  ASP122      0.1805
    157  C        -19.8200   31.4600   -0.6070 C.2   122  ASP122      0.2597
    158  O        -21.0360   31.6040   -0.6050 O.2   122  ASP122     -0.2718
    159  CB       -19.1340   31.8580   -2.9750 C.3   122  ASP122      0.1424
    160  CG       -18.8750   30.3680   -3.1930 C.2   122  ASP122      0.3668
    161  OD1      -17.6920   29.9490   -3.2520 O.co2 122  ASP122     -0.2456
    162  OD2      -19.8690   29.6220   -3.3310 O.co2 122  ASP122     -0.2456
    163  N        -19.2240   30.5680    0.1580 N.am  123  ILE123     -0.1980
    164  CA       -19.9880   29.7580    1.0780 C.3   123  ILE123      0.1595
    165  C        -20.1100   30.4640    2.4300 C.2   123  ILE123      0.2287
    166  O        -19.1130   30.7260    3.0960 O.2   123  ILE123     -0.2864
    167  CB       -19.3440   28.3760    1.1880 C.3   123  ILE123      0.0276
    168  CG1      -19.5310   27.6460   -0.1480 C.3   123  ILE123      0.0022
    169  CG2      -19.9160   27.5880    2.3630 C.3   123  ILE123      0.0022
    170  CD1      -18.7750   26.3750   -0.2510 C.3   123  ILE123      0.0001
    171  N        -12.7990   32.7670   -4.3430 N.3   149  SER149     -0.1202
    172  CA       -13.8570   31.8660   -4.7340 C.3   149  SER149      0.2020
    173  C        -13.6270   31.5170   -6.1840 C.2   149  SER149      0.2619
    174  O        -13.8030   32.3570   -7.0540 O.2   149  SER149     -0.2717
    175  CB       -15.2310   32.5240   -4.5610 C.3   149  SER149      0.2103
    176  OG       -16.2560   31.7960   -5.2270 O.3   149  SER149     -0.2182
    177  N        -13.2090   30.2840   -6.4440 N.am  150  ALA150     -0.1965
    178  CA       -13.1710   29.8030   -7.8190 C.3   150  ALA150      0.1728
    179  C        -14.5670   29.7940   -8.4580 C.2   150  ALA150      0.2616
    180  O        -14.7050   29.9660   -9.6560 O.2   150  ALA150     -0.2715
    181  CB       -12.5380   28.4410   -7.8850 C.3   150  ALA150      0.0334
    182  N        -15.6070   29.6190   -7.6540 N.am  151  LYS151     -0.1977
    183  CA       -16.9580   29.5620   -8.1930 C.3   151  LYS151      0.1596
    184  C        -17.4190   30.9120   -8.7730 C.2   151  LYS151      0.2287
    185  O        -18.0310   30.9580   -9.8460 O.2   151  LYS151     -0.2864
    186  CB       -17.9370   29.0810   -7.1190 C.3   151  LYS151      0.0298
    187  CG       -19.3560   28.9000   -7.6210 C.3   151  LYS151      0.0038
    188  CD       -20.2340   28.2560   -6.5630 C.3   151  LYS151      0.0206
    189  CE       -21.5930   27.8980   -7.1410 C.3   151  LYS151      0.1093
    190  NZ       -22.5510   27.4460   -6.0970 N.3   151  LYS151     -0.1314
@<TRIPOS>BOND
     1    41    42    1
     2    59    57   ar
     3    73    72    2
     4    44    43    2
     5    57    58   ar
     6    57    56    1
     7    74    72   am
     8    56    53    1
     9    43    42    1
    10    43    52   am
    11    72    71    1
    12    42    45    1
    13    52    53    1
    14    53    54    1
    15    45    46    1
    16    71    70    1
    17    70    67    1
    18    93    92   ar
    19    93    91   ar
    20    92    90   ar
    21    54    60   am
    22    54    55    2
    23    32    31    2
    24    91    89   ar
    25    60    61    1
    26    90    88   ar
    27   115   116    1
    28   115   112    1
    29    46    48   ar
    30    46    47   ar
    31   111   112    1
    32    89    88   ar
    33    88    87    1
    34   118   116   ar
    35    38    37    2
    36    48    50   ar
    37    65    64    1
    38    66    67    1
    39    66    62   am
    40    87    84    1
    41    67    68    1
    42   114   113    2
    43    31    30    1
    44    31    35   am
    45   116   117   ar
    46   112   113    1
    47    34    33    1
    48    47    49   ar
    49    33    30    1
    50   185   184    2
    51    37    36    1
    52    61    64    1
    53    61    62    1
    54    36    35    1
    55    36    39    1
    56    30    29    1
    57   180   179    2
    58   109   108    1
    59   110   108    1
    60   113   119   am
    61    62    63    2
    62    68    69    2
    63    68    75   am
    64    50    51   ar
    65    78    77    2
    66   108   105    1
    67   105   106    1
    68   105   104    1
    69    84    83    1
    70    84    85    1
    71   184   183    1
    72    49    51   ar
    73    40    39    1
    74    75    76    1
    75    97    96    2
    76    23    22    2
    77   179   178    1
    78   179   182   am
    79    77    83   am
    80    77    76    1
    81   106   107    2
    82    86    85    2
    83   119   120    1
    84    29    22   am
    85   183   182    1
    86   183   186    1
    87    85    94   am
    88   104    96   am
    89   181   178    1
    90    96    95    1
    91   178   177    1
    92    76    79    1
    93    22    21    1
    94   187   186    1
    95   187   188    1
    96   120   121    1
    97   120   123    1
    98    94    95    1
    99   125   123    1
   100   189   188    1
   101   189   190    1
   102   174   173    2
   103   121   122    2
   104    95    98    1
   105    79    80    1
   106   123   124    1
   107   177   173   am
   108    19    18    2
   109    21    24    1
   110    21    20    1
   111   173   172    1
   112    80    82    1
   113    80    81    1
   114    24    25    1
   115    98    99    1
   116    18    20   am
   117    18    17    1
   118   176   175    1
   119    17    16    1
   120   172   175    1
   121   172   171    1
   122    99   101   ar
   123    99   100   ar
   124    25    26    1
   125    27    26    1
   126    27    28    1
   127   144   143    2
   128   145   143   am
   129   101   103   ar
   130   100   102   ar
   131   126   127    1
   132    16    11   am
   133   143   142    1
   134   162   160   ar
   135   161   160   ar
   136   160   159    1
   137   159   156    1
   138   103   102   ar
   139    11    12    2
   140    11    10    1
   141   136   135    1
   142   127   128    1
   143     6     5    1
   144     6     7    1
   145     5     3   am
   146   142   139    1
   147   153   154    1
   148   153   152    1
   149     7     8    2
   150     7     9   am
   151   135   134    1
   152   135   137    1
   153   130   128   am
   154   130   131    1
   155     9    10    1
   156   156   155    1
   157   156   157    1
   158   146   147    1
   159   146   140   am
   160   134   131    1
   161   151   152    1
   162   151   150    1
   163    15    13    1
   164   128   129    2
   165   147   150    1
   166   147   148    1
   167    10    13    1
   168     2     3    1
   169     2     1    1
   170   133   132    2
   171   139   140    1
   172   139   138    1
   173     3     4    2
   174   131   132    1
   175   157   158    2
   176   157   163   am
   177   140   141    2
   178    13    14    1
   179   148   149    2
   180   170   168    1
   181   168   167    1
   182   163   164    1
   183   164   167    1
   184   164   165    1
   185   167   169    1
   186   165   166    2
