@<TRIPOS>MOLECULE
tmp/4qxbA00.pdb
 126 115 0 0 0
SMALL
GASTEIGER

@<TRIPOS>ATOM
      1  N        -16.6530    4.8880    2.4640 N.3   107  ASN107     -0.1240
      2  CA       -15.3200    5.2980    2.9550 C.3   107  ASN107      0.1653
      3  C        -14.3140    4.4370    2.2170 C.2   107  ASN107      0.2266
      4  O        -14.5400    3.2450    2.0180 O.2   107  ASN107     -0.2867
      5  CB       -15.2460    4.9650    4.4850 C.3   107  ASN107      0.1155
      6  CG       -14.1550    5.7120    5.2210 C.2   107  ASN107      0.2627
      7  OD1      -13.9760    5.5360    6.4810 O.2   107  ASN107     -0.2716
      8  ND2      -13.4490    6.5000    4.5440 N.am  107  ASN107     -0.0877
      9  N        -10.5250    3.2060    3.0070 N.3   109  ILE109     -0.1245
     10  CA        -9.4230    3.2580    3.9610 C.3   109  ILE109      0.1561
     11  C         -8.3270    2.2850    3.5150 C.2   109  ILE109      0.2260
     12  O         -7.3060    2.1430    4.2570 O.2   109  ILE109     -0.2867
     13  CB        -9.9120    2.8660    5.4250 C.3   109  ILE109      0.0252
     14  CG1      -10.4040    1.4510    5.5610 C.3   109  ILE109      0.0019
     15  CG2      -11.0060    3.8370    5.9080 C.3   109  ILE109      0.0019
     16  CD1      -10.4690    1.1030    7.0670 C.3   109  ILE109      0.0001
     17  N         -6.2820    7.0410    2.3600 N.3   166  LEU166     -0.1245
     18  CA        -7.6470    7.0170    2.9250 C.3   166  LEU166      0.1561
     19  C         -8.3980    8.2290    2.4230 C.2   166  LEU166      0.2260
     20  O         -7.9400    9.3490    2.5620 O.2   166  LEU166     -0.2867
     21  CB        -7.5880    7.0520    4.4530 C.3   166  LEU166      0.0270
     22  CG        -6.9840    5.8360    5.1750 C.3   166  LEU166      0.0019
     23  CD1       -5.4810    5.7810    5.1080 C.3   166  LEU166      0.0001
     24  CD2       -7.3700    5.8800    6.6530 C.3   166  LEU166      0.0001
     25  N        -18.3050    9.8110    7.6700 N.3   172  CYS172     -0.1235
     26  CA       -17.7770    8.4530    7.6740 C.3   172  CYS172      0.1677
     27  C        -17.4610    8.0080    9.1030 C.2   172  CYS172      0.2270
     28  O        -16.9410    8.8050    9.9010 O.2   172  CYS172     -0.2867
     29  CB       -16.5190    8.2860    6.8010 C.3   172  CYS172      0.0956
     30  SG       -16.9130    8.1150    5.0310 S.3   172  CYS172     -0.0801
     31  N        -15.7380    4.4200   11.0730 N.3   174  THR174     -0.1218
     32  CA       -15.1330    3.1190   11.0260 C.3   174  THR174      0.1862
     33  C        -15.2090    2.6020   12.4470 C.2   174  THR174      0.2287
     34  O        -14.6160    3.2190   13.3620 O.2   174  THR174     -0.2866
     35  CB       -13.6590    3.2570   10.5820 C.3   174  THR174      0.1770
     36  OG1      -13.6390    3.7670    9.2170 O.3   174  THR174     -0.2211
     37  CG2      -13.0140    1.8370   10.5680 C.3   174  THR174      0.0375
     38  N        -11.7700   -1.5470   16.0070 N.3   177  HIS177     -0.1241
     39  CA       -11.0340   -2.7200   15.5340 C.3   177  HIS177      0.1621
     40  C         -9.6270   -2.5880   15.9930 C.2   177  HIS177      0.2264
     41  O         -9.2110   -1.4960   16.4730 O.2   177  HIS177     -0.2867
     42  CB       -11.1160   -2.7020   13.9800 C.3   177  HIS177      0.0745
     43  CG       -10.4780   -1.4860   13.4070 C.ar  177  HIS177      0.0817
     44  ND1      -11.1280   -0.2680   13.3110 N.ar  177  HIS177     -0.2268
     45  CD2       -9.2100   -1.2950   12.9420 C.ar  177  HIS177      0.1154
     46  CE1      -10.2680    0.6360   12.8400 C.ar  177  HIS177      0.1986
     47  NE2       -9.1190    0.0200   12.5670 N.ar  177  HIS177     -0.2212
     48  N         -5.8290   -3.0910   14.1740 N.3   179  ASP179     -0.1239
     49  CA        -5.2090   -3.2990   12.8510 C.3   179  ASP179      0.1674
     50  C         -4.5520   -4.6620   12.7000 C.2   179  ASP179      0.2266
     51  O         -4.1540   -5.3090   13.7020 O.2   179  ASP179     -0.2867
     52  CB        -4.2740   -2.1020   12.5270 C.3   179  ASP179      0.1410
     53  CG        -5.0620   -0.9990   11.8170 C.2   179  ASP179      0.3668
     54  OD1       -5.8720   -0.3770   12.4780 O.co2 179  ASP179     -0.2456
     55  OD2       -5.1210   -0.9310   10.5930 O.co2 179  ASP179     -0.2456
     56  N          0.4040    1.6830   13.4140 N.3   185  VAL185     -0.1245
     57  CA        -0.0440    2.4870   12.3090 C.3   185  VAL185      0.1561
     58  C          0.5650    3.8630   12.4310 C.2   185  VAL185      0.2260
     59  O          0.6850    4.3570   13.5290 O.2   185  VAL185     -0.2867
     60  CB        -1.6050    2.5960   12.3530 C.3   185  VAL185      0.0252
     61  CG1       -2.1240    3.6070   11.3360 C.3   185  VAL185      0.0019
     62  CG2       -2.1530    1.1910   12.1160 C.3   185  VAL185      0.0019
     63  N         -0.2470    7.7620   10.6080 N.3   187  TYR187     -0.1241
     64  CA        -1.4420    8.3260    9.9860 C.3   187  TYR187      0.1605
     65  C         -1.2190    9.8230    9.8720 C.2   187  TYR187      0.2264
     66  O         -1.1070   10.5080   10.9130 O.2   187  TYR187     -0.2867
     67  CB        -2.5150    7.9510   10.9900 C.3   187  TYR187      0.0534
     68  CG        -3.9340    8.1230   10.6250 C.ar  187  TYR187     -0.0201
     69  CD1       -4.5380    9.3800   10.8070 C.ar  187  TYR187     -0.0009
     70  CD2       -4.7380    7.0270   10.1800 C.ar  187  TYR187     -0.0009
     71  CE1       -5.9090    9.5580   10.4960 C.ar  187  TYR187      0.0417
     72  CE2       -6.1250    7.2220    9.9010 C.ar  187  TYR187      0.0417
     73  CZ        -6.6720    8.4700   10.0420 C.ar  187  TYR187      0.1957
     74  OH        -8.0300    8.6710    9.7780 O.3   187  TYR187     -0.2866
     75  N         -9.9640   14.2630   11.6390 N.3   194  LYS194     -0.1245
     76  CA       -10.5460   12.9650   12.0870 C.3   194  LYS194      0.1561
     77  C        -10.7610   12.9860   13.5630 C.2   194  LYS194      0.2260
     78  O        -10.1390   13.7740   14.2590 O.2   194  LYS194     -0.2867
     79  CB        -9.5540   11.8270   11.7920 C.3   194  LYS194      0.0271
     80  CG        -9.4090   11.5420   10.2570 C.3   194  LYS194      0.0035
     81  CD       -10.6060   10.7230    9.7290 C.3   194  LYS194      0.0206
     82  CE       -10.4240   10.2830    8.2750 C.3   194  LYS194      0.1093
     83  NZ       -11.2410    9.0900    8.0250 N.3   194  LYS194     -0.1314
     84  N        -10.7760   10.2270   16.7740 N.3   196  PHE196     -0.1241
     85  CA       -10.5310    8.8190   17.1410 C.3   196  PHE196      0.1605
     86  C        -11.0150    8.5330   18.5280 C.2   196  PHE196      0.2264
     87  O        -10.9270    9.4230   19.4340 O.2   196  PHE196     -0.2867
     88  CB        -8.9990    8.5520   17.1990 C.3   196  PHE196      0.0534
     89  CG        -8.3700    8.1550   15.8460 C.ar  196  PHE196     -0.0203
     90  CD1       -8.1910    9.0810   14.8600 C.ar  196  PHE196     -0.0042
     91  CD2       -7.9670    6.8560   15.6370 C.ar  196  PHE196     -0.0042
     92  CE1       -7.6320    8.7510   13.6170 C.ar  196  PHE196     -0.0003
     93  CE2       -7.3690    6.4990   14.4230 C.ar  196  PHE196     -0.0003
     94  CZ        -7.2260    7.4450   13.4040 C.ar  196  PHE196     -0.0000
     95  N         -0.2480    4.9250   16.1150 N.3   243  ILE243     -0.1245
     96  CA        -0.9890    4.0430   16.9920 C.3   243  ILE243      0.1561
     97  C         -0.1860    2.7680   17.3130 C.2   243  ILE243      0.2260
     98  O          0.2690    2.0530   16.3770 O.2   243  ILE243     -0.2867
     99  CB        -2.2640    3.5600   16.2600 C.3   243  ILE243      0.0252
    100  CG1       -3.0420    4.7580   15.6460 C.3   243  ILE243      0.0019
    101  CG2       -3.1510    2.7790   17.2800 C.3   243  ILE243      0.0019
    102  CD1       -4.3330    4.3150   14.9700 C.3   243  ILE243      0.0001
    103  N         -9.4990    0.8710   18.2750 N.3   249  HIS249     -0.1241
    104  CA        -9.8920    2.2640   17.9440 C.3   249  HIS249      0.1621
    105  C        -11.0210    2.2880   16.9510 C.2   249  HIS249      0.2264
    106  O        -11.1870    1.3730   16.1120 O.2   249  HIS249     -0.2867
    107  CB        -8.6490    3.0540   17.4090 C.3   249  HIS249      0.0745
    108  CG        -7.9880    2.4170   16.2110 C.ar  249  HIS249      0.0817
    109  ND1       -7.1800    1.2890   16.3040 N.ar  249  HIS249     -0.2268
    110  CD2       -7.9960    2.7700   14.9080 C.ar  249  HIS249      0.1154
    111  CE1       -6.7940    0.9270   15.0870 C.ar  249  HIS249      0.1986
    112  NE2       -7.2870    1.8150   14.2310 N.ar  249  HIS249     -0.2212
    113  N        -13.1290    5.4980   14.3640 N.3   251  VAL251     -0.1245
    114  CA       -12.7310    6.7540   13.7620 C.3   251  VAL251      0.1561
    115  C        -13.9240    7.3960   13.1010 C.2   251  VAL251      0.2260
    116  O        -14.6400    6.7370   12.3050 O.2   251  VAL251     -0.2867
    117  CB       -11.6740    6.5150   12.6430 C.3   251  VAL251      0.0252
    118  CG1      -11.2070    7.9310   12.2050 C.3   251  VAL251      0.0019
    119  CG2      -10.5030    5.6910   13.1910 C.3   251  VAL251      0.0019
    120  N        -15.3020   10.8630   10.7380 N.3   253  THR253     -0.1218
    121  CA       -14.7560   11.8980    9.8240 C.3   253  THR253      0.1862
    122  C        -15.6750   13.1350    9.7800 C.2   253  THR253      0.2287
    123  O        -16.7720   13.0590    9.2380 O.2   253  THR253     -0.2866
    124  CB       -14.6840   11.3030    8.4180 C.3   253  THR253      0.1770
    125  OG1      -13.8660   10.1030    8.4620 O.3   253  THR253     -0.2211
    126  CG2      -13.9810   12.3770    7.4700 C.3   253  THR253      0.0375
@<TRIPOS>BOND
     1     4     3    2
     2     3     2    1
     3    17    18    1
     4    19    20    2
     5    19    18    1
     6     1     2    1
     7    18    21    1
     8     2     5    1
     9     9    10    1
    10    11    10    1
    11    11    12    2
    12    10    13    1
    13    21    22    1
    14     5     6    1
    15     8     6   am
    16    30    29    1
    17    23    22    1
    18    22    24    1
    19     6     7    2
    20    13    14    1
    21    13    15    1
    22    14    16    1
    23    29    26    1
    24   126   124    1
    25    25    26    1
    26    26    27    1
    27    83    82    1
    28    82    81    1
    29   124   125    1
    30   124   121    1
    31    27    28    2
    32    36    35    1
    33   123   122    2
    34    81    80    1
    35    74    73    1
    36   122   121    1
    37   121   120    1
    38    65    64    1
    39    65    66    2
    40    72    73   ar
    41    72    70   ar
    42    64    63    1
    43    64    67    1
    44    73    71   ar
    45    70    68   ar
    46    80    79    1
    47    71    69   ar
    48    37    35    1
    49    35    32    1
    50    55    53   ar
    51    68    69   ar
    52    68    67    1
    53    32    31    1
    54    32    33    1
    55    61    60    1
    56    75    76    1
    57    79    76    1
    58    53    54   ar
    59    53    52    1
    60    76    77    1
    61    62    60    1
    62   118   117    1
    63   116   115    2
    64    57    60    1
    65    57    58    1
    66    57    56    1
    67    58    59    2
    68    33    34    2
    69    52    49    1
    70    47    46   ar
    71    47    45   ar
    72   117   119    1
    73   117   114    1
    74    50    49    1
    75    50    51    2
    76    46    44   ar
    77    49    48    1
    78    45    43   ar
    79   115   114    1
    80    44    43   ar
    81    94    92   ar
    82    94    93   ar
    83    43    42    1
    84    77    78    2
    85    92    90   ar
    86   114   113    1
    87    42    39    1
    88   112   110   ar
    89   112   111   ar
    90    93    91   ar
    91    90    89   ar
    92   110   108   ar
    93   102   100    1
    94   111   109   ar
    95    39    40    1
    96    39    38    1
    97    91    89   ar
    98   100    99    1
    99    89    88    1
   100    40    41    2
   101   106   105    2
   102    95    96    1
   103   108   109   ar
   104   108   107    1
   105    99    96    1
   106    99   101    1
   107    98    97    2
   108    84    85    1
   109   105   104    1
   110    96    97    1
   111    85    88    1
   112    85    86    1
   113   107   104    1
   114   104   103    1
   115    86    87    2
