@<TRIPOS>MOLECULE
tmp/4qxiA01.pdb
 191 192 0 0 0
SMALL
GASTEIGER

@<TRIPOS>ATOM
      1  N         54.0020  -10.6390   92.6090 N.3    21  TRP21      -0.1241
      2  CA        53.5200  -11.3380   93.7970 C.3    21  TRP21       0.1605
      3  C         52.4310  -12.3350   93.3900 C.2    21  TRP21       0.2264
      4  O         51.4780  -11.9550   92.7070 O.2    21  TRP21      -0.2867
      5  CB        52.9810  -10.3490   94.8310 C.3    21  TRP21       0.0550
      6  CG        52.3500  -10.9870   96.0400 C.ar   21  TRP21       0.0003
      7  CD1       52.7550  -12.1210   96.6980 C.ar   21  TRP21       0.0946
      8  CD2       51.1760  -10.5300   96.7110 C.ar   21  TRP21       0.0152
      9  NE1       51.8890  -12.3950   97.7320 N.ar   21  TRP21      -0.2442
     10  CE2       50.9130  -11.4300   97.7610 C.ar   21  TRP21       0.0810
     11  CE3       50.3170   -9.4420   96.5210 C.ar   21  TRP21       0.0012
     12  CZ2       49.8220  -11.2740   98.6190 C.ar   21  TRP21       0.0191
     13  CZ3       49.2380   -9.2870   97.3690 C.ar   21  TRP21       0.0001
     14  CH2       48.9980  -10.1970   98.4040 C.ar   21  TRP21       0.0015
     15  N         60.5600  -11.9820   99.2410 N.3    48  VAL48      -0.1231
     16  CA        59.5200  -12.7160   99.9540 C.3    48  VAL48       0.1692
     17  C         58.5310  -13.3850   98.9810 C.2    48  VAL48       0.2592
     18  O         57.8040  -14.2960   99.3780 O.2    48  VAL48      -0.2718
     19  CB        58.7910  -11.7730  100.9550 C.3    48  VAL48       0.0266
     20  CG1       57.8400  -10.8270  100.2380 C.3    48  VAL48       0.0020
     21  CG2       58.0640  -12.5500  102.0630 C.3    48  VAL48       0.0020
     22  N         58.5120  -12.9660   97.7140 N.am   49  TYR49      -0.1962
     23  CA        57.6020  -13.5870   96.7450 C.3    49  TYR49       0.1771
     24  C         58.0770  -14.9890   96.3220 C.2    49  TYR49       0.2619
     25  O         57.3030  -15.7390   95.7400 O.2    49  TYR49      -0.2715
     26  CB        57.4150  -12.7080   95.4940 C.3    49  TYR49       0.0574
     27  CG        56.8560  -11.3250   95.7700 C.ar   49  TYR49      -0.0198
     28  CD1       56.2400  -11.0160   96.9810 C.ar   49  TYR49      -0.0009
     29  CD2       56.9500  -10.3210   94.8120 C.ar   49  TYR49      -0.0009
     30  CE1       55.7570   -9.7340   97.2400 C.ar   49  TYR49       0.0417
     31  CE2       56.4640   -9.0390   95.0610 C.ar   49  TYR49       0.0417
     32  CZ        55.8830   -8.7490   96.2800 C.ar   49  TYR49       0.1957
     33  OH        55.4200   -7.4680   96.5250 O.3    49  TYR49      -0.2866
     34  N         59.3420  -15.3150   96.6090 N.am   50  GLN50      -0.1977
     35  CA        59.9440  -16.6410   96.4140 C.3    50  GLN50       0.1601
     36  C         60.0800  -17.0580   94.9560 C.2    50  GLN50       0.2287
     37  O         60.2850  -18.2260   94.6790 O.2    50  GLN50      -0.2864
     38  CB        59.1740  -17.7280   97.1960 C.3    50  GLN50       0.0394
     39  CG        59.1940  -17.4990   98.7040 C.3    50  GLN50       0.0908
     40  CD        58.5570  -18.6120   99.5300 C.2    50  GLN50       0.2608
     41  OE1       57.8100  -18.3510  100.4690 O.2    50  GLN50      -0.2717
     42  NE2       58.8640  -19.8590   99.1920 N.am   50  GLN50      -0.0878
     43  N         63.2290   -7.7180  102.7320 N.3    80  TRP80      -0.1241
     44  CA        62.1880   -8.2720  103.5770 C.3    80  TRP80       0.1605
     45  C         62.4460   -7.9210  105.0630 C.2    80  TRP80       0.2264
     46  O         63.5540   -7.5520  105.4810 O.2    80  TRP80      -0.2867
     47  CB        62.0260   -9.8000  103.3430 C.3    80  TRP80       0.0550
     48  CG        60.8730  -10.3180  104.1530 C.ar   80  TRP80       0.0003
     49  CD1       60.9360  -11.1700  105.2230 C.ar   80  TRP80       0.0946
     50  CD2       59.5100   -9.8720  104.0750 C.ar   80  TRP80       0.0152
     51  NE1       59.7050  -11.2960  105.7960 N.ar   80  TRP80      -0.2442
     52  CE2       58.8100  -10.5110  105.1170 C.ar   80  TRP80       0.0810
     53  CE3       58.8120   -8.9980  103.2180 C.ar   80  TRP80       0.0012
     54  CZ2       57.4480  -10.3210  105.3260 C.ar   80  TRP80       0.0191
     55  CZ3       57.4590   -8.8070  103.4220 C.ar   80  TRP80       0.0001
     56  CH2       56.7870   -9.4720  104.4670 C.ar   80  TRP80       0.0015
     57  N         60.6330   -3.1030  102.3170 N.3   111  HIS111     -0.1226
     58  CA        59.3280   -3.6500  101.9300 C.3   111  HIS111      0.1752
     59  C         58.1970   -3.1890  102.8710 C.2   111  HIS111      0.2596
     60  O         57.1090   -2.8420  102.4060 O.2   111  HIS111     -0.2718
     61  CB        59.4320   -5.1810  101.8740 C.3   111  HIS111      0.0759
     62  CG        58.3910   -5.8490  101.0410 C.ar  111  HIS111      0.0818
     63  ND1       58.6450   -7.0270  100.3770 N.ar  111  HIS111     -0.2268
     64  CD2       57.0960   -5.5310  100.7950 C.ar  111  HIS111      0.1154
     65  CE1       57.5430   -7.3950   99.7480 C.ar  111  HIS111      0.1986
     66  NE2       56.5890   -6.5090   99.9850 N.ar  111  HIS111     -0.2212
     67  N         58.4800   -3.2130  104.1750 N.am  112  TRP112     -0.1976
     68  CA        57.5730   -2.7290  105.2120 C.3   112  TRP112      0.1640
     69  C         58.4050   -1.9980  106.2550 C.2   112  TRP112      0.2290
     70  O         59.5660   -2.3380  106.4520 O.2   112  TRP112     -0.2864
     71  CB        56.8090   -3.8870  105.9000 C.3   112  TRP112      0.0576
     72  CG        55.8020   -4.5460  105.0130 C.ar  112  TRP112      0.0006
     73  CD1       56.0300   -5.5340  104.0970 C.ar  112  TRP112      0.0946
     74  CD2       54.4150   -4.2180  104.9150 C.ar  112  TRP112      0.0152
     75  NE1       54.8650   -5.8410  103.4280 N.ar  112  TRP112     -0.2442
     76  CE2       53.8600   -5.0450  103.9140 C.ar  112  TRP112      0.0810
     77  CE3       53.5830   -3.3080  105.5790 C.ar  112  TRP112      0.0012
     78  CZ2       52.5190   -4.9770  103.5520 C.ar  112  TRP112      0.0191
     79  CZ3       52.2570   -3.2430  105.2180 C.ar  112  TRP112      0.0001
     80  CH2       51.7360   -4.0750  104.2170 C.ar  112  TRP112      0.0015
     81  N         58.2560   -2.3620  109.3430 N.3   114  THR114     -0.1218
     82  CA        58.3760   -3.2710  110.4690 C.3   114  THR114      0.1862
     83  C         59.5480   -4.2470  110.3170 C.2   114  THR114      0.2287
     84  O         59.5610   -5.0540  109.3880 O.2   114  THR114     -0.2866
     85  CB        57.0940   -4.0990  110.5940 C.3   114  THR114      0.1770
     86  OG1       56.8130   -4.7090  109.3280 O.3   114  THR114     -0.2211
     87  CG2       55.9120   -3.2330  110.9620 C.3   114  THR114      0.0375
     88  N         61.4480   -7.5970  111.6680 N.3   116  PHE116     -0.1241
     89  CA        61.1540   -8.8420  112.3660 C.3   116  PHE116      0.1605
     90  C         62.4510   -9.5340  112.7770 C.2   116  PHE116      0.2264
     91  O         63.4960   -9.3370  112.1560 O.2   116  PHE116     -0.2867
     92  CB        60.3900   -9.8440  111.4900 C.3   116  PHE116      0.0534
     93  CG        59.0740   -9.3740  110.9090 C.ar  116  PHE116     -0.0203
     94  CD1       58.3790   -8.2630  111.3570 C.ar  116  PHE116     -0.0042
     95  CD2       58.5270  -10.1250  109.8730 C.ar  116  PHE116     -0.0042
     96  CE1       57.1670   -7.9140  110.7610 C.ar  116  PHE116     -0.0003
     97  CE2       57.3410   -9.7830  109.2810 C.ar  116  PHE116     -0.0003
     98  CZ        56.6560   -8.6810  109.7190 C.ar  116  PHE116     -0.0000
     99  N         57.9000  -14.8130  108.6890 N.3   123  PHE123     -0.1241
    100  CA        57.0300  -14.2640  109.7210 C.3   123  PHE123      0.1605
    101  C         57.2780  -15.0360  111.0210 C.2   123  PHE123      0.2264
    102  O         56.5090  -15.9240  111.3750 O.2   123  PHE123     -0.2867
    103  CB        55.5510  -14.3480  109.3230 C.3   123  PHE123      0.0534
    104  CG        55.1400  -13.3440  108.2730 C.ar  123  PHE123     -0.0203
    105  CD1       54.5940  -12.1210  108.6290 C.ar  123  PHE123     -0.0042
    106  CD2       55.3030  -13.6230  106.9240 C.ar  123  PHE123     -0.0042
    107  CE1       54.2170  -11.2070  107.6520 C.ar  123  PHE123     -0.0003
    108  CE2       54.9260  -12.7130  105.9490 C.ar  123  PHE123     -0.0003
    109  CZ        54.3780  -11.5100  106.3150 C.ar  123  PHE123     -0.0000
    110  N         54.9120    0.9430  101.9970 N.3   161  ASN161     -0.1240
    111  CA        53.9740    0.8540  103.1120 C.3   161  ASN161      0.1653
    112  C         54.3690    1.7440  104.2900 C.2   161  ASN161      0.2266
    113  O         54.0730    1.4210  105.4450 O.2   161  ASN161     -0.2867
    114  CB        53.8120   -0.5930  103.5910 C.3   161  ASN161      0.1155
    115  CG        53.3440   -1.5010  102.4940 C.2   161  ASN161      0.2627
    116  OD1       52.2250   -1.3470  101.9900 O.2   161  ASN161     -0.2716
    117  ND2       54.2010   -2.4260  102.0750 N.am  161  ASN161     -0.0877
    118  N         50.3760   -0.1170   94.1840 N.3   210  TYR210     -0.1241
    119  CA        50.2560   -1.5570   94.0990 C.3   210  TYR210      0.1605
    120  C         48.8080   -2.0130   94.2920 C.2   210  TYR210      0.2264
    121  O         47.9420   -1.2490   94.7060 O.2   210  TYR210     -0.2867
    122  CB        51.2230   -2.2430   95.0640 C.3   210  TYR210      0.0534
    123  CG        50.9500   -2.3070   96.5530 C.ar  210  TYR210     -0.0201
    124  CD1       49.8810   -3.0240   97.0750 C.ar  210  TYR210     -0.0009
    125  CD2       51.8650   -1.7730   97.4500 C.ar  210  TYR210     -0.0009
    126  CE1       49.7270   -3.1790   98.4490 C.ar  210  TYR210      0.0417
    127  CE2       51.7230   -1.9320   98.8230 C.ar  210  TYR210      0.0417
    128  CZ        50.6550   -2.6460   99.3170 C.ar  210  TYR210      0.1957
    129  OH        50.4900   -2.8600  100.6570 O.3   210  TYR210     -0.2866
    130  N         43.8100  -14.2090  101.0210 N.3   220  TRP220     -0.1241
    131  CA        42.8760  -14.0280  102.1260 C.3   220  TRP220      0.1605
    132  C         41.5600  -13.4110  101.6720 C.2   220  TRP220      0.2264
    133  O         40.7900  -12.8880  102.4820 O.2   220  TRP220     -0.2867
    134  CB        43.5100  -13.1600  103.2150 C.3   220  TRP220      0.0550
    135  CG        44.1450  -11.9050  102.6900 C.ar  220  TRP220      0.0003
    136  CD1       43.5090  -10.7480  102.3500 C.ar  220  TRP220      0.0946
    137  CD2       45.5430  -11.6790  102.4500 C.ar  220  TRP220      0.0152
    138  NE1       44.4210   -9.8160  101.9110 N.ar  220  TRP220     -0.2442
    139  CE2       45.6760  -10.3610  101.9670 C.ar  220  TRP220      0.0810
    140  CE3       46.6940  -12.4600  102.6050 C.ar  220  TRP220      0.0012
    141  CZ2       46.9120   -9.8100  101.6310 C.ar  220  TRP220      0.0191
    142  CZ3       47.9220  -11.9090  102.2740 C.ar  220  TRP220      0.0001
    143  CH2       48.0200  -10.5970  101.7910 C.ar  220  TRP220      0.0015
    144  N         46.1490   -5.2320  101.6220 N.3   299  CYS299     -0.1221
    145  CA        47.3140   -5.5800  102.4200 C.3   299  CYS299      0.1808
    146  C         47.2560   -4.9980  103.8040 C.2   299  CYS299      0.2601
    147  O         47.5220   -3.8120  104.0240 O.2   299  CYS299     -0.2717
    148  CB        48.5980   -5.1250  101.7460 C.3   299  CYS299      0.0970
    149  SG        49.1790   -6.2940  100.5620 S.3   299  CYS299     -0.0800
    150  N         46.8870   -5.8780  104.7200 N.am  300  ALA300     -0.1965
    151  CA        46.9170   -5.6600  106.1440 C.3   300  ALA300      0.1728
    152  C         47.1640   -7.0410  106.7130 C.2   300  ALA300      0.2616
    153  O         46.8920   -8.0450  106.0520 O.2   300  ALA300     -0.2715
    154  CB        45.6150   -5.0700  106.6450 C.3   300  ALA300      0.0334
    155  N         47.6920   -7.1170  107.9200 N.am  301  LEU301     -0.1977
    156  CA        47.9470   -8.4260  108.4820 C.3   301  LEU301      0.1596
    157  C         47.8490   -8.3980  109.9900 C.2   301  LEU301      0.2287
    158  O         48.6420   -7.7370  110.6590 O.2   301  LEU301     -0.2864
    159  CB        49.3160   -8.9360  108.0440 C.3   301  LEU301      0.0297
    160  CG        49.5660  -10.4100  108.3560 C.3   301  LEU301      0.0022
    161  CD1       48.5000  -11.2960  107.7220 C.3   301  LEU301      0.0001
    162  CD2       50.9380  -10.8070  107.8880 C.3   301  LEU301      0.0001
    163  N         50.6920   -8.7640  112.6550 N.3   304  CYS304     -0.1235
    164  CA        51.7060   -7.7210  112.7710 C.3   304  CYS304      0.1677
    165  C         51.1810   -6.4000  113.3450 C.2   304  CYS304      0.2270
    166  O         51.9350   -5.4380  113.4690 O.2   304  CYS304     -0.2867
    167  CB        52.3460   -7.4710  111.4020 C.3   304  CYS304      0.0956
    168  SG        53.1590   -8.9300  110.6920 S.3   304  CYS304     -0.0801
    169  N         53.9590   -0.8230  112.9170 N.3   310  TYR310     -0.1241
    170  CA        52.8780   -1.1970  112.0000 C.3   310  TYR310      0.1605
    171  C         52.2280    0.0820  111.4700 C.2   310  TYR310      0.2264
    172  O         51.8320    0.9360  112.2570 O.2   310  TYR310     -0.2867
    173  CB        51.8440   -2.0920  112.6900 C.3   310  TYR310      0.0534
    174  CG        50.7720   -2.6470  111.7660 C.ar  310  TYR310     -0.0201
    175  CD1       51.0120   -3.7700  110.9800 C.ar  310  TYR310     -0.0009
    176  CD2       49.5140   -2.0580  111.6950 C.ar  310  TYR310     -0.0009
    177  CE1       50.0330   -4.2840  110.1410 C.ar  310  TYR310      0.0417
    178  CE2       48.5320   -2.5640  110.8560 C.ar  310  TYR310      0.0417
    179  CZ        48.7980   -3.6790  110.0880 C.ar  310  TYR310      0.1957
    180  OH        47.8300   -4.1890  109.2600 O.3   310  TYR310     -0.2866
    181  N         49.4320    1.1400  109.7060 N.3   312  PHE312     -0.1241
    182  CA        48.0610    1.5190  109.3590 C.3   312  PHE312      0.1605
    183  C         47.1650    1.8370  110.5630 C.2   312  PHE312      0.2264
    184  O         45.9370    1.8010  110.4620 O.2   312  PHE312     -0.2867
    185  CB        47.4330    0.4230  108.4880 C.3   312  PHE312      0.0534
    186  CG        48.2540    0.0770  107.2680 C.ar  312  PHE312     -0.0203
    187  CD1       48.9180    1.0690  106.5520 C.ar  312  PHE312     -0.0042
    188  CD2       48.3720   -1.2360  106.8410 C.ar  312  PHE312     -0.0042
    189  CE1       49.6870    0.7540  105.4390 C.ar  312  PHE312     -0.0003
    190  CE2       49.1300   -1.5560  105.7240 C.ar  312  PHE312     -0.0003
    191  CZ        49.7850   -0.5590  105.0200 C.ar  312  PHE312     -0.0000
@<TRIPOS>BOND
     1     1     2    1
     2     4     3    2
     3     3     2    1
     4     2     5    1
     5   119   118    1
     6   119   120    1
     7   119   122    1
     8   120   121    2
     9    37    36    2
    10    29    31   ar
    11    29    27   ar
    12     5     6    1
    13    36    35    1
    14    31    32   ar
    15   122   123    1
    16    26    27    1
    17    26    23    1
    18    25    24    2
    19    27    28   ar
    20     6     7   ar
    21     6     8   ar
    22    32    33    1
    23    32    30   ar
    24    24    34   am
    25    24    23    1
    26    35    34    1
    27    35    38    1
    28    11     8   ar
    29    11    13   ar
    30   123   124   ar
    31   123   125   ar
    32     7     9   ar
    33     8    10   ar
    34    23    22    1
    35    28    30   ar
    36   124   126   ar
    37    38    39    1
    38    13    14   ar
    39   125   127   ar
    40    22    17   am
    41     9    10   ar
    42    10    12   ar
    43    14    12   ar
    44   126   128   ar
    45    39    40    1
    46   127   128   ar
    47    17    18    2
    48    17    16    1
    49    42    40   am
    50    15    16    1
    51   128   129    1
    52    40    41    2
    53    65    66   ar
    54    65    63   ar
    55    16    19    1
    56    66    64   ar
    57    20    19    1
    58    63    62   ar
    59   149   148    1
    60    64    62   ar
    61    19    21    1
    62   130   131    1
    63    62    61    1
    64   144   145    1
    65   141   143   ar
    66   141   139   ar
    67   132   131    1
    68   132   133    2
    69   148   145    1
    70   143   142   ar
    71    61    58    1
    72   138   139   ar
    73   138   136   ar
    74    58    57    1
    75    58    59    1
    76   139   137   ar
    77   116   115    2
    78   110   111    1
    79   117   115   am
    80   131   134    1
    81   142   140   ar
    82   136   135   ar
    83    60    59    2
    84   145   146    1
    85   137   140   ar
    86   137   135   ar
    87   115   114    1
    88   135   134    1
    89    43    44    1
    90    59    67   am
    91   111   114    1
    92   111   112    1
    93    53    55   ar
    94    53    50   ar
    95    47    44    1
    96    47    48    1
    97    55    56   ar
    98    75    76   ar
    99    75    73   ar
   100    78    76   ar
   101    78    80   ar
   102    44    45    1
   103   146   147    2
   104   146   150   am
   105    76    74   ar
   106    50    48   ar
   107    50    52   ar
   108    73    72   ar
   109    48    49   ar
   110    67    68    1
   111    80    79   ar
   112   112   113    2
   113    56    54   ar
   114   150   151    1
   115    74    72   ar
   116    74    77   ar
   117    72    71    1
   118   191   189   ar
   119   191   190   ar
   120    45    46    2
   121    52    54   ar
   122    52    51   ar
   123    68    71    1
   124    68    69    1
   125    79    77   ar
   126    49    51   ar
   127   189   187   ar
   128   190   188   ar
   129   108   109   ar
   130   108   106   ar
   131   153   152    2
   132   151   154    1
   133   151   152    1
   134    69    70    2
   135   109   107   ar
   136   187   186   ar
   137   152   155   am
   138   188   186   ar
   139   106   104   ar
   140   186   185    1
   141   107   105   ar
   142   161   160    1
   143   162   160    1
   144   155   156    1
   145   159   160    1
   146   159   156    1
   147   104   105   ar
   148   104   103    1
   149   156   157    1
   150   185   182    1
   151    99   100    1
   152   180   179    1
   153    97    98   ar
   154    97    95   ar
   155   103   100    1
   156    86    85    1
   157    81    82    1
   158   182   181    1
   159   182   183    1
   160    84    83    2
   161    98    96   ar
   162   100   101    1
   163    95    93   ar
   164   157   158    2
   165   179   177   ar
   166   179   178   ar
   167   177   175   ar
   168    83    82    1
   169   184   183    2
   170    82    85    1
   171    85    87    1
   172   168   167    1
   173    96    94   ar
   174   178   176   ar
   175    93    94   ar
   176    93    92    1
   177   175   174   ar
   178   101   102    2
   179   167   164    1
   180   171   170    1
   181   171   172    2
   182    92    89    1
   183    88    89    1
   184   176   174   ar
   185   174   173    1
   186   170   173    1
   187   170   169    1
   188    91    90    2
   189    89    90    1
   190   163   164    1
   191   164   165    1
   192   165   166    2
