@<TRIPOS>MOLECULE
tmp/4qxjH00.pdb
 135 127 0 0 0
SMALL
GASTEIGER

@<TRIPOS>ATOM
      1  N         64.6600 -138.2920   44.5700 N.3     1  THR1       -0.1218
      2  CA        65.2840 -137.6750   45.7890 C.3     1  THR1        0.1862
      3  C         65.4090 -138.3590   47.1540 C.2     1  THR1        0.2287
      4  O         64.5060 -139.0370   47.6300 O.2     1  THR1       -0.2866
      5  CB        64.5770 -136.3310   45.9790 C.3     1  THR1        0.1770
      6  OG1       64.6690 -135.6530   44.7290 O.3     1  THR1       -0.2211
      7  CG2       65.2460 -135.4210   47.0130 C.3     1  THR1        0.0375
      8  N         70.8720 -136.2890   42.4430 N.3    19  ARG19      -0.1231
      9  CA        70.3550 -137.0020   41.2690 C.3    19  ARG19       0.1694
     10  C         68.9910 -136.4580   40.8610 C.2    19  ARG19       0.2593
     11  O         68.1450 -136.1940   41.7100 O.2    19  ARG19      -0.2718
     12  CB        70.2400 -138.5060   41.5420 C.3    19  ARG19       0.0321
     13  CG        69.6170 -139.2970   40.3960 C.3    19  ARG19       0.0489
     14  CD        69.6170 -140.7910   40.6620 C.3    19  ARG19       0.2205
     15  NE        70.9580 -141.3630   40.5980 N.pl3  19  ARG19      -0.0865
     16  CZ        71.2330 -142.6610   40.7030 C.cat  19  ARG19       0.5346
     17  NH1       70.2620 -143.5490   40.8800 N.pl3  19  ARG19       0.1354
     18  NH2       72.4920 -143.0750   40.6290 N.pl3  19  ARG19       0.1354
     19  N         68.7910 -136.3030   39.5560 N.am   20  SER20      -0.1938
     20  CA        67.4930 -135.9390   38.9920 C.3    20  SER20       0.2055
     21  C         67.1100 -136.9960   37.9630 C.2    20  SER20       0.2644
     22  O         67.9440 -137.3930   37.1470 O.2    20  SER20      -0.2714
     23  CB        67.5640 -134.5600   38.3360 C.3    20  SER20       0.2130
     24  OG        66.3040 -134.1740   37.8180 O.3    20  SER20      -0.2179
     25  N         65.8600 -137.4550   38.0030 N.am   21  THR21      -0.1936
     26  CA        65.4190 -138.5500   37.1370 C.3    21  THR21       0.2028
     27  C         64.2230 -138.1980   36.2580 C.2    21  THR21       0.2642
     28  O         63.3640 -137.3990   36.6380 O.2    21  THR21      -0.2714
     29  CB        65.0270 -139.8000   37.9510 C.3    21  THR21       0.1808
     30  OG1       63.9930 -139.4680   38.8880 O.3    21  THR21      -0.2208
     31  CG2       66.2300 -140.3650   38.6900 C.3    21  THR21       0.0379
     32  N         64.1960 -138.8090   35.0760 N.am   22  GLN22      -0.1976
     33  CA        63.0090 -138.8600   34.2310 C.3    22  GLN22       0.1601
     34  C         62.7570 -140.3200   33.8840 C.2    22  GLN22       0.2287
     35  O         63.4620 -140.9010   33.0550 O.2    22  GLN22      -0.2864
     36  CB        63.2050 -138.0390   32.9620 C.3    22  GLN22       0.0394
     37  CG        63.3590 -136.5510   33.2270 C.3    22  GLN22       0.0908
     38  CD        62.9660 -135.6820   32.0460 C.2    22  GLN22       0.2608
     39  OE1       63.7500 -134.8480   31.5890 O.2    22  GLN22      -0.2717
     40  NE2       61.7450 -135.8670   31.5480 N.am   22  GLN22      -0.0878
     41  N         68.5820 -137.7090   34.5000 N.3    27  ALA27      -0.1245
     42  CA        68.5970 -136.4770   33.7110 C.3    27  ALA27       0.1562
     43  C         69.7760 -135.5810   34.0880 C.2    27  ALA27       0.2260
     44  O         70.4850 -135.0790   33.2140 O.2    27  ALA27      -0.2867
     45  CB        67.2880 -135.7240   33.8910 C.3    27  ALA27       0.0290
     46  N         72.6210 -132.0950   40.2550 N.3    31  CYS31      -0.1221
     47  CA        71.6810 -130.9850   40.4240 C.3    31  CYS31       0.1808
     48  C         71.6990 -130.4690   41.8620 C.2    31  CYS31       0.2601
     49  O         72.1310 -131.1700   42.7760 O.2    31  CYS31      -0.2717
     50  CB        70.2620 -131.4130   40.0420 C.3    31  CYS31       0.0970
     51  SG        69.5370 -132.6540   41.1340 S.3    31  CYS31      -0.0800
     52  N         71.2260 -129.2400   42.0500 N.am   32  ALA32      -0.1965
     53  CA        71.2290 -128.5840   43.3610 C.3    32  ALA32       0.1728
     54  C         69.8280 -128.5560   43.9770 C.2    32  ALA32       0.2616
     55  O         68.9570 -127.8110   43.5250 O.2    32  ALA32      -0.2715
     56  CB        71.7770 -127.1720   43.2340 C.3    32  ALA32       0.0334
     57  N         69.6220 -129.3620   45.0160 N.am   33  LYS33      -0.1977
     58  CA        68.3130 -129.4760   45.6670 C.3    33  LYS33       0.1596
     59  C         68.1940 -128.6020   46.9170 C.2    33  LYS33       0.2287
     60  O         67.0970 -128.4280   47.4480 O.2    33  LYS33      -0.2864
     61  CB        68.0260 -130.9370   46.0160 C.3    33  LYS33       0.0298
     62  CG        68.2280 -131.8790   44.8420 C.3    33  LYS33       0.0038
     63  CD        67.7060 -133.2730   45.1300 C.3    33  LYS33       0.0206
     64  CE        68.1360 -134.2370   44.0370 C.3    33  LYS33       0.1093
     65  NZ        67.5680 -135.5950   44.2320 N.3    33  LYS33      -0.1314
     66  N         68.0190 -125.0660   48.4690 N.3    35  HIS35      -0.1241
     67  CA        67.5520 -123.7830   47.9520 C.3    35  HIS35       0.1621
     68  C         67.5830 -122.7000   49.0150 C.2    35  HIS35       0.2264
     69  O         67.1350 -122.9160   50.1390 O.2    35  HIS35      -0.2867
     70  CB        66.1220 -123.9190   47.4360 C.3    35  HIS35       0.0745
     71  CG        65.9710 -124.9220   46.3380 C.ar   35  HIS35       0.0817
     72  ND1       66.5890 -124.7810   45.1140 N.ar   35  HIS35      -0.2268
     73  CD2       65.2670 -126.0770   46.2750 C.ar   35  HIS35       0.1154
     74  CE1       66.2770 -125.8100   44.3460 C.ar   35  HIS35       0.1986
     75  NE2       65.4760 -126.6100   45.0260 N.ar   35  HIS35      -0.2212
     76  N         64.4300 -129.7290   48.7890 N.3    45  GLY45      -0.1210
     77  CA        63.2450 -130.0460   47.9940 C.3    45  GLY45       0.1956
     78  C         63.2480 -131.4270   47.3660 C.2    45  GLY45       0.2612
     79  O         64.2600 -131.8790   46.8220 O.2    45  GLY45      -0.2717
     80  N         62.0990 -132.0910   47.4500 N.am   46  ALA46      -0.1965
     81  CA        61.8620 -133.3650   46.7760 C.3    46  ALA46       0.1728
     82  C         60.5270 -133.2990   46.0480 C.2    46  ALA46       0.2617
     83  O         59.6580 -132.5000   46.4030 O.2    46  ALA46      -0.2715
     84  CB        61.8520 -134.5040   47.7830 C.3    46  ALA46       0.0334
     85  N         60.3670 -134.1440   45.0360 N.am   47  GLY47      -0.1940
     86  CA        59.1340 -134.1890   44.2540 C.3    47  GLY47       0.2014
     87  C         59.3530 -133.6600   42.8530 C.2    47  GLY47       0.2640
     88  O         60.4240 -133.8560   42.2690 O.2    47  GLY47      -0.2714
     89  N         58.3360 -132.9920   42.3120 N.am   48  THR48      -0.1936
     90  CA        58.4170 -132.3990   40.9790 C.3    48  THR48       0.2028
     91  C         59.4630 -131.2830   41.0010 C.2    48  THR48       0.2642
     92  O         59.3140 -130.2960   41.7190 O.2    48  THR48      -0.2714
     93  CB        57.0520 -131.8450   40.5260 C.3    48  THR48       0.1808
     94  OG1       56.0490 -132.8600   40.6640 O.3    48  THR48      -0.2208
     95  CG2       57.0990 -131.3930   39.0740 C.3    48  THR48       0.0379
     96  N         60.5190 -131.4570   40.2100 N.am   49  ALA49      -0.1963
     97  CA        61.7200 -130.6190   40.3080 C.3    49  ALA49       0.1728
     98  C         61.4550 -129.1310   40.0740 C.2    49  ALA49       0.2616
     99  O         61.9470 -128.2850   40.8210 O.2    49  ALA49      -0.2715
    100  CB        62.7890 -131.1220   39.3480 C.3    49  ALA49       0.0334
    101  N         60.6830 -128.8160   39.0390 N.am   50  ALA50      -0.1977
    102  CA        60.3350 -127.4270   38.7370 C.3    50  ALA50       0.1597
    103  C         59.4850 -126.7990   39.8430 C.2    50  ALA50       0.2287
    104  O         59.6460 -125.6190   40.1560 O.2    50  ALA50      -0.2864
    105  CB        59.6000 -127.3420   37.4140 C.3    50  ALA50       0.0319
    106  N         59.4470 -127.4980   43.1370 N.3    52  THR52      -0.1203
    107  CA        60.2670 -127.1920   44.3160 C.3    52  THR52       0.1994
    108  C         61.1190 -125.9440   44.0850 C.2    52  THR52       0.2617
    109  O         61.3210 -125.1520   45.0020 O.2    52  THR52      -0.2717
    110  CB        61.1990 -128.3590   44.7150 C.3    52  THR52       0.1784
    111  OG1       62.1220 -128.6380   43.6550 O.3    52  THR52      -0.2211
    112  CG2       60.3930 -129.6130   45.0470 C.3    52  THR52       0.0376
    113  N         61.6100 -125.7820   42.8570 N.am   53  GLU53      -0.1979
    114  CA        62.3970 -124.6110   42.4700 C.3    53  GLU53       0.1602
    115  C         61.5350 -123.3500   42.4120 C.2    53  GLU53       0.2287
    116  O         61.9100 -122.3120   42.9500 O.2    53  GLU53      -0.2864
    117  CB        63.0490 -124.8460   41.1020 C.3    53  GLU53       0.0415
    118  CG        63.9970 -123.7410   40.6500 C.3    53  GLU53       0.1163
    119  CD        65.3090 -123.7420   41.4150 C.2    53  GLU53       0.3649
    120  OE1       66.0430 -124.7510   41.3260 O.co2  53  GLU53      -0.2457
    121  OE2       65.6110 -122.7330   42.0940 O.co2  53  GLU53      -0.2457
    122  N         61.3150 -137.6480   50.4520 N.3   128  GLY128     -0.1210
    123  CA        61.7300 -138.1610   49.1450 C.3   128  GLY128      0.1956
    124  C         61.6580 -139.6740   49.0250 C.2   128  GLY128      0.2612
    125  O         61.2680 -140.3650   49.9670 O.2   128  GLY128     -0.2717
    126  N         62.0460 -140.1860   47.8570 N.am  129  SER129     -0.1952
    127  CA        61.9850 -141.6260   47.5720 C.3   129  SER129      0.1924
    128  C         62.9060 -142.4410   48.4790 C.2   129  SER129      0.2314
    129  O         62.6170 -143.6000   48.7820 O.2   129  SER129     -0.2863
    130  CB        62.3250 -141.9120   46.1010 C.3   129  SER129      0.2116
    131  OG        63.5970 -141.3960   45.7460 O.3   129  SER129     -0.2180
    132  N         66.2790 -143.9690   43.1730 N.3   168  GLY168     -0.1225
    133  CA        65.8760 -142.6010   42.8680 C.3   168  GLY168      0.1811
    134  C         66.8380 -141.5530   43.3960 C.2   168  GLY168      0.2280
    135  O         66.5940 -140.3590   43.2380 O.2   168  GLY168     -0.2866
@<TRIPOS>BOND
     1    40    38   am
     2    39    38    2
     3    38    37    1
     4    36    37    1
     5    36    33    1
     6    35    34    2
     7    44    43    2
     8    42    45    1
     9    42    43    1
    10    42    41    1
    11    34    33    1
    12    33    32    1
    13    32    27   am
    14    27    28    2
    15    27    26    1
    16    26    29    1
    17    26    25    1
    18    22    21    2
    19   105   102    1
    20    24    23    1
    21    29    31    1
    22    29    30    1
    23    21    25   am
    24    21    20    1
    25    23    20    1
    26   102   101    1
    27   102   103    1
    28    20    19    1
    29   101    98   am
    30    95    93    1
    31   100    97    1
    32    19    10   am
    33   103   104    2
    34    50    47    1
    35    50    51    1
    36    98    97    1
    37    98    99    2
    38    96    97    1
    39    96    91   am
    40    46    47    1
    41    13    14    1
    42    13    12    1
    43    47    48    1
    44    93    94    1
    45    93    90    1
    46    15    14    1
    47    15    16    2
    48    18    16    1
    49   118   117    1
    50   118   119    1
    51    16    17    1
    52    10     9    1
    53    10    11    2
    54    90    91    1
    55    90    89    1
    56    91    92    2
    57   117   114    1
    58     9    12    1
    59     9     8    1
    60   120   119   ar
    61   119   121   ar
    62    48    52   am
    63    48    49    2
    64    52    53    1
    65    88    87    2
    66    89    87   am
    67   115   114    1
    68   115   116    2
    69   114   113    1
    70    87    86    1
    71   113   108   am
    72   133   132    1
    73   133   134    1
    74   106   107    1
    75    56    53    1
    76   135   134    2
    77    53    54    1
    78    55    54    2
    79   111   110    1
    80    54    57   am
    81    64    65    1
    82    64    63    1
    83   108   107    1
    84   108   109    2
    85    86    85    1
    86   107   110    1
    87    74    75   ar
    88    74    72   ar
    89     1     2    1
    90   110   112    1
    91     6     5    1
    92    62    63    1
    93    62    61    1
    94    57    58    1
    95    75    73   ar
    96    85    82   am
    97    72    71   ar
    98    58    61    1
    99    58    59    1
   100   131   130    1
   101     2     5    1
   102     2     3    1
   103     5     7    1
   104    82    83    2
   105    82    81    1
   106   130   127    1
   107    73    71   ar
   108    71    70    1
   109    81    80    1
   110    81    84    1
   111    79    78    2
   112    59    60    2
   113     3     4    2
   114    78    80   am
   115    78    77    1
   116    70    67    1
   117   127   126    1
   118   127   128    1
   119   126   124   am
   120    67    66    1
   121    67    68    1
   122    77    76    1
   123   128   129    2
   124    68    69    2
   125   124   123    1
   126   124   125    2
   127   123   122    1
