@<TRIPOS>MOLECULE
tmp/4qxpA00.pdb
 95 92 0 0 0
SMALL
GASTEIGER

@<TRIPOS>ATOM
      1  N         12.2880  -70.7000  -63.9840 N.3     6  LEU6       -0.1245
      2  CA        11.8440  -72.0680  -64.2350 C.3     6  LEU6        0.1561
      3  C         12.9170  -72.9050  -64.9280 C.2     6  LEU6        0.2260
      4  O         13.1220  -74.0700  -64.5870 O.2     6  LEU6       -0.2867
      5  CB        10.5600  -72.0690  -65.0670 C.3     6  LEU6        0.0270
      6  CG         9.2510  -72.2430  -64.2930 C.3     6  LEU6        0.0019
      7  CD1        9.3100  -71.5030  -62.9650 C.3     6  LEU6        0.0001
      8  CD2        8.0690  -71.7680  -65.1230 C.3     6  LEU6        0.0001
      9  N         15.5180  -73.5430  -62.2140 N.3     9  SER9       -0.1202
     10  CA        15.0950  -74.3970  -61.1140 C.3     9  SER9        0.2020
     11  C         14.8760  -75.8140  -61.6230 C.2     9  SER9        0.2618
     12  O         15.0620  -76.7830  -60.8920 O.2     9  SER9       -0.2717
     13  CB        13.8370  -73.8670  -60.4260 C.3     9  SER9        0.2103
     14  OG        12.6920  -74.1270  -61.2070 O.3     9  SER9       -0.2182
     15  N         14.4840  -75.9310  -62.8860 N.am   10  TYR10      -0.1975
     16  CA        14.3350  -77.2350  -63.5060 C.3    10  TYR10       0.1639
     17  C         15.6970  -77.9050  -63.6140 C.2    10  TYR10       0.2290
     18  O         15.8360  -79.1140  -63.4530 O.2    10  TYR10      -0.2864
     19  CB        13.7190  -77.1190  -64.8920 C.3    10  TYR10       0.0560
     20  CG        13.3060  -78.4460  -65.4780 C.ar   10  TYR10      -0.0198
     21  CD1       12.5060  -79.3280  -64.7490 C.ar   10  TYR10      -0.0009
     22  CD2       13.7070  -78.8200  -66.7620 C.ar   10  TYR10      -0.0009
     23  CE1       12.1150  -80.5460  -65.2830 C.ar   10  TYR10       0.0417
     24  CE2       13.3220  -80.0290  -67.3080 C.ar   10  TYR10       0.0417
     25  CZ        12.5240  -80.8910  -66.5640 C.ar   10  TYR10       0.1957
     26  OH        12.1290  -82.1030  -67.0810 O.3    10  TYR10      -0.2866
     27  N         17.0580  -78.2390  -59.6910 N.3    13  GLY13      -0.1210
     28  CA        16.2150  -79.0450  -58.8300 C.3    13  GLY13       0.1956
     29  C         15.7960  -80.3700  -59.4230 C.2    13  GLY13       0.2611
     30  O         15.0920  -81.1620  -58.7910 O.2    13  GLY13      -0.2717
     31  N         16.2240  -80.6210  -60.6500 N.am   14  TYR14      -0.1976
     32  CA        15.8870  -81.8780  -61.2860 C.3    14  TYR14       0.1639
     33  C         16.9950  -82.4520  -62.1520 C.2    14  TYR14       0.2290
     34  O         17.5150  -83.5370  -61.8740 O.2    14  TYR14      -0.2864
     35  CB        14.6200  -81.7440  -62.1200 C.3    14  TYR14       0.0560
     36  CG        14.2150  -83.0610  -62.7110 C.ar   14  TYR14      -0.0198
     37  CD1       13.9200  -84.1390  -61.8740 C.ar   14  TYR14      -0.0009
     38  CD2       14.1560  -83.2530  -64.0900 C.ar   14  TYR14      -0.0009
     39  CE1       13.5640  -85.3660  -62.3790 C.ar   14  TYR14       0.0417
     40  CE2       13.7900  -84.4900  -64.6200 C.ar   14  TYR14       0.0417
     41  CZ        13.4950  -85.5410  -63.7500 C.ar   14  TYR14       0.1957
     42  OH        13.1300  -86.7730  -64.2360 O.3    14  TYR14      -0.2866
     43  N         14.3470  -88.8890  -51.3000 N.3    85  ARG85      -0.1245
     44  CA        13.3680  -88.8550  -52.3330 C.3    85  ARG85       0.1563
     45  C         13.6800  -90.0550  -53.1520 C.2    85  ARG85       0.2260
     46  O         14.8250  -90.4200  -53.2550 O.2    85  ARG85      -0.2867
     47  CB        13.6470  -87.6880  -53.2010 C.3    85  ARG85       0.0307
     48  CG        12.5340  -86.8090  -53.3510 C.3    85  ARG85       0.0489
     49  CD        13.0890  -85.4850  -53.1580 C.3    85  ARG85       0.2205
     50  NE        12.3280  -84.5150  -53.8780 N.pl3  85  ARG85      -0.0865
     51  CZ        11.6180  -83.5630  -53.3300 C.cat  85  ARG85       0.5346
     52  NH1       11.0370  -82.7440  -54.1470 N.pl3  85  ARG85       0.1354
     53  NH2       11.2440  -83.6150  -52.0680 N.pl3  85  ARG85       0.1354
     54  N         13.1080  -91.6200  -57.0120 N.3    87  TYR87      -0.1241
     55  CA        12.7010  -91.2200  -58.3400 C.3    87  TYR87       0.1605
     56  C         12.6060  -92.3820  -59.2620 C.2    87  TYR87       0.2264
     57  O         13.2580  -93.3720  -59.0870 O.2    87  TYR87      -0.2867
     58  CB        13.7340  -90.3070  -58.9440 C.3    87  TYR87       0.0534
     59  CG        13.7120  -88.9160  -58.4440 C.ar   87  TYR87      -0.0201
     60  CD1       14.3720  -88.5730  -57.2970 C.ar   87  TYR87      -0.0009
     61  CD2       13.0630  -87.9340  -59.1380 C.ar   87  TYR87      -0.0009
     62  CE1       14.3700  -87.3200  -56.8600 C.ar   87  TYR87       0.0417
     63  CE2       13.0520  -86.6690  -58.7010 C.ar   87  TYR87       0.0417
     64  CZ        13.7090  -86.3640  -57.5650 C.ar   87  TYR87       0.1957
     65  OH        13.7120  -85.1010  -57.1050 O.3    87  TYR87      -0.2866
     66  N          8.1050  -80.8010  -66.3740 N.3   110  THR110     -0.1204
     67  CA         7.1870  -80.3600  -65.3290 C.3   110  THR110      0.1979
     68  C          6.8830  -78.8530  -65.2490 C.2   110  THR110      0.2459
     69  O          5.7680  -78.4880  -64.8740 O.2   110  THR110     -0.2732
     70  CB         7.6370  -80.8730  -63.9490 C.3   110  THR110      0.1783
     71  OG1        8.9640  -80.4170  -63.6740 O.3   110  THR110     -0.2211
     72  CG2        7.6270  -82.3870  -63.9450 C.3   110  THR110      0.0376
     73  N          7.8620  -77.9720  -65.5700 N.am  111  PRO111     -0.2728
     74  CA         7.5160  -76.5560  -65.4150 C.3   111  PRO111      0.1401
     75  C          6.4330  -76.0660  -66.3720 C.2   111  PRO111      0.2269
     76  O          5.8740  -74.9880  -66.1650 O.2   111  PRO111     -0.2865
     77  CB         8.8260  -75.8410  -65.7260 C.3   111  PRO111      0.0296
     78  CG         9.8770  -76.8210  -65.3420 C.3   111  PRO111      0.0237
     79  CD         9.3140  -78.1390  -65.7710 C.3   111  PRO111      0.0939
     80  N          3.6530  -77.5330  -66.6910 N.3   113  GLN113     -0.1231
     81  CA         2.4680  -77.6800  -65.8490 C.3   113  GLN113      0.1698
     82  C          2.2480  -76.3990  -65.0770 C.2   113  GLN113      0.2592
     83  O          1.1280  -75.8930  -64.9740 O.2   113  GLN113     -0.2718
     84  CB         2.6170  -78.8250  -64.8530 C.3   113  GLN113      0.0381
     85  CG         2.1630  -80.1770  -65.3550 C.3   113  GLN113      0.0905
     86  CD         2.5120  -81.2910  -64.3820 C.2   113  GLN113      0.2608
     87  OE1        1.7870  -81.5320  -63.4210 O.2   113  GLN113     -0.2717
     88  NE2        3.6150  -81.9940  -64.6440 N.am  113  GLN113     -0.0878
     89  N          3.3410  -75.8890  -64.5240 N.am  114  THR114     -0.1953
     90  CA         3.3030  -74.6440  -63.7890 C.3   114  THR114      0.1897
     91  C          2.8940  -73.4650  -64.6770 C.2   114  THR114      0.2313
     92  O          2.0530  -72.6590  -64.2910 O.2   114  THR114     -0.2863
     93  CB         4.6240  -74.3580  -63.0880 C.3   114  THR114      0.1794
     94  OG1        4.8350  -75.3380  -62.0720 O.3   114  THR114     -0.2208
     95  CG2        4.6010  -72.9540  -62.4670 C.3   114  THR114      0.0378
@<TRIPOS>BOND
     1    24    22   ar
     2    24    25   ar
     3    26    25    1
     4    22    20   ar
     5    80    81    1
     6    25    23   ar
     7    66    67    1
     8    75    76    2
     9    75    74    1
    10    81    82    1
    11    81    84    1
    12    79    73    1
    13    79    78    1
    14    77    74    1
    15    77    78    1
    16    73    74    1
    17    73    68   am
    18    20    19    1
    19    20    21   ar
    20    85    84    1
    21    85    86    1
    22    67    68    1
    23    67    70    1
    24    23    21   ar
    25    68    69    2
    26     8     6    1
    27    82    83    2
    28    82    89   am
    29     5     6    1
    30     5     2    1
    31     3     4    2
    32     3     2    1
    33    19    16    1
    34    91    92    2
    35    91    90    1
    36    88    86   am
    37    40    38   ar
    38    40    41   ar
    39    89    90    1
    40    86    87    2
    41     6     7    1
    42    42    41    1
    43     2     1    1
    44    38    36   ar
    45    70    72    1
    46    70    71    1
    47    90    93    1
    48    41    39   ar
    49    17    16    1
    50    17    18    2
    51    16    15    1
    52    93    95    1
    53    93    94    1
    54    15    11   am
    55    36    35    1
    56    36    37   ar
    57    39    37   ar
    58     9    10    1
    59    33    34    2
    60    33    32    1
    61    35    32    1
    62    11    10    1
    63    11    12    2
    64    32    31    1
    65    14    13    1
    66    10    13    1
    67    31    29   am
    68    27    28    1
    69    29    28    1
    70    29    30    2
    71    56    57    2
    72    56    55    1
    73    61    63   ar
    74    61    59   ar
    75    58    59    1
    76    58    55    1
    77    63    64   ar
    78    59    60   ar
    79    55    54    1
    80    64    65    1
    81    64    62   ar
    82    60    62   ar
    83    52    51    1
    84    50    51    2
    85    50    49    1
    86    48    47    1
    87    48    49    1
    88    51    53    1
    89    46    45    2
    90    47    44    1
    91    45    44    1
    92    44    43    1
