@<TRIPOS>MOLECULE
tmp/4qxsA00.pdb
 154 143 0 0 0
SMALL
GASTEIGER

@<TRIPOS>ATOM
      1  N          6.4370   72.8850   21.0360 N.3    48  LYS48      -0.1245
      2  CA         5.0400   72.6380   21.3790 C.3    48  LYS48       0.1561
      3  C          4.1820   73.9130   21.1790 C.2    48  LYS48       0.2260
      4  O          2.9620   73.8900   21.2590 O.2    48  LYS48      -0.2867
      5  CB         4.9800   72.1010   22.8070 C.3    48  LYS48       0.0271
      6  CG         5.6760   70.7490   22.9850 C.3    48  LYS48       0.0035
      7  CD         5.4760   70.2150   24.4270 C.3    48  LYS48       0.0206
      8  CE         6.5700   69.2100   24.9500 C.3    48  LYS48       0.1093
      9  NZ         7.9830   69.8310   25.1660 N.3    48  LYS48      -0.1314
     10  N          3.5690   76.4790   23.0160 N.3    50  ASN50      -0.1225
     11  CA         2.7320   76.8850   24.1420 C.3    50  ASN50       0.1785
     12  C          2.7390   78.4120   24.3270 C.2    50  ASN50       0.2597
     13  O          1.7030   78.9930   24.6210 O.2    50  ASN50      -0.2718
     14  CB         3.1340   76.1330   25.3970 C.3    50  ASN50       0.1169
     15  CG         2.7090   74.6620   25.3480 C.2    50  ASN50       0.2627
     16  OD1        1.5610   74.3700   25.0350 O.2    50  ASN50      -0.2716
     17  ND2        3.6210   73.7460   25.6620 N.am   50  ASN50      -0.0877
     18  N          3.8610   79.0520   24.1010 N.am   51  ARG51      -0.1979
     19  CA         4.0180   80.4910   24.3820 C.3    51  ARG51       0.1597
     20  C          3.2590   81.3180   23.3520 C.2    51  ARG51       0.2287
     21  O          2.5130   82.2450   23.7080 O.2    51  ARG51      -0.2864
     22  CB         5.4980   80.8950   24.4820 C.3    51  ARG51       0.0334
     23  CG         6.2110   80.2360   25.7160 C.3    51  ARG51       0.0492
     24  CD         7.7350   80.2920   25.6530 C.3    51  ARG51       0.2205
     25  NE         8.3580   79.6940   26.8330 N.pl3  51  ARG51      -0.0865
     26  CZ         8.5010   78.3840   27.0190 C.cat  51  ARG51       0.5346
     27  NH1        8.0680   77.5340   26.0940 N.pl3  51  ARG51       0.1354
     28  NH2        9.0000   77.9270   28.1540 N.pl3  51  ARG51       0.1354
     29  N         -0.5290   80.8920   23.6380 N.3    54  THR54      -0.1218
     30  CA        -1.0760   81.6080   24.7700 C.3    54  THR54       0.1862
     31  C         -1.5060   83.0390   24.3860 C.2    54  THR54       0.2287
     32  O         -2.5040   83.5840   24.9140 O.2    54  THR54      -0.2866
     33  CB        -0.0520   81.6440   25.9140 C.3    54  THR54       0.1770
     34  OG1        0.1920   80.2900   26.3850 O.3    54  THR54      -0.2211
     35  CG2       -0.5510   82.4900   27.0590 C.3    54  THR54       0.0375
     36  N         11.6110   82.9760   21.4870 N.3    87  GLN87      -0.1245
     37  CA        12.0030   81.6600   21.9900 C.3    87  GLN87       0.1566
     38  C         13.0910   81.0220   21.0880 C.2    87  GLN87       0.2260
     39  O         14.1100   80.5340   21.6040 O.2    87  GLN87      -0.2867
     40  CB        10.7850   80.7900   22.0490 C.3    87  GLN87       0.0367
     41  CG        10.9150   79.3030   22.2950 C.3    87  GLN87       0.0905
     42  CD        11.1540   79.0410   23.7150 C.2    87  GLN87       0.2608
     43  OE1       11.8320   79.8300   24.3350 O.2    87  GLN87      -0.2717
     44  NE2       10.7460   77.9200   24.2160 N.am   87  GLN87      -0.0878
     45  N          8.1630   83.5270   29.3060 N.3   196  SER196     -0.1202
     46  CA         7.3580   82.3720   29.0360 C.3   196  SER196      0.2020
     47  C          5.8840   82.6400   29.4230 C.2   196  SER196      0.2618
     48  O          5.0020   82.1470   28.7720 O.2   196  SER196     -0.2717
     49  CB         7.8790   81.1310   29.7700 C.3   196  SER196      0.2103
     50  OG         9.2090   80.7220   29.3710 O.3   196  SER196     -0.2182
     51  N          5.6520   83.3800   30.4920 N.am  197  PHE197     -0.1975
     52  CA         4.3450   83.6010   31.0610 C.3   197  PHE197      0.1639
     53  C          3.8730   85.0080   31.0710 C.2   197  PHE197      0.2290
     54  O          2.7340   85.2480   30.6360 O.2   197  PHE197     -0.2864
     55  CB         4.2280   82.9630   32.4520 C.3   197  PHE197      0.0560
     56  CG         4.4080   81.4680   32.4050 C.ar  197  PHE197     -0.0200
     57  CD1        5.6410   80.8950   32.6910 C.ar  197  PHE197     -0.0042
     58  CD2        3.3790   80.6570   31.9880 C.ar  197  PHE197     -0.0042
     59  CE1        5.8040   79.5380   32.5860 C.ar  197  PHE197     -0.0003
     60  CE2        3.5320   79.2770   31.9030 C.ar  197  PHE197     -0.0003
     61  CZ         4.7450   78.7300   32.1840 C.ar  197  PHE197     -0.0000
     62  N          6.3460   76.3230   37.2590 N.3   230  PHE230     -0.1241
     63  CA         6.6430   75.6460   35.9810 C.3   230  PHE230      0.1605
     64  C          8.1160   75.1330   35.9190 C.2   230  PHE230      0.2264
     65  O          8.3450   73.9880   35.5710 O.2   230  PHE230     -0.2867
     66  CB         6.4100   76.6330   34.8360 C.3   230  PHE230      0.0534
     67  CG         6.8840   76.1620   33.5150 C.ar  230  PHE230     -0.0203
     68  CD1        6.1920   75.1680   32.8290 C.ar  230  PHE230     -0.0042
     69  CD2        8.0600   76.6480   33.0040 C.ar  230  PHE230     -0.0042
     70  CE1        6.6590   74.7120   31.6020 C.ar  230  PHE230     -0.0003
     71  CE2        8.5260   76.2040   31.7550 C.ar  230  PHE230     -0.0003
     72  CZ         7.8220   75.2540   31.0640 C.ar  230  PHE230     -0.0000
     73  N          8.8570   72.3890   38.4750 N.3   233  GLN233     -0.1231
     74  CA         8.3210   71.1600   38.0130 C.3   233  GLN233      0.1698
     75  C          9.1350   70.5880   36.8590 C.2   233  GLN233      0.2592
     76  O          9.3750   69.3410   36.8270 O.2   233  GLN233     -0.2718
     77  CB         6.8760   71.2830   37.6260 C.3   233  GLN233      0.0381
     78  CG         6.4000   70.0650   36.8710 C.3   233  GLN233      0.0905
     79  CD         4.9670   70.2040   36.4380 C.2   233  GLN233      0.2608
     80  OE1        4.6770   70.9270   35.4790 O.2   233  GLN233     -0.2717
     81  NE2        4.0730   69.5330   37.1460 N.am  233  GLN233     -0.0878
     82  N          9.5410   71.4540   35.9420 N.am  234  ASP234     -0.1974
     83  CA        10.5040   71.0230   34.9200 C.3   234  ASP234      0.1709
     84  C         11.7680   70.3790   35.5440 C.2   234  ASP234      0.2293
     85  O         12.2220   69.3540   35.1050 O.2   234  ASP234     -0.2864
     86  CB        10.9340   72.2010   34.0420 C.3   234  ASP234      0.1436
     87  CG        10.1810   72.2920   32.6440 C.2   234  ASP234      0.3671
     88  OD1        9.1150   71.6200   32.3980 O.co2 234  ASP234     -0.2456
     89  OD2       10.6610   73.1220   31.7890 O.co2 234  ASP234     -0.2456
     90  N         10.8890   66.9280   37.0180 N.3   237  LEU237     -0.1245
     91  CA        10.6170   65.9430   35.9830 C.3   237  LEU237      0.1561
     92  C         11.8320   65.5480   35.1960 C.2   237  LEU237      0.2260
     93  O         11.8870   64.4410   34.7180 O.2   237  LEU237     -0.2867
     94  CB         9.5630   66.4390   35.0150 C.3   237  LEU237      0.0270
     95  CG         8.1430   66.5970   35.6170 C.3   237  LEU237      0.0019
     96  CD1        7.1900   67.2360   34.5960 C.3   237  LEU237      0.0001
     97  CD2        7.5320   65.2940   36.0810 C.3   237  LEU237      0.0001
     98  N          6.5350   60.2400   28.6780 N.3   245  VAL245     -0.1231
     99  CA         5.5400   61.2690   28.9840 C.3   245  VAL245      0.1692
    100  C          6.1460   62.6890   28.8580 C.2   245  VAL245      0.2592
    101  O          5.4490   63.6330   28.4740 O.2   245  VAL245     -0.2718
    102  CB         4.8940   60.9830   30.3830 C.3   245  VAL245      0.0266
    103  CG1        4.7100   62.2380   31.2340 C.3   245  VAL245      0.0020
    104  CG2        3.5830   60.2160   30.2120 C.3   245  VAL245      0.0020
    105  N          7.4370   62.8380   29.1650 N.am  246  THR246     -0.1953
    106  CA         8.1110   64.1250   29.0470 C.3   246  THR246      0.1897
    107  C          8.7670   64.2840   27.6840 C.2   246  THR246      0.2313
    108  O          8.6590   65.3390   27.0680 O.2   246  THR246     -0.2863
    109  CB         9.1960   64.3240   30.1240 C.3   246  THR246      0.1794
    110  OG1       10.1940   63.3070   30.0110 O.3   246  THR246     -0.2208
    111  CG2        8.5920   64.2990   31.5320 C.3   246  THR246      0.0378
    112  N         12.0270   64.1800   27.6320 N.3   248  LYS248     -0.1245
    113  CA        13.3830   64.2830   28.2120 C.3   248  LYS248      0.1561
    114  C         13.8690   62.9810   28.8590 C.2   248  LYS248      0.2260
    115  O         13.1090   62.2740   29.5150 O.2   248  LYS248     -0.2867
    116  CB        13.4600   65.4110   29.2680 C.3   248  LYS248      0.0271
    117  CG        13.3540   66.8250   28.7540 C.3   248  LYS248      0.0035
    118  CD        13.2920   67.8390   29.8910 C.3   248  LYS248      0.0206
    119  CE        12.0240   67.6890   30.7150 C.3   248  LYS248      0.1093
    120  NZ        11.7730   68.8490   31.6120 N.3   248  LYS248     -0.1314
    121  N         -3.8720   78.4860   32.2230 N.3   335  LEU335     -0.1245
    122  CA        -2.4620   78.2420   32.3890 C.3   335  LEU335      0.1561
    123  C         -2.2600   77.3470   33.5890 C.2   335  LEU335      0.2260
    124  O         -1.4530   76.3960   33.4910 O.2   335  LEU335     -0.2867
    125  CB        -1.6730   79.5050   32.5990 C.3   335  LEU335      0.0270
    126  CG        -1.5400   80.3330   31.3550 C.3   335  LEU335      0.0019
    127  CD1       -0.9380   81.6810   31.7370 C.3   335  LEU335      0.0001
    128  CD2       -0.6580   79.6860   30.3230 C.3   335  LEU335      0.0001
    129  N         -2.8370   73.7160   32.7940 N.3   338  LYS338     -0.1231
    130  CA        -1.7590   73.0660   32.0410 C.3   338  LYS338      0.1693
    131  C         -0.5730   72.7650   32.9190 C.2   338  LYS338      0.2591
    132  O          0.0650   71.7640   32.7780 O.2   338  LYS338     -0.2718
    133  CB        -1.2250   73.9250   30.9290 C.3   338  LYS338      0.0285
    134  CG        -2.0950   74.0300   29.7010 C.3   338  LYS338      0.0035
    135  CD        -1.2990   74.4770   28.4190 C.3   338  LYS338      0.0206
    136  CE         0.0820   73.7960   28.1380 C.3   338  LYS338      0.1093
    137  NZ         0.2860   72.3980   27.5620 N.3   338  LYS338     -0.1314
    138  N         -0.2660   73.6680   33.8140 N.am  339  ILE339     -0.1980
    139  CA         0.9450   73.6020   34.5840 C.3   339  ILE339      0.1595
    140  C          0.7930   72.5590   35.6950 C.2   339  ILE339      0.2287
    141  O          1.7730   71.8600   36.0020 O.2   339  ILE339     -0.2864
    142  CB         1.3190   74.9490   35.2030 C.3   339  ILE339      0.0276
    143  CG1        1.8480   75.9480   34.1850 C.3   339  ILE339      0.0022
    144  CG2        2.3440   74.7950   36.2940 C.3   339  ILE339      0.0022
    145  CD1        1.7790   77.3590   34.7230 C.3   339  ILE339      0.0001
    146  N         -1.5160   70.0830   35.7930 N.3   341  LYS341     -0.1245
    147  CA        -2.1670   68.8690   35.2570 C.3   341  LYS341      0.1561
    148  C         -1.9320   67.5980   36.0540 C.2   341  LYS341      0.2260
    149  O         -0.8290   67.1090   36.0610 O.2   341  LYS341     -0.2867
    150  CB        -1.7440   68.6150   33.7850 C.3   341  LYS341      0.0271
    151  CG        -0.2670   68.3120   33.5750 C.3   341  LYS341      0.0035
    152  CD        -0.0710   68.0210   32.1060 C.3   341  LYS341      0.0206
    153  CE         1.3790   68.2290   31.6550 C.3   341  LYS341      0.1093
    154  NZ         2.2960   67.3280   32.3190 N.3   341  LYS341     -0.1314
@<TRIPOS>BOND
     1     1     2    1
     2    38    39    2
     3    38    37    1
     4     3     4    2
     5     3     2    1
     6     2     5    1
     7    36    37    1
     8    37    40    1
     9    40    41    1
    10    41    42    1
    11     5     6    1
    12     6     7    1
    13    10    11    1
    14    20    21    2
    15    20    19    1
    16    29    30    1
    17    42    44   am
    18    42    43    2
    19    18    12   am
    20    18    19    1
    21    11    12    1
    22    11    14    1
    23    12    13    2
    24    19    22    1
    25    31    30    1
    26    31    32    2
    27     7     8    1
    28    22    23    1
    29    30    33    1
    30     8     9    1
    31    16    15    2
    32    15    14    1
    33    15    17   am
    34    24    23    1
    35    24    25    1
    36    33    34    1
    37    33    35    1
    38    27    26    1
    39    25    26    2
    40    26    28    1
    41   108   107    2
    42   137   136    1
    43   112   113    1
    44   107   106    1
    45   136   135    1
    46   113   114    1
    47   113   116    1
    48   135   134    1
    49   101   100    2
    50    98    99    1
    51   117   116    1
    52   117   118    1
    53    48    47    2
    54   100    99    1
    55   100   105   am
    56   114   115    2
    57    99   102    1
    58    46    45    1
    59    46    47    1
    60    46    49    1
    61   106   105    1
    62   106   109    1
    63    50    49    1
    64    47    51   am
    65   134   133    1
    66   118   119    1
    67   110   109    1
    68   109   111    1
    69   104   102    1
    70   128   126    1
    71   102   103    1
    72    51    52    1
    73    54    53    2
    74   119   120    1
    75   133   130    1
    76    52    53    1
    77    52    55    1
    78    72    70   ar
    79    72    71   ar
    80   126   127    1
    81   126   125    1
    82    70    68   ar
    83   153   152    1
    84   153   154    1
    85    71    69   ar
    86    89    87   ar
    87    60    58   ar
    88    60    61   ar
    89    58    56   ar
    90   130   129    1
    91   130   131    1
    92   152   151    1
    93    61    59   ar
    94   121   122    1
    95   122   125    1
    96   122   123    1
    97    88    87   ar
    98    56    55    1
    99    56    57   ar
   100    59    57   ar
   101    87    86    1
   102   132   131    2
   103    68    67   ar
   104   131   138   am
   105    69    67   ar
   106   124   123    2
   107    67    66    1
   108   151   150    1
   109   150   147    1
   110   138   139    1
   111    86    83    1
   112   143   145    1
   113   143   142    1
   114   139   142    1
   115   139   140    1
   116    96    95    1
   117    93    92    2
   118    66    63    1
   119    83    84    1
   120    83    82    1
   121    94    95    1
   122    94    91    1
   123    85    84    2
   124    92    91    1
   125   142   144    1
   126   147   146    1
   127   147   148    1
   128    80    79    2
   129    65    64    2
   130    95    97    1
   131   140   141    2
   132    64    63    1
   133    82    75   am
   134    63    62    1
   135    91    90    1
   136   148   149    2
   137    79    78    1
   138    79    81   am
   139    76    75    2
   140    75    74    1
   141    78    77    1
   142    77    74    1
   143    74    73    1
