@<TRIPOS>MOLECULE
tmp/4qxtB00.pdb
 138 133 0 0 0
SMALL
GASTEIGER

@<TRIPOS>ATOM
      1  N         -4.3620  -11.8200  -31.2280 N.3    31  HIS31      -0.1226
      2  CA        -3.6030  -12.8280  -31.9520 C.3    31  HIS31       0.1752
      3  C         -4.5670  -13.7640  -32.6740 C.2    31  HIS31       0.2596
      4  O         -5.5100  -14.2570  -32.0670 O.2    31  HIS31      -0.2718
      5  CB        -2.6920  -13.6120  -31.0080 C.3    31  HIS31       0.0759
      6  CG        -1.5750  -14.3180  -31.7110 C.ar   31  HIS31       0.0818
      7  ND1       -0.4240  -13.6740  -32.1120 N.ar   31  HIS31      -0.2268
      8  CD2       -1.4430  -15.6060  -32.1090 C.ar   31  HIS31       0.1154
      9  CE1        0.3740  -14.5360  -32.7160 C.ar   31  HIS31       0.1986
     10  NE2       -0.2220  -15.7160  -32.7280 N.ar   31  HIS31      -0.2212
     11  N         -4.3420  -13.9700  -33.9730 N.am   32  ASP32      -0.1974
     12  CA        -5.1550  -14.8870  -34.7820 C.3    32  ASP32       0.1709
     13  C         -6.6560  -14.6650  -34.6670 C.2    32  ASP32       0.2293
     14  O         -7.4250  -15.6230  -34.5640 O.2    32  ASP32      -0.2864
     15  CB        -4.8470  -16.3400  -34.4170 C.3    32  ASP32       0.1436
     16  CG        -3.3860  -16.6870  -34.5940 C.2    32  ASP32       0.3671
     17  OD1       -2.7320  -16.0780  -35.4720 O.co2  32  ASP32      -0.2456
     18  OD2       -2.8960  -17.5740  -33.8590 O.co2  32  ASP32      -0.2456
     19  N         -8.3770  -13.3630  -32.2300 N.3    34  ASP34      -0.1239
     20  CA        -8.8970  -13.2720  -30.8660 C.3    34  ASP34       0.1674
     21  C         -8.1870  -12.1730  -30.0910 C.2    34  ASP34       0.2266
     22  O         -7.0820  -11.7770  -30.4450 O.2    34  ASP34      -0.2867
     23  CB        -8.7520  -14.5980  -30.1180 C.3    34  ASP34       0.1410
     24  CG        -9.4380  -15.7370  -30.8350 C.2    34  ASP34       0.3668
     25  OD1      -10.6860  -15.7370  -30.8810 O.co2  34  ASP34      -0.2456
     26  OD2       -8.7300  -16.6150  -31.3590 O.co2  34  ASP34      -0.2456
     27  N         -6.8780  -11.2500  -26.3210 N.3    36  TYR36      -0.1241
     28  CA        -6.6570  -11.9080  -25.0290 C.3    36  TYR36       0.1605
     29  C         -6.6800  -10.8940  -23.8810 C.2    36  TYR36       0.2264
     30  O         -5.6550  -10.5830  -23.2620 O.2    36  TYR36      -0.2867
     31  CB        -5.3490  -12.7150  -25.0730 C.3    36  TYR36       0.0534
     32  CG        -5.4970  -13.9050  -25.9900 C.ar   36  TYR36      -0.0201
     33  CD1       -6.0680  -15.0810  -25.5180 C.ar   36  TYR36      -0.0009
     34  CD2       -5.1230  -13.8400  -27.3310 C.ar   36  TYR36      -0.0009
     35  CE1       -6.2470  -16.1660  -26.3390 C.ar   36  TYR36       0.0417
     36  CE2       -5.3000  -14.9410  -28.1640 C.ar   36  TYR36       0.0417
     37  CZ        -5.8640  -16.0960  -27.6470 C.ar   36  TYR36       0.1957
     38  OH        -6.0450  -17.2030  -28.4490 O.3    36  TYR36      -0.2866
     39  N         -8.8580  -10.1380  -20.3530 N.3    38  ASN38      -0.1240
     40  CA        -9.7950  -10.5900  -19.3310 C.3    38  ASN38       0.1653
     41  C        -10.2250   -9.4430  -18.4320 C.2    38  ASN38       0.2266
     42  O         -9.4870   -8.4780  -18.2710 O.2    38  ASN38      -0.2867
     43  CB        -9.1710  -11.6680  -18.4540 C.3    38  ASN38       0.1155
     44  CG        -8.6980  -12.8630  -19.2440 C.2    38  ASN38       0.2627
     45  OD1       -9.3470  -13.2800  -20.2180 O.2    38  ASN38      -0.2716
     46  ND2       -7.5640  -13.4430  -18.8200 N.am   38  ASN38      -0.0877
     47  N        -13.1100  -13.9780  -12.1530 N.3    50  LEU50      -0.1245
     48  CA       -13.1550  -13.7640  -13.6110 C.3    50  LEU50       0.1561
     49  C        -14.5730  -13.4660  -14.0910 C.2    50  LEU50       0.2260
     50  O        -15.4950  -14.2220  -13.7970 O.2    50  LEU50      -0.2867
     51  CB       -12.6170  -14.9850  -14.3640 C.3    50  LEU50       0.0270
     52  CG       -12.6010  -14.9240  -15.8940 C.3    50  LEU50       0.0019
     53  CD1      -11.5950  -13.8690  -16.3800 C.3    50  LEU50       0.0001
     54  CD2      -12.2940  -16.3090  -16.5010 C.3    50  LEU50       0.0001
     55  N        -13.6870  -13.2910  -20.4220 N.3    53  TYR53      -0.1227
     56  CA       -12.4130  -13.6900  -21.0020 C.3    53  TYR53       0.1736
     57  C        -12.4120  -13.4780  -22.5180 C.2    53  TYR53       0.2595
     58  O        -13.4660  -13.4540  -23.1700 O.2    53  TYR53      -0.2718
     59  CB       -12.0660  -15.1530  -20.6540 C.3    53  TYR53       0.0548
     60  CG       -13.0810  -16.1530  -21.1600 C.ar   53  TYR53      -0.0200
     61  CD1      -14.1990  -16.4720  -20.3970 C.ar   53  TYR53      -0.0009
     62  CD2      -12.9360  -16.7640  -22.3930 C.ar   53  TYR53      -0.0009
     63  CE1      -15.1460  -17.3670  -20.8520 C.ar   53  TYR53       0.0417
     64  CE2      -13.8840  -17.6580  -22.8620 C.ar   53  TYR53       0.0417
     65  CZ       -14.9850  -17.9540  -22.0870 C.ar   53  TYR53       0.1957
     66  OH       -15.9100  -18.8420  -22.5720 O.3    53  TYR53      -0.2866
     67  N        -11.2110  -13.3050  -23.0610 N.am   54  ALA54      -0.1980
     68  CA       -10.9930  -13.0660  -24.4930 C.3    54  ALA54       0.1597
     69  C        -11.9320  -11.9760  -25.0110 C.2    54  ALA54       0.2287
     70  O        -12.6230  -12.1380  -26.0150 O.2    54  ALA54      -0.2864
     71  CB       -11.1340  -14.3600  -25.3060 C.3    54  ALA54       0.0319
     72  N        -16.2610  -12.7810  -23.9030 N.3    57  ASN57      -0.1225
     73  CA       -16.9410  -13.9910  -23.4570 C.3    57  ASN57       0.1785
     74  C        -17.3150  -13.9220  -21.9810 C.2    57  ASN57       0.2597
     75  O        -16.4680  -13.6580  -21.1340 O.2    57  ASN57      -0.2718
     76  CB       -16.0710  -15.2250  -23.6900 C.3    57  ASN57       0.1169
     77  CG       -15.6500  -15.3890  -25.1360 C.2    57  ASN57       0.2627
     78  OD1      -14.5570  -14.9610  -25.5430 O.2    57  ASN57      -0.2716
     79  ND2      -16.5040  -16.0100  -25.9190 N.am   57  ASN57      -0.0877
     80  N        -18.5820  -14.1670  -21.6850 N.am   58  LEU58      -0.1966
     81  CA       -19.0710  -14.1310  -20.3220 C.3    58  LEU58       0.1728
     82  C        -18.6930  -15.4300  -19.6320 C.2    58  LEU58       0.2616
     83  O        -19.0350  -16.5240  -20.1150 O.2    58  LEU58      -0.2715
     84  CB       -20.5930  -13.9260  -20.3170 C.3    58  LEU58       0.0311
     85  CG       -21.3000  -13.7690  -18.9670 C.3    58  LEU58       0.0022
     86  CD1      -20.7930  -12.5420  -18.2590 C.3    58  LEU58       0.0001
     87  CD2      -22.8120  -13.6760  -19.1620 C.3    58  LEU58       0.0001
     88  N        -17.9690  -15.3190  -18.5230 N.am   59  GLU59      -0.1963
     89  CA       -17.5900  -16.4910  -17.7440 C.3    59  GLU59       0.1733
     90  C        -18.8230  -17.1760  -17.1400 C.2    59  GLU59       0.2617
     91  O        -19.7750  -16.5140  -16.7020 O.2    59  GLU59      -0.2715
     92  CB       -16.5870  -16.0900  -16.6450 C.3    59  GLU59       0.0429
     93  CG       -16.3140  -17.1670  -15.5650 C.3    59  GLU59       0.1163
     94  CD       -15.6220  -18.4170  -16.1030 C.2    59  GLU59       0.3649
     95  OE1      -15.5690  -18.6100  -17.3280 O.co2  59  GLU59      -0.2457
     96  OE2      -15.1160  -19.2130  -15.2840 O.co2  59  GLU59      -0.2457
     97  N        -18.8200  -18.5070  -17.1360 N.am   60  SER60      -0.1950
     98  CA       -19.8810  -19.2570  -16.4680 C.3    60  SER60       0.1924
     99  C        -20.0960  -18.7600  -15.0410 C.2    60  SER60       0.2314
    100  O        -19.1280  -18.5450  -14.3110 O.2    60  SER60      -0.2863
    101  CB       -19.5430  -20.7480  -16.4520 C.3    60  SER60       0.2116
    102  OG       -20.5260  -21.4680  -15.7300 O.3    60  SER60      -0.2180
    103  N         -3.4210  -11.5510  -21.5090 N.3    95  THR95      -0.1203
    104  CA        -2.7030  -12.8320  -21.4960 C.3    95  THR95       0.1994
    105  C         -2.2170  -13.1960  -22.8910 C.2    95  THR95       0.2618
    106  O         -2.0300  -14.3760  -23.2210 O.2    95  THR95      -0.2717
    107  CB        -3.5980  -13.9490  -20.9660 C.3    95  THR95       0.1784
    108  OG1       -4.7620  -14.0180  -21.7940 O.3    95  THR95      -0.2211
    109  CG2       -3.9910  -13.6860  -19.5200 C.3    95  THR95       0.0376
    110  N         -2.0160  -12.1700  -23.7160 N.am   96  ASN96      -0.1960
    111  CA        -1.4720  -12.3530  -25.0570 C.3    96  ASN96       0.1819
    112  C          0.0400  -12.5380  -25.0850 C.2    96  ASN96       0.2621
    113  O          0.5550  -13.2790  -25.9180 O.2    96  ASN96      -0.2715
    114  CB        -1.8340  -11.1660  -25.9380 C.3    96  ASN96       0.1195
    115  CG        -1.4880  -11.3970  -27.3970 C.2    96  ASN96       0.2630
    116  OD1       -1.7310  -12.4710  -27.9280 O.2    96  ASN96      -0.2716
    117  ND2       -0.9060  -10.3910  -28.0490 N.am   96  ASN96      -0.0877
    118  N          0.7480  -11.8480  -24.1990 N.am   97  GLU97      -0.1977
    119  CA         2.2130  -11.8400  -24.2430 C.3    97  GLU97       0.1602
    120  C          2.7490  -11.9840  -22.8230 C.2    97  GLU97       0.2287
    121  O          2.1680  -11.4410  -21.8830 O.2    97  GLU97      -0.2864
    122  CB         2.7320  -10.5460  -24.9010 C.3    97  GLU97       0.0415
    123  CG         4.2280  -10.3260  -24.7250 C.3    97  GLU97       0.1163
    124  CD         4.6940   -8.9480  -25.1640 C.2    97  GLU97       0.3649
    125  OE1        4.9090   -8.7280  -26.3770 O.co2  97  GLU97      -0.2457
    126  OE2        4.8420   -8.0780  -24.2800 O.co2  97  GLU97      -0.2457
    127  N          2.1150  -11.7720  -18.3780 N.3   100  TYR100     -0.1241
    128  CA         0.7630  -11.2480  -18.2780 C.3   100  TYR100      0.1605
    129  C          0.8250  -10.0100  -17.4250 C.2   100  TYR100      0.2264
    130  O          1.6330   -9.9400  -16.4890 O.2   100  TYR100     -0.2867
    131  CB        -0.2040  -12.2320  -17.6300 C.3   100  TYR100      0.0534
    132  CG        -0.2910  -13.6020  -18.2630 C.ar  100  TYR100     -0.0201
    133  CD1        0.2510  -13.8740  -19.5180 C.ar  100  TYR100     -0.0009
    134  CD2       -0.9270  -14.6350  -17.5810 C.ar  100  TYR100     -0.0009
    135  CE1        0.1530  -15.1560  -20.0740 C.ar  100  TYR100      0.0417
    136  CE2       -1.0130  -15.9070  -18.1240 C.ar  100  TYR100      0.0417
    137  CZ        -0.4820  -16.1590  -19.3670 C.ar  100  TYR100      0.1957
    138  OH        -0.5680  -17.4390  -19.8860 O.3   100  TYR100     -0.2866
@<TRIPOS>BOND
     1    17    16   ar
     2    12    13    1
     3    12    15    1
     4    12    11    1
     5    13    14    2
     6    16    15    1
     7    16    18   ar
     8    11     3   am
     9    10     9   ar
    10    10     8   ar
    11     9     7   ar
    12     3     4    2
    13     3     2    1
    14    19    20    1
    15     7     6   ar
    16     8     6   ar
    17     2     1    1
    18     2     5    1
    19     6     5    1
    20    26    24   ar
    21    25    24   ar
    22    20    23    1
    23    20    21    1
    24    24    23    1
    25    22    21    2
    26    38    37    1
    27    36    37   ar
    28    36    34   ar
    29   117   115   am
    30   116   115    2
    31    37    35   ar
    32   115   114    1
    33    34    32   ar
    34   125   124   ar
    35    35    33   ar
    36    27    28    1
    37    70    69    2
    38    32    33   ar
    39    32    31    1
    40   114   111    1
    41    79    77   am
    42   113   112    2
    43    78    77    2
    44    71    68    1
    45   124   123    1
    46   124   126   ar
    47    77    76    1
    48   112   111    1
    49   112   118   am
    50    31    28    1
    51   111   110    1
    52    28    29    1
    53    69    68    1
    54   122   123    1
    55   122   119    1
    56    68    67    1
    57   119   118    1
    58   119   120    1
    59    72    73    1
    60    29    30    2
    61   110   105   am
    62    76    73    1
    63    73    74    1
    64   106   105    2
    65    58    57    2
    66    67    57   am
    67   105   104    1
    68    64    62   ar
    69    64    65   ar
    70   120   121    2
    71    66    65    1
    72    57    56    1
    73    62    60   ar
    74    65    63   ar
    75    74    80   am
    76    74    75    2
    77   108   107    1
    78    80    81    1
    79   103   104    1
    80   104   107    1
    81    60    59    1
    82    60    61   ar
    83    56    59    1
    84    56    55    1
    85   107   109    1
    86    63    61   ar
    87    39    40    1
    88    81    84    1
    89    81    82    1
    90    84    85    1
    91    45    44    2
    92    83    82    2
    93   135   133   ar
    94   135   137   ar
    95   138   137    1
    96    82    88   am
    97   133   132   ar
    98   137   136   ar
    99    40    43    1
   100    40    41    1
   101    44    46   am
   102    44    43    1
   103    87    85    1
   104    85    86    1
   105    88    89    1
   106    41    42    2
   107   127   128    1
   108   128   131    1
   109   128   129    1
   110   132   131    1
   111   132   134   ar
   112   136   134   ar
   113    89    90    1
   114    89    92    1
   115   129   130    2
   116    95    94   ar
   117    90    97   am
   118    90    91    2
   119    97    98    1
   120    92    93    1
   121    54    52    1
   122    98   101    1
   123    98    99    1
   124   101   102    1
   125    53    52    1
   126    94    93    1
   127    94    96   ar
   128    52    51    1
   129    99   100    2
   130    51    48    1
   131    49    50    2
   132    49    48    1
   133    48    47    1
