@<TRIPOS>MOLECULE
tmp/4qxuB00.pdb
 152 151 0 0 0
SMALL
GASTEIGER

@<TRIPOS>ATOM
      1  N         -2.6390   13.4300    1.2210 N.3    30  SER30      -0.1202
      2  CA        -1.4580   13.1890    0.3610 C.3    30  SER30       0.2020
      3  C         -0.1290   13.1580    1.0800 C.2    30  SER30       0.2619
      4  O          0.8620   12.6260    0.5380 O.2    30  SER30      -0.2717
      5  CB        -1.3380   14.2470   -0.7670 C.3    30  SER30       0.2103
      6  OG        -1.6360   15.5090   -0.2280 O.3    30  SER30      -0.2182
      7  N         -0.1060   13.7330    2.2820 N.am   31  ASN31      -0.1960
      8  CA         1.1120   13.7570    3.1020 C.3    31  ASN31       0.1819
      9  C          1.4590   12.4310    3.7780 C.2    31  ASN31       0.2621
     10  O          2.5840   12.2830    4.2930 O.2    31  ASN31      -0.2715
     11  CB         1.0270   14.8540    4.1790 C.3    31  ASN31       0.1195
     12  CG         1.4580   16.2250    3.6750 C.2    31  ASN31       0.2630
     13  OD1        2.2810   16.3650    2.7680 O.2    31  ASN31      -0.2716
     14  ND2        0.9130   17.2410    4.2950 N.am   31  ASN31      -0.0877
     15  N          0.5310   11.4680    3.7870 N.am   32  TYR32      -0.1960
     16  CA         0.7960   10.1930    4.4420 C.3    32  TYR32       0.1771
     17  C          0.5240    9.0200    3.5470 C.2    32  TYR32       0.2619
     18  O         -0.4680    9.0140    2.7880 O.2    32  TYR32      -0.2715
     19  CB        -0.0580   10.0480    5.6970 C.3    32  TYR32       0.0574
     20  CG         0.1200   11.1800    6.7270 C.ar   32  TYR32      -0.0198
     21  CD1       -0.4760   12.4140    6.5270 C.ar   32  TYR32      -0.0009
     22  CD2        0.8380   10.9920    7.8970 C.ar   32  TYR32      -0.0009
     23  CE1       -0.3660   13.4310    7.4320 C.ar   32  TYR32       0.0417
     24  CE2        0.9740   12.0320    8.8160 C.ar   32  TYR32       0.0417
     25  CZ         0.3590   13.2420    8.5650 C.ar   32  TYR32       0.1957
     26  OH         0.4660   14.3000    9.4280 O.3    32  TYR32      -0.2866
     27  N          1.3840    8.0060    3.6850 N.am   33  ALA33      -0.1977
     28  CA         1.1250    6.6720    3.1330 C.3    33  ALA33       0.1597
     29  C         -0.0370    6.0610    3.8190 C.2    33  ALA33       0.2287
     30  O         -0.2820    6.3760    4.9730 O.2    33  ALA33      -0.2864
     31  CB         2.3120    5.7600    3.3390 C.3    33  ALA33       0.0319
     32  N         -2.1140    2.0490    4.4230 N.3    35  SER35      -0.1217
     33  CA        -2.0710    0.5740    4.3180 C.3    35  SER35       0.1889
     34  C         -3.4530   -0.1060    4.2660 C.2    35  SER35       0.2288
     35  O         -4.4500    0.4390    4.7340 O.2    35  SER35      -0.2866
     36  CB        -1.2390    0.0180    5.4510 C.3    35  SER35       0.2089
     37  OG         0.0090    0.6870    5.4350 O.3    35  SER35      -0.2183
     38  N         -1.0670   -7.9390    6.9770 N.3    47  TRP47      -0.1241
     39  CA        -0.7650   -6.8390    6.0750 C.3    47  TRP47       0.1605
     40  C         -0.9420   -7.3130    4.6180 C.2    47  TRP47       0.2264
     41  O         -0.5120   -8.4270    4.2320 O.2    47  TRP47      -0.2867
     42  CB         0.6560   -6.3520    6.3370 C.3    47  TRP47       0.0550
     43  CG         1.1660   -5.3840    5.3380 C.ar   47  TRP47       0.0003
     44  CD1        0.9300   -4.0580    5.2960 C.ar   47  TRP47       0.0946
     45  CD2        2.0180   -5.6760    4.2420 C.ar   47  TRP47       0.0152
     46  NE1        1.5670   -3.4900    4.2260 N.ar   47  TRP47      -0.2442
     47  CE2        2.2420   -4.4690    3.5550 C.ar   47  TRP47       0.0810
     48  CE3        2.6000   -6.8410    3.7590 C.ar   47  TRP47       0.0012
     49  CZ2        3.0310   -4.3980    2.4180 C.ar   47  TRP47       0.0191
     50  CZ3        3.3850   -6.7610    2.6370 C.ar   47  TRP47       0.0001
     51  CH2        3.6030   -5.5530    1.9840 C.ar   47  TRP47       0.0015
     52  N          0.8590   -1.4330    1.3500 N.3    50  THR50      -0.1218
     53  CA         1.1230   -0.0590    1.6610 C.3    50  THR50       0.1862
     54  C          1.4230    0.7640    0.4160 C.2    50  THR50       0.2287
     55  O          2.2120    0.3450   -0.4370 O.2    50  THR50      -0.2866
     56  CB         2.2950    0.0220    2.6300 C.3    50  THR50       0.1770
     57  OG1        1.9920   -0.8000    3.7680 O.3    50  THR50      -0.2211
     58  CG2        2.4390    1.4290    3.1150 C.3    50  THR50       0.0375
     59  N          2.3560    4.8760   -1.1240 N.3    52  SER52      -0.1202
     60  CA         2.9850    6.0840   -0.6790 C.3    52  SER52       0.2020
     61  C          2.0100    7.2400   -0.7650 C.2    52  SER52       0.2619
     62  O          0.9130    7.1180   -1.3300 O.2    52  SER52      -0.2717
     63  CB         4.3030    6.3280   -1.4490 C.3    52  SER52       0.2103
     64  OG         4.0970    6.5300   -2.8560 O.3    52  SER52      -0.2182
     65  N          2.3760    8.3480   -0.1300 N.am   53  GLY53      -0.1956
     66  CA         1.5690    9.5870   -0.1680 C.3    53  GLY53       0.1869
     67  C          1.0100    9.9570   -1.5290 C.2    53  GLY53       0.2309
     68  O         -0.1740   10.1570   -1.6650 O.2    53  GLY53      -0.2863
     69  N          4.8190    4.5440   -5.1530 N.3    57  ASN57      -0.1225
     70  CA         5.5280    3.4260   -4.5540 C.3    57  ASN57       0.1785
     71  C          4.5700    2.5960   -3.7400 C.2    57  ASN57       0.2597
     72  O          4.0680    3.0470   -2.7320 O.2    57  ASN57      -0.2718
     73  CB         6.7060    3.9030   -3.6810 C.3    57  ASN57       0.1169
     74  CG         7.7380    4.7150   -4.4620 C.2    57  ASN57       0.2627
     75  OD1        7.8680    4.5600   -5.6410 O.2    57  ASN57      -0.2716
     76  ND2        8.4610    5.6020   -3.7780 N.am   57  ASN57      -0.0877
     77  N          4.3390    1.3720   -4.1870 N.am   58  ILE58      -0.1966
     78  CA         3.4750    0.3810   -3.5280 C.3    58  ILE58       0.1727
     79  C          4.3090   -0.8640   -3.0920 C.2    58  ILE58       0.2616
     80  O          5.2290   -1.2340   -3.7990 O.2    58  ILE58      -0.2715
     81  CB         2.3620   -0.0550   -4.5090 C.3    58  ILE58       0.0290
     82  CG1        1.5960    1.1530   -5.0230 C.3    58  ILE58       0.0022
     83  CG2        1.3590   -1.0080   -3.8700 C.3    58  ILE58       0.0023
     84  CD1        0.5890    0.8050   -6.1040 C.3    58  ILE58       0.0001
     85  N          4.0150   -1.4640   -1.9230 N.am   59  TYR59      -0.1974
     86  CA         4.4100   -2.8810   -1.5880 C.3    59  TYR59       0.1639
     87  C          3.1620   -3.7300   -1.2360 C.2    59  TYR59       0.2290
     88  O          2.1790   -3.2390   -0.6440 O.2    59  TYR59      -0.2864
     89  CB         5.2740   -2.9750   -0.3450 C.3    59  TYR59       0.0560
     90  CG         6.7240   -2.5270   -0.3570 C.ar   59  TYR59      -0.0198
     91  CD1        7.4430   -2.2990   -1.5400 C.ar   59  TYR59      -0.0009
     92  CD2        7.3980   -2.3830    0.8510 C.ar   59  TYR59      -0.0009
     93  CE1        8.7710   -1.8780   -1.5000 C.ar   59  TYR59       0.0417
     94  CE2        8.7260   -1.9870    0.9000 C.ar   59  TYR59       0.0417
     95  CZ         9.4100   -1.7280   -0.2720 C.ar   59  TYR59       0.1957
     96  OH        10.7260   -1.3200   -0.1830 O.3    59  TYR59      -0.2866
     97  N         -0.1840    5.6740    8.1430 N.3    99  GLU99      -0.1231
     98  CA         1.1030    5.7460    8.7830 C.3    99  GLU99       0.1699
     99  C          1.2510    6.9740    9.6930 C.2    99  GLU99       0.2592
    100  O          0.3610    7.8280    9.7880 O.2    99  GLU99      -0.2718
    101  CB         2.2400    5.7230    7.7350 C.3    99  GLU99       0.0402
    102  CG         2.3430    7.0390    6.9490 C.3    99  GLU99       0.1161
    103  CD         3.6880    7.2920    6.2970 C.2    99  GLU99       0.3649
    104  OE1        3.7880    8.3420    5.6160 O.co2  99  GLU99      -0.2457
    105  OE2        4.6470    6.4700    6.4340 O.co2  99  GLU99      -0.2457
    106  N          2.3960    7.0050   10.3770 N.am  100  ASN100     -0.1960
    107  CA         2.8820    8.1640   11.1040 C.3   100  ASN100      0.1819
    108  C          4.3720    7.9610   11.3890 C.2   100  ASN100      0.2621
    109  O          4.9110    6.8570   11.2440 O.2   100  ASN100     -0.2715
    110  CB         2.1230    8.3720   12.4100 C.3   100  ASN100      0.1195
    111  CG         2.2920    9.7930   12.9770 C.2   100  ASN100      0.2630
    112  OD1        2.1110   10.7940   12.2760 O.2   100  ASN100     -0.2716
    113  ND2        2.6620    9.8800   14.2570 N.am  100  ASN100     -0.0877
    114  N          5.0380    9.0460   11.7620 N.am  101  TYR101     -0.1960
    115  CA         6.4520    9.0210   12.1430 C.3   101  TYR101      0.1771
    116  C          6.7430    7.8430   13.0890 C.2   101  TYR101      0.2620
    117  O          6.2440    7.8060   14.1890 O.2   101  TYR101     -0.2715
    118  CB         6.8320   10.3640   12.7920 C.3   101  TYR101      0.0574
    119  CG         6.7210   11.5320   11.8130 C.ar  101  TYR101     -0.0198
    120  CD1        7.7700   11.8370   10.9580 C.ar  101  TYR101     -0.0009
    121  CD2        5.5450   12.2900   11.7140 C.ar  101  TYR101     -0.0009
    122  CE1        7.6790   12.8760   10.0490 C.ar  101  TYR101      0.0417
    123  CE2        5.4380   13.3250   10.7950 C.ar  101  TYR101      0.0417
    124  CZ         6.5100   13.6020    9.9520 C.ar  101  TYR101      0.1957
    125  OH         6.4230   14.6330    9.0230 O.3   101  TYR101     -0.2866
    126  N          7.4870    6.8470   12.6320 N.am  102  GLY102     -0.1940
    127  CA         7.8790    5.7480   13.5220 C.3   102  GLY102      0.2014
    128  C          6.8510    4.6270   13.6870 C.2   102  GLY102      0.2640
    129  O          7.2320    3.5150   14.0460 O.2   102  GLY102     -0.2714
    130  N          5.5710    4.8810   13.3720 N.am  103  SER103     -0.1935
    131  CA         4.5420    3.8180   13.4040 C.3   103  SER103      0.2055
    132  C          3.8710    3.4600   12.0420 C.2   103  SER103      0.2644
    133  O          3.3430    4.3230   11.3050 O.2   103  SER103     -0.2714
    134  CB         3.4520    4.1710   14.4180 C.3   103  SER103      0.2130
    135  OG         2.9550    5.5000   14.2260 O.3   103  SER103     -0.2179
    136  N          3.7990    2.1670   11.7740 N.am  104  SER104     -0.1935
    137  CA         3.1530    1.6840   10.5950 C.3   104  SER104      0.2055
    138  C          1.6620    1.9640   10.5610 C.2   104  SER104      0.2643
    139  O          1.1910    2.6020    9.6100 O.2   104  SER104     -0.2714
    140  CB         3.4010    0.2070   10.4480 C.3   104  SER104      0.2130
    141  OG         4.7980   -0.0450   10.4470 O.3   104  SER104     -0.2179
    142  N          0.9280    1.4960   11.5800 N.am  105  PHE105     -0.1973
    143  CA        -0.5370    1.4570   11.5200 C.3   105  PHE105      0.1639
    144  C         -1.1330    2.2740   12.6350 C.2   105  PHE105      0.2290
    145  O         -1.6950    1.7220   13.6100 O.2   105  PHE105     -0.2864
    146  CB        -1.1110    0.0230   11.5690 C.3   105  PHE105      0.0560
    147  CG        -0.4760   -0.9340   10.5940 C.ar  105  PHE105     -0.0200
    148  CD1       -0.4730   -0.6680    9.2190 C.ar  105  PHE105     -0.0042
    149  CD2        0.1040   -2.1190   11.0380 C.ar  105  PHE105     -0.0042
    150  CE1        0.1160   -1.5480    8.3220 C.ar  105  PHE105     -0.0003
    151  CE2        0.6950   -2.9930   10.1490 C.ar  105  PHE105     -0.0003
    152  CZ         0.7000   -2.7100    8.7900 C.ar  105  PHE105     -0.0000
@<TRIPOS>BOND
     1    84    82    1
     2    75    74    2
     3    69    70    1
     4    82    81    1
     5    70    71    1
     6    70    73    1
     7    81    83    1
     8    81    78    1
     9    74    76   am
    10    74    73    1
    11    77    71   am
    12    77    78    1
    13    80    79    2
    14    71    72    2
    15    78    79    1
    16    79    85   am
    17    64    63    1
    18    85    86    1
    19    68    67    2
    20    86    87    1
    21    86    89    1
    22    91    93   ar
    23    91    90   ar
    24    67    66    1
    25    93    95   ar
    26    63    60    1
    27    62    61    2
    28    87    88    2
    29    59    60    1
    30     5     6    1
    31     5     2    1
    32    61    60    1
    33    61    65   am
    34    55    54    2
    35    90    89    1
    36    90    92   ar
    37    95    96    1
    38    95    94   ar
    39    66    65    1
    40     2     3    1
    41     2     1    1
    42    54    53    1
    43     4     3    2
    44    92    94   ar
    45     3     7   am
    46    52    53    1
    47    53    56    1
    48    51    49   ar
    49    51    50   ar
    50     7     8    1
    51    49    47   ar
    52    56    58    1
    53    56    57    1
    54    50    48   ar
    55    13    12    2
    56    18    17    2
    57     8     9    1
    58     8    11    1
    59    28    31    1
    60    28    27    1
    61    28    29    1
    62    17    27   am
    63    17    16    1
    64    47    46   ar
    65    47    45   ar
    66    12    11    1
    67    12    14   am
    68    48    45   ar
    69     9    15   am
    70     9    10    2
    71    15    16    1
    72    29    30    2
    73    46    44   ar
    74    41    40    2
    75    45    43   ar
    76    34    33    1
    77    34    35    2
    78    33    32    1
    79    33    36    1
    80    16    19    1
    81    40    39    1
    82    44    43   ar
    83    43    42    1
    84    37    36    1
    85   104   103   ar
    86    19    20    1
    87    39    42    1
    88    39    38    1
    89   103   105   ar
    90   103   102    1
    91    21    20   ar
    92    21    23   ar
    93    20    22   ar
    94   102   101    1
    95    23    25   ar
    96   101    98    1
    97    22    24   ar
    98    97    98    1
    99   150   152   ar
   100   150   148   ar
   101    25    24   ar
   102    25    26    1
   103    98    99    1
   104   152   151   ar
   105   125   124    1
   106   148   147   ar
   107   139   138    2
   108    99   100    2
   109    99   106   am
   110   124   122   ar
   111   124   123   ar
   112   122   120   ar
   113   151   149   ar
   114   106   107    1
   115   141   140    1
   116   140   137    1
   117   138   137    1
   118   138   142   am
   119   147   149   ar
   120   147   146    1
   121   137   136    1
   122   123   121   ar
   123   120   119   ar
   124   107   108    1
   125   107   110    1
   126   109   108    2
   127   133   132    2
   128   108   114   am
   129   143   146    1
   130   143   142    1
   131   143   144    1
   132   121   119   ar
   133   114   115    1
   134   136   132   am
   135   119   118    1
   136   132   131    1
   137   115   118    1
   138   115   116    1
   139   112   111    2
   140   110   111    1
   141   126   116   am
   142   126   127    1
   143   144   145    2
   144   111   113   am
   145   116   117    2
   146   130   131    1
   147   130   128   am
   148   131   134    1
   149   127   128    1
   150   128   129    2
   151   135   134    1
