@<TRIPOS>MOLECULE
tmp/4qxvA00.pdb
 70 62 0 0 0
SMALL
GASTEIGER

@<TRIPOS>ATOM
      1  N         17.7460  -11.0870   -0.5940 N.3     4  MET4       -0.1245
      2  CA        19.0610  -10.4510   -0.7280 C.3     4  MET4        0.1570
      3  C         19.5730  -10.1690    0.6760 C.2     4  MET4        0.2261
      4  O         18.7960   -9.8570    1.5600 O.2     4  MET4       -0.2867
      5  CB        18.9740   -9.1370   -1.5410 C.3     4  MET4        0.0387
      6  CG        20.3320   -8.5420   -1.9600 C.3     4  MET4        0.0595
      7  SD        21.0350   -7.3430   -0.7950 S.3     4  MET4       -0.1393
      8  CE        20.1280   -5.8690   -1.2670 C.3     4  MET4        0.0692
      9  N         22.5630   -7.8840    2.7710 N.3     6  LYS6       -0.1245
     10  CA        23.5030   -6.7730    2.6780 C.3     6  LYS6        0.1561
     11  C         24.1670   -6.6070    4.0370 C.2     6  LYS6        0.2260
     12  O         23.4930   -6.6730    5.0610 O.2     6  LYS6       -0.2867
     13  CB        22.7830   -5.4840    2.2860 C.3     6  LYS6        0.0271
     14  CG        23.7330   -4.3100    2.1450 C.3     6  LYS6        0.0035
     15  CD        23.1070   -3.1670    1.3780 C.3     6  LYS6        0.0206
     16  CE        24.0660   -1.9890    1.2270 C.3     6  LYS6        0.1093
     17  NZ        25.1720   -2.2630    0.2590 N.3     6  LYS6       -0.1314
     18  N         27.1790   -4.3740    6.2940 N.3     8  LEU8       -0.1245
     19  CA        28.0370   -3.2040    6.4450 C.3     8  LEU8        0.1561
     20  C         28.9350   -3.3520    7.6750 C.2     8  LEU8        0.2260
     21  O         28.5390   -3.9860    8.6510 O.2     8  LEU8       -0.2867
     22  CB        27.2050   -1.9350    6.5970 C.3     8  LEU8        0.0270
     23  CG        26.3460   -1.5100    5.4070 C.3     8  LEU8        0.0019
     24  CD1       25.5720   -0.2440    5.7620 C.3     8  LEU8        0.0001
     25  CD2       27.2030   -1.2690    4.1690 C.3     8  LEU8        0.0001
     26  N         14.9610   -7.9970    1.8050 N.3    97  THR97      -0.1218
     27  CA        16.3480   -7.6270    2.0140 C.3    97  THR97       0.1862
     28  C         16.6350   -7.7240    3.5020 C.2    97  THR97       0.2287
     29  O         15.9790   -7.0680    4.3170 O.2    97  THR97      -0.2866
     30  CB        16.6640   -6.2250    1.5110 C.3    97  THR97       0.1770
     31  OG1       16.4730   -6.1860    0.0940 O.3    97  THR97      -0.2211
     32  CG2       18.0920   -5.8270    1.8350 C.3    97  THR97       0.0375
     33  N         19.3890   -6.8640    6.0610 N.3    99  ALA99      -0.1231
     34  CA        20.5630   -6.0270    6.2280 C.3    99  ALA99       0.1694
     35  C         21.1450   -6.2450    7.6100 C.2    99  ALA99       0.2592
     36  O         20.4070   -6.5010    8.5650 O.2    99  ALA99      -0.2718
     37  CB        20.2130   -4.5780    6.0020 C.3    99  ALA99       0.0304
     38  N         22.4590   -6.1520    7.7170 N.am  100  ALA100     -0.1966
     39  CA        23.1280   -6.2270    9.0090 C.3   100  ALA100      0.1728
     40  C         24.2440   -5.1960    9.0360 C.2   100  ALA100      0.2616
     41  O         24.9250   -4.9650    8.0350 O.2   100  ALA100     -0.2715
     42  CB        23.6970   -7.6140    9.2480 C.3   100  ALA100      0.0334
     43  N         24.4400   -4.6140   10.2060 N.am  101  LEU101     -0.1977
     44  CA        25.4730   -3.6100   10.4770 C.3   101  LEU101      0.1596
     45  C         26.3240   -4.1460   11.6170 C.2   101  LEU101      0.2287
     46  O         25.8100   -4.3700   12.7140 O.2   101  LEU101     -0.2864
     47  CB        24.8030   -2.3060   10.8810 C.3   101  LEU101      0.0297
     48  CG        25.7350   -1.1880   11.3030 C.3   101  LEU101      0.0022
     49  CD1       26.5900   -0.7180   10.1420 C.3   101  LEU101      0.0001
     50  CD2       24.8870   -0.0600   11.8780 C.3   101  LEU101      0.0001
     51  N         23.3450   -4.8480   14.4270 N.3   108  SER108     -0.1217
     52  CA        21.9290   -4.6750   14.2020 C.3   108  SER108      0.1889
     53  C         21.5450   -5.3010   12.8870 C.2   108  SER108      0.2288
     54  O         22.3710   -5.5350   11.9920 O.2   108  SER108     -0.2866
     55  CB        21.5250   -3.2160   14.2130 C.3   108  SER108      0.2089
     56  OG        21.8360   -2.6290   12.9720 O.3   108  SER108     -0.2183
     57  N         18.0530   -5.4340   10.0750 N.3   110  THR110     -0.1218
     58  CA        16.8110   -4.8430    9.6240 C.3   110  THR110      0.1862
     59  C         16.2910   -5.6470    8.4510 C.2   110  THR110      0.2287
     60  O         17.0900   -6.1540    7.6740 O.2   110  THR110     -0.2866
     61  CB        17.1130   -3.4310    9.1870 C.3   110  THR110      0.1770
     62  OG1       17.6950   -2.7470   10.3020 O.3   110  THR110     -0.2211
     63  CG2       15.8530   -2.7280    8.7320 C.3   110  THR110      0.0375
     64  N         13.8610   -5.2370    5.0780 N.3   112  VAL112     -0.1245
     65  CA        13.0590   -4.4120    4.1790 C.3   112  VAL112      0.1561
     66  C         12.2680   -5.3720    3.3000 C.2   112  VAL112      0.2260
     67  O         12.8530   -6.1800    2.5790 O.2   112  VAL112     -0.2867
     68  CB        13.9330   -3.4700    3.3330 C.3   112  VAL112      0.0252
     69  CG1       13.0490   -2.6470    2.3910 C.3   112  VAL112      0.0019
     70  CG2       14.7530   -2.5740    4.2450 C.3   112  VAL112      0.0019
@<TRIPOS>BOND
     1     6     5    1
     2     6     7    1
     3     5     2    1
     4     8     7    1
     5     2     1    1
     6     2     3    1
     7    31    30    1
     8    17    16    1
     9     3     4    2
    10    16    15    1
    11    15    14    1
    12    30    32    1
    13    30    27    1
    14    26    27    1
    15    27    28    1
    16    14    13    1
    17    13    10    1
    18    69    68    1
    19    67    66    2
    20    10     9    1
    21    10    11    1
    22    66    65    1
    23    68    65    1
    24    68    70    1
    25    28    29    2
    26    11    12    2
    27    25    23    1
    28    65    64    1
    29    23    24    1
    30    23    22    1
    31    37    34    1
    32    33    34    1
    33    34    35    1
    34    18    19    1
    35    19    22    1
    36    19    20    1
    37    35    38   am
    38    35    36    2
    39    60    59    2
    40    20    21    2
    41    38    39    1
    42    41    40    2
    43    59    58    1
    44    63    61    1
    45    39    40    1
    46    39    42    1
    47    40    43   am
    48    61    58    1
    49    61    62    1
    50    58    57    1
    51    49    48    1
    52    43    44    1
    53    44    47    1
    54    44    45    1
    55    47    48    1
    56    48    50    1
    57    45    46    2
    58    54    53    2
    59    53    52    1
    60    56    55    1
    61    52    55    1
    62    52    51    1
