@<TRIPOS>MOLECULE
tmp/4qy1U01.pdb
 135 128 0 0 0
SMALL
GASTEIGER

@<TRIPOS>ATOM
      1  N        -10.0390  103.8460    4.1330 N.3    88  TYR88      -0.1241
      2  CA        -9.5820  104.8000    3.1330 C.3    88  TYR88       0.1605
      3  C         -8.3520  105.5140    3.6790 C.2    88  TYR88       0.2264
      4  O         -8.3850  106.0440    4.7870 O.2    88  TYR88      -0.2867
      5  CB       -10.6690  105.8080    2.7770 C.3    88  TYR88       0.0534
      6  CG       -10.3810  106.5690    1.5060 C.ar   88  TYR88      -0.0201
      7  CD1      -10.8580  106.1120    0.2820 C.ar   88  TYR88      -0.0009
      8  CD2       -9.6230  107.7360    1.5250 C.ar   88  TYR88      -0.0009
      9  CE1      -10.6020  106.8000   -0.8930 C.ar   88  TYR88       0.0417
     10  CE2       -9.3580  108.4320    0.3560 C.ar   88  TYR88       0.0417
     11  CZ        -9.8530  107.9580   -0.8530 C.ar   88  TYR88       0.1957
     12  OH        -9.6010  108.6390   -2.0170 O.3    88  TYR88      -0.2866
     13  N        -21.4560  108.9070   -1.0710 N.3   125  GLY125     -0.1210
     14  CA       -20.1340  108.6170   -1.5940 C.3   125  GLY125      0.1956
     15  C        -19.5870  107.3560   -0.9550 C.2   125  GLY125      0.2613
     16  O        -19.7350  107.1330    0.2530 O.2   125  GLY125     -0.2717
     17  N        -18.9620  106.5180   -1.7730 N.am  126  THR126     -0.1938
     18  CA       -18.5720  105.1820   -1.3430 C.3   126  THR126      0.2028
     19  C        -17.1860  104.8150   -1.8830 C.2   126  THR126      0.2643
     20  O        -16.6460  105.5050   -2.7510 O.2   126  THR126     -0.2714
     21  CB       -19.6270  104.1400   -1.7950 C.3   126  THR126      0.1808
     22  OG1      -19.6790  103.0580   -0.8600 O.3   126  THR126     -0.2208
     23  CG2      -19.3070  103.6090   -3.1790 C.3   126  THR126      0.0379
     24  N        -16.6000  103.7420   -1.3620 N.am  127  THR127     -0.1936
     25  CA       -15.2700  103.3290   -1.8000 C.3   127  THR127      0.2028
     26  C        -15.0400  101.8330   -1.6070 C.2   127  THR127      0.2642
     27  O        -15.6090  101.2060   -0.7070 O.2   127  THR127     -0.2714
     28  CB       -14.1400  104.1160   -1.0680 C.3   127  THR127      0.1808
     29  OG1      -12.8540  103.6950   -1.5530 O.3   127  THR127     -0.2208
     30  CG2      -14.2070  103.8980    0.4400 C.3   127  THR127      0.0379
     31  N        -14.1920  101.2710   -2.4600 N.am  128  ARG128     -0.1977
     32  CA       -13.8020   99.8710   -2.3560 C.3   128  ARG128      0.1597
     33  C        -12.7810   99.6720   -1.2160 C.2   128  ARG128      0.2287
     34  O        -12.5410   98.5520   -0.7620 O.2   128  ARG128     -0.2864
     35  CB       -13.2940   99.3780   -3.7220 C.3   128  ARG128      0.0334
     36  CG       -11.9780   98.6130   -3.7370 C.3   128  ARG128      0.0492
     37  CD       -12.2070   97.1130   -3.8910 C.3   128  ARG128      0.2205
     38  NE       -13.5080   96.8180   -4.4850 N.pl3 128  ARG128     -0.0865
     39  CZ       -13.9020   95.6040   -4.8570 C.cat 128  ARG128      0.5346
     40  NH1      -13.0880   94.5640   -4.7110 N.pl3 128  ARG128      0.1354
     41  NH2      -15.1100   95.4290   -5.3810 N.pl3 128  ARG128      0.1354
     42  N        -18.8600   98.1190   -1.7570 N.3   136  ASN136     -0.1240
     43  CA       -18.3050   99.4280   -1.4670 C.3   136  ASN136      0.1653
     44  C        -19.1250  100.1440   -0.3960 C.2   136  ASN136      0.2266
     45  O        -20.3510  100.2430   -0.4940 O.2   136  ASN136     -0.2867
     46  CB       -18.2440  100.2740   -2.7390 C.3   136  ASN136      0.1155
     47  CG       -17.2110   99.7660   -3.7410 C.2   136  ASN136      0.2627
     48  OD1      -16.6790   98.6630   -3.6060 O.2   136  ASN136     -0.2716
     49  ND2      -16.9310  100.5750   -4.7600 N.am  136  ASN136     -0.0877
     50  N        -19.4380  110.8910    2.6260 N.3   144  TRP144     -0.1241
     51  CA       -18.6140  111.4490    1.5610 C.3   144  TRP144      0.1605
     52  C        -19.5000  112.2640    0.6110 C.2   144  TRP144      0.2264
     53  O        -20.1770  111.7050   -0.2490 O.2   144  TRP144     -0.2867
     54  CB       -17.8540  110.3430    0.8150 C.3   144  TRP144      0.0550
     55  CG       -16.7650  110.8680   -0.0780 C.ar  144  TRP144      0.0003
     56  CD1      -16.5570  112.1710   -0.4460 C.ar  144  TRP144      0.0946
     57  CD2      -15.7300  110.1060   -0.7100 C.ar  144  TRP144      0.0152
     58  NE1      -15.4570  112.2640   -1.2670 N.ar  144  TRP144     -0.2442
     59  CE2      -14.9310  111.0120   -1.4420 C.ar  144  TRP144      0.0810
     60  CE3      -15.3980  108.7480   -0.7260 C.ar  144  TRP144      0.0012
     61  CZ2      -13.8220  110.5970   -2.1830 C.ar  144  TRP144      0.0191
     62  CZ3      -14.2960  108.3400   -1.4590 C.ar  144  TRP144      0.0001
     63  CH2      -13.5230  109.2610   -2.1790 C.ar  144  TRP144      0.0015
     64  N        -20.4510  114.6010   -2.4670 N.3   146  VAL146     -0.1245
     65  CA       -19.9170  114.6570   -3.8190 C.3   146  VAL146      0.1561
     66  C        -21.0030  115.1840   -4.7560 C.2   146  VAL146      0.2260
     67  O        -22.1940  114.9850   -4.4930 O.2   146  VAL146     -0.2867
     68  CB       -19.4060  113.2550   -4.2480 C.3   146  VAL146      0.0252
     69  CG1      -20.0710  112.7690   -5.5110 C.3   146  VAL146      0.0019
     70  CG2      -17.8980  113.2610   -4.3960 C.3   146  VAL146      0.0019
     71  N        -11.1860  115.7080    1.7830 N.3   176  HIS176     -0.1241
     72  CA       -10.6950  114.8470    0.7140 C.3   176  HIS176      0.1621
     73  C         -9.6680  115.5390   -0.1700 C.2   176  HIS176      0.2264
     74  O         -9.8850  116.6550   -0.6370 O.2   176  HIS176     -0.2867
     75  CB       -11.8430  114.3040   -0.1350 C.3   176  HIS176      0.0745
     76  CG       -11.3920  113.4040   -1.2450 C.ar  176  HIS176      0.0817
     77  ND1      -11.6510  113.6710   -2.5720 N.ar  176  HIS176     -0.2268
     78  CD2      -10.6850  112.2480   -1.2220 C.ar  176  HIS176      0.1154
     79  CE1      -11.1300  112.7130   -3.3220 C.ar  176  HIS176      0.1986
     80  NE2      -10.5380  111.8400   -2.5270 N.ar  176  HIS176     -0.2212
     81  N         -6.3840  112.6700   -6.1200 N.3   179  SER179     -0.1217
     82  CA        -5.1180  112.3060   -6.7510 C.3   179  SER179      0.1889
     83  C         -4.8760  113.0560   -8.0670 C.2   179  SER179      0.2288
     84  O         -3.7270  113.2920   -8.4490 O.2   179  SER179     -0.2866
     85  CB        -5.0390  110.7900   -6.9760 C.3   179  SER179      0.2089
     86  OG        -6.3370  110.2250   -7.1590 O.3   179  SER179     -0.2183
     87  N        -10.0320  113.9790  -11.3950 N.3   183  GLU183     -0.1245
     88  CA       -10.7790  113.4540  -10.2570 C.3   183  GLU183      0.1567
     89  C        -11.4840  114.5780   -9.4920 C.2   183  GLU183      0.2260
     90  O        -12.6870  114.4940   -9.2330 O.2   183  GLU183     -0.2867
     91  CB        -9.8440  112.6770   -9.3300 C.3   183  GLU183      0.0388
     92  CG       -10.5360  111.7750   -8.3180 C.3   183  GLU183      0.1160
     93  CD        -9.5400  111.0080   -7.4660 C.2   183  GLU183      0.3649
     94  OE1       -9.3550  109.7970   -7.7100 O.co2 183  GLU183     -0.2457
     95  OE2       -8.9430  111.6110   -6.5450 O.co2 183  GLU183     -0.2457
     96  N        -15.5560  115.2360   -9.1980 N.3   187  LEU187     -0.1245
     97  CA       -16.2160  115.1340   -7.8950 C.3   187  LEU187      0.1561
     98  C        -16.8320  116.4360   -7.3930 C.2   187  LEU187      0.2260
     99  O        -17.8880  116.4120   -6.7590 O.2   187  LEU187     -0.2867
    100  CB       -15.2510  114.5990   -6.8410 C.3   187  LEU187      0.0270
    101  CG       -14.7880  113.1610   -7.0310 C.3   187  LEU187      0.0019
    102  CD1      -14.3170  112.5830   -5.7100 C.3   187  LEU187      0.0001
    103  CD2      -15.9030  112.3240   -7.6110 C.3   187  LEU187      0.0001
    104  N         -0.3980  104.4040   -3.9910 N.3   215  GLN215     -0.1245
    105  CA        -1.7280  103.8820   -3.7000 C.3   215  GLN215      0.1566
    106  C         -1.7530  103.0580   -2.4190 C.2   215  GLN215      0.2260
    107  O         -1.0480  102.0580   -2.3010 O.2   215  GLN215     -0.2867
    108  CB        -2.2560  103.0510   -4.8740 C.3   215  GLN215      0.0367
    109  CG        -2.6180  103.8680   -6.1060 C.3   215  GLN215      0.0905
    110  CD        -3.3010  103.0340   -7.1720 C.2   215  GLN215      0.2608
    111  OE1       -3.5280  101.8380   -6.9880 O.2   215  GLN215     -0.2717
    112  NE2       -3.6350  103.6620   -8.2960 N.am  215  GLN215     -0.0878
    113  N         -5.3180  100.6260   -2.6490 N.3   218  GLY218     -0.1210
    114  CA        -5.8160  100.8560   -3.9910 C.3   218  GLY218      0.1956
    115  C         -6.1670  102.2940   -4.3320 C.2   218  GLY218      0.2612
    116  O         -6.5910  102.5810   -5.4500 O.2   218  GLY218     -0.2717
    117  N         -5.9940  103.2030   -3.3780 N.am  219  GLN219     -0.1965
    118  CA        -6.3800  104.5990   -3.5790 C.3   219  GLN219      0.1733
    119  C         -5.2040  105.5470   -3.3790 C.2   219  GLN219      0.2617
    120  O         -4.4510  105.4200   -2.4190 O.2   219  GLN219     -0.2715
    121  CB        -7.5070  104.9880   -2.6220 C.3   219  GLN219      0.0408
    122  CG        -8.6780  104.0220   -2.6250 C.3   219  GLN219      0.0908
    123  CD        -9.4080  104.0030   -3.9500 C.2   219  GLN219      0.2608
    124  OE1       -9.4750  105.0140   -4.6470 O.2   219  GLN219     -0.2717
    125  NE2       -9.9630  102.8490   -4.3050 N.am  219  GLN219     -0.0878
    126  N         -5.0520  106.5000   -4.2870 N.am  220  SER220     -0.1936
    127  CA        -3.9970  107.4950   -4.1680 C.3   220  SER220      0.2055
    128  C         -4.5750  108.8260   -3.6920 C.2   220  SER220      0.2643
    129  O         -3.8400  109.7680   -3.3910 O.2   220  SER220     -0.2714
    130  CB        -3.2490  107.6520   -5.4950 C.3   220  SER220      0.2130
    131  OG        -4.1480  107.7710   -6.5830 O.3   220  SER220     -0.2179
    132  N         -5.9000  108.8940   -3.6260 N.am  221  GLY221     -0.1954
    133  CA        -6.5570  109.9840   -2.9330 C.3   221  GLY221      0.1869
    134  C         -6.3860  109.8200   -1.4300 C.2   221  GLY221      0.2309
    135  O         -6.1370  108.7170   -0.9380 O.2   221  GLY221     -0.2863
@<TRIPOS>BOND
     1    87    88    1
     2    88    89    1
     3    88    91    1
     4    89    90    2
     5    91    92    1
     6    96    97    1
     7    84    83    2
     8    92    93    1
     9   112   110   am
    10    83    82    1
    11    97    98    1
    12    97   100    1
    13    94    93   ar
    14   103   101    1
    15    93    95   ar
    16    98    99    2
    17   110   111    2
    18   110   109    1
    19    86    85    1
    20   101   100    1
    21   101   102    1
    22    85    82    1
    23    82    81    1
    24   131   130    1
    25   109   108    1
    26    69    68    1
    27   130   127    1
    28   116   115    2
    29    41    39    1
    30   108   105    1
    31    39    40    1
    32    39    38    2
    33    49    47   am
    34    66    67    2
    35    66    65    1
    36   124   123    2
    37    38    37    1
    38    70    68    1
    39   115   114    1
    40   115   117   am
    41   125   123   am
    42   126   127    1
    43   126   119   am
    44    68    65    1
    45   127   128    1
    46   104   105    1
    47   114   113    1
    48   123   122    1
    49    37    36    1
    50    65    64    1
    51    47    48    2
    52    47    46    1
    53    36    35    1
    54    35    32    1
    55   105   106    1
    56   128   132   am
    57   128   129    2
    58   132   133    1
    59   118   119    1
    60   118   117    1
    61   118   121    1
    62   119   120    2
    63    79    77   ar
    64    79    80   ar
    65    23    21    1
    66   133   134    1
    67    20    19    2
    68    46    43    1
    69   122   121    1
    70    77    76   ar
    71    80    78   ar
    72    31    32    1
    73    31    26   am
    74   106   107    2
    75    32    33    1
    76    61    63   ar
    77    61    59   ar
    78    63    62   ar
    79    12    11    1
    80    19    24   am
    81    19    18    1
    82    25    26    1
    83    25    24    1
    84    25    28    1
    85    21    18    1
    86    21    22    1
    87    17    18    1
    88    17    15   am
    89    42    43    1
    90    26    27    2
    91    14    13    1
    92    14    15    1
    93    29    28    1
    94    43    44    1
    95    62    60   ar
    96    59    58   ar
    97    59    57   ar
    98   134   135    2
    99    58    56   ar
   100    76    78   ar
   101    76    75    1
   102    33    34    2
   103    28    30    1
   104    15    16    2
   105     9    11   ar
   106     9     7   ar
   107    11    10   ar
   108    60    57   ar
   109    57    55   ar
   110    74    73    2
   111    45    44    2
   112    56    55   ar
   113    53    52    2
   114    73    72    1
   115    75    72    1
   116    55    54    1
   117     7     6   ar
   118    10     8   ar
   119    52    51    1
   120    72    71    1
   121    54    51    1
   122     6     8   ar
   123     6     5    1
   124    51    50    1
   125     5     2    1
   126     2     3    1
   127     2     1    1
   128     3     4    2
