@<TRIPOS>MOLECULE
tmp/4qy3A00.pdb
 139 138 0 0 0
SMALL
GASTEIGER

@<TRIPOS>ATOM
      1  N          9.6100    0.0640    7.0710 N.3     1  HIS1       -0.1226
      2  CA         9.4250    0.4210    8.5030 C.3     1  HIS1        0.1752
      3  C          8.7360   -0.7210    9.2520 C.2     1  HIS1        0.2596
      4  O          8.8950   -1.8970    8.9030 O.2     1  HIS1       -0.2718
      5  CB         8.6330    1.7310    8.6190 C.3     1  HIS1        0.0759
      6  CG         7.6280    1.9320    7.5270 C.ar    1  HIS1        0.0818
      7  ND1        7.3280    3.1770    7.0170 N.ar    1  HIS1       -0.2268
      8  CD2        6.8640    1.0490    6.8400 C.ar    1  HIS1        0.1154
      9  CE1        6.4230    3.0540    6.0600 C.ar    1  HIS1        0.1986
     10  NE2        6.1250    1.7720    5.9330 N.ar    1  HIS1       -0.2212
     11  N          7.9510   -0.3750   10.2610 N.am    2  TRP2       -0.1962
     12  CA         7.3000   -1.3790   11.0800 C.3     2  TRP2        0.1771
     13  C          6.3100   -2.2700   10.3550 C.2     2  TRP2        0.2620
     14  O          5.7450   -1.9070    9.3050 O.2     2  TRP2       -0.2715
     15  CB         6.6020   -0.7080   12.2680 C.3     2  TRP2        0.0590
     16  CG         5.3400    0.0460   11.9140 C.ar    2  TRP2        0.0006
     17  CD1        5.2200    1.3630   11.5530 C.ar    2  TRP2        0.0946
     18  CD2        4.0170   -0.4800   11.9360 C.ar    2  TRP2        0.0152
     19  NE1        3.8940    1.6860   11.3560 N.ar    2  TRP2       -0.2442
     20  CE2        3.1350    0.5660   11.5870 C.ar    2  TRP2        0.0810
     21  CE3        3.4890   -1.7390   12.2200 C.ar    2  TRP2        0.0012
     22  CZ2        1.7590    0.3800   11.5230 C.ar    2  TRP2        0.0191
     23  CZ3        2.1290   -1.9200   12.1570 C.ar    2  TRP2        0.0001
     24  CH2        1.2750   -0.8660   11.8130 C.ar    2  TRP2        0.0015
     25  N          6.1010   -3.4480   10.9300 N.am    3  GLY3       -0.1940
     26  CA         5.1520   -4.3840   10.3600 C.3     3  GLY3        0.2014
     27  C          4.8410   -5.5030   11.3360 C.2     3  GLY3        0.2639
     28  O          4.8500   -5.3150   12.5690 O.2     3  GLY3       -0.2714
     29  N          4.5370   -6.6610   10.7680 N.am    4  TYR4       -0.1959
     30  CA         4.2000   -7.8460   11.5390 C.3     4  TYR4        0.1771
     31  C          5.0710   -9.0580   11.1900 C.2     4  TYR4        0.2620
     32  O          4.7110  -10.1980   11.4810 O.2     4  TYR4       -0.2715
     33  CB         2.7240   -8.1740   11.3220 C.3     4  TYR4        0.0574
     34  CG         1.7800   -7.0900   11.8340 C.ar    4  TYR4       -0.0198
     35  CD1        1.4140   -7.0460   13.1860 C.ar    4  TYR4       -0.0009
     36  CD2        1.2790   -6.0950   10.9860 C.ar    4  TYR4       -0.0009
     37  CE1        0.5660   -6.0360   13.6630 C.ar    4  TYR4        0.0417
     38  CE2        0.4510   -5.0890   11.4520 C.ar    4  TYR4        0.0417
     39  CZ         0.0830   -5.0590   12.7920 C.ar    4  TYR4        0.1957
     40  OH        -0.7990   -4.0890   13.2230 O.3     4  TYR4       -0.2866
     41  N          6.2160   -8.8100   10.5590 N.am    5  GLY5       -0.1940
     42  CA         7.1100   -9.9130   10.2130 C.3     5  GLY5        0.2014
     43  C          8.1000  -10.1950   11.3370 C.2     5  GLY5        0.2638
     44  O          8.1630   -9.4760   12.3390 O.2     5  GLY5       -0.2714
     45  N          8.8950  -11.2430   11.1720 N.am    6  LYS6       -0.1977
     46  CA         9.8860  -11.5970   12.1790 C.3     6  LYS6        0.1596
     47  C         10.8650  -10.4550   12.3880 C.2     6  LYS6        0.2287
     48  O         11.3290  -10.2040   13.5030 O.2     6  LYS6       -0.2864
     49  CB        10.6600  -12.8530   11.7400 C.3     6  LYS6        0.0298
     50  CG        11.7020  -13.2960   12.7620 C.3     6  LYS6        0.0038
     51  CD        12.0360  -14.7820   12.6240 C.3     6  LYS6        0.0206
     52  CE        12.6960  -15.3050   13.9010 C.3     6  LYS6        0.1093
     53  NZ        12.9190  -16.8020   13.8990 N.3     6  LYS6       -0.1314
     54  N         10.3400   -7.0390   11.6410 N.3     8  ASN8       -0.1240
     55  CA         9.8550   -5.6890   11.8950 C.3     8  ASN8        0.1653
     56  C          8.5840   -5.7160   12.7320 C.2     8  ASN8        0.2266
     57  O          7.9200   -4.6920   12.8770 O.2     8  ASN8       -0.2867
     58  CB         9.5770   -4.9790   10.5550 C.3     8  ASN8        0.1155
     59  CG         8.4780   -5.6480    9.7400 C.2     8  ASN8        0.2627
     60  OD1        7.9930   -6.7030   10.1010 O.2     8  ASN8       -0.2716
     61  ND2        8.1050   -5.0420    8.6010 N.am    8  ASN8       -0.0877
     62  N         -0.9090   -1.0550    3.8600 N.3    60  GLY60      -0.1210
     63  CA         0.2420   -1.9150    4.0390 C.3    60  GLY60       0.1956
     64  C          0.2900   -2.6250    5.3700 C.2    60  GLY60       0.2611
     65  O          1.2250   -3.3960    5.6200 O.2    60  GLY60      -0.2717
     66  N         -0.6940   -2.3480    6.2280 N.am   61  HIS61      -0.1975
     67  CA        -0.7910   -2.9690    7.5550 C.3    61  HIS61       0.1656
     68  C         -2.1650   -3.6140    7.7220 C.2    61  HIS61       0.2291
     69  O         -2.2700   -4.7340    8.2250 O.2    61  HIS61      -0.2864
     70  CB        -0.5460   -1.9260    8.6600 C.3    61  HIS61       0.0771
     71  CG         0.7300   -1.1500    8.4740 C.ar   61  HIS61       0.0820
     72  ND1        1.9800   -1.7320    8.5710 N.ar   61  HIS61      -0.2267
     73  CD2        0.9440    0.1530    8.1830 C.ar   61  HIS61       0.1154
     74  CE1        2.9120   -0.8210    8.3420 C.ar   61  HIS61       0.1986
     75  NE2        2.3110    0.3320    8.1050 N.ar   61  HIS61      -0.2212
     76  N         -0.6190   -2.5250   -1.0080 N.3   166  LYS166     -0.1245
     77  CA        -0.3040   -1.3210   -0.2670 C.3   166  LYS166      0.1561
     78  C         -0.3910   -0.0630   -1.1360 C.2   166  LYS166      0.2260
     79  O          0.2100   -0.0130   -2.2040 O.2   166  LYS166     -0.2867
     80  CB         1.1160   -1.4310    0.3020 C.3   166  LYS166      0.0271
     81  CG         1.5300   -0.2550    1.1820 C.3   166  LYS166      0.0035
     82  CD         2.9140   -0.5290    1.7750 C.3   166  LYS166      0.0206
     83  CE         3.2780    0.4760    2.8580 C.3   166  LYS166      0.1093
     84  NZ         4.3900   -0.0690    3.7300 N.3   166  LYS166     -0.1314
     85  N          0.5030   -7.2540    2.0370 N.3   227  PHE227     -0.1227
     86  CA         1.1700   -6.2140    2.8150 C.3   227  PHE227      0.1736
     87  C          2.0130   -5.3620    1.8400 C.2   227  PHE227      0.2595
     88  O          2.2300   -4.1700    2.0640 O.2   227  PHE227     -0.2718
     89  CB         2.1480   -6.8010    3.8170 C.3   227  PHE227      0.0547
     90  CG         1.5250   -7.3560    5.0780 C.ar  227  PHE227     -0.0202
     91  CD1        0.7660   -6.5570    5.9240 C.ar  227  PHE227     -0.0042
     92  CD2        1.8250   -8.6590    5.4760 C.ar  227  PHE227     -0.0042
     93  CE1        0.3230   -7.0380    7.1620 C.ar  227  PHE227     -0.0003
     94  CE2        1.3890   -9.1620    6.7200 C.ar  227  PHE227     -0.0003
     95  CZ         0.6390   -8.3550    7.5630 C.ar  227  PHE227     -0.0000
     96  N          2.5020   -6.0150    0.7920 N.am  228  ASN228     -0.1960
     97  CA         3.3570   -5.4010   -0.2170 C.3   228  ASN228      0.1819
     98  C          2.6070   -4.5230   -1.2030 C.2   228  ASN228      0.2621
     99  O          1.3830   -4.6100   -1.3450 O.2   228  ASN228     -0.2715
    100  CB         4.0400   -6.4880   -1.0400 C.3   228  ASN228      0.1195
    101  CG         3.0320   -7.4740   -1.6130 C.2   228  ASN228      0.2630
    102  OD1        2.5180   -8.3060   -0.8880 O.2   228  ASN228     -0.2716
    103  ND2        2.7250   -7.3670   -2.9210 N.am  228  ASN228     -0.0877
    104  N          3.3790   -3.7000   -1.9120 N.am  229  GLY229     -0.1954
    105  CA         2.8090   -2.8490   -2.9340 C.3   229  GLY229      0.1869
    106  C          2.7700   -3.6200   -4.2530 C.2   229  GLY229      0.2309
    107  O          3.3540   -4.7040   -4.3830 O.2   229  GLY229     -0.2863
    108  N          5.6480   -5.8860   -6.2790 N.3   232  GLU232     -0.1231
    109  CA         6.6430   -6.3620   -5.3170 C.3   232  GLU232      0.1684
    110  C          6.2570   -7.7980   -4.9920 C.2   232  GLU232      0.2434
    111  O          5.1460   -8.2310   -5.2990 O.2   232  GLU232     -0.2733
    112  CB         6.6420   -5.5060   -4.0430 C.3   232  GLU232      0.0402
    113  CG         6.6640   -4.0010   -4.3050 C.3   232  GLU232      0.1161
    114  CD         6.8230   -3.1610   -3.0390 C.2   232  GLU232      0.3649
    115  OE1        6.1170   -3.4090   -2.0350 O.co2 232  GLU232     -0.2457
    116  OE2        7.6600   -2.2310   -3.0540 O.co2 232  GLU232     -0.2457
    117  N          7.1710   -8.5590   -4.3740 N.am  233  PRO233     -0.2729
    118  CA         6.8490   -9.9480   -4.0440 C.3   233  PRO233      0.1401
    119  C          5.6520  -10.0180   -3.0940 C.2   233  PRO233      0.2269
    120  O          5.5450   -9.2330   -2.1620 O.2   233  PRO233     -0.2865
    121  CB         8.1380  -10.4620   -3.4080 C.3   233  PRO233      0.0296
    122  CG         9.2060   -9.6070   -4.0710 C.3   233  PRO233      0.0237
    123  CD         8.5630   -8.2420   -4.0090 C.3   233  PRO233      0.0939
    124  N          3.3140  -10.9230   -0.1620 N.3   235  GLU235     -0.1245
    125  CA         3.3920  -11.3330    1.2300 C.3   235  GLU235      0.1567
    126  C          1.9640  -11.1500    1.6980 C.2   235  GLU235      0.2260
    127  O          1.4770  -10.0170    1.7850 O.2   235  GLU235     -0.2867
    128  CB         4.3230  -10.4320    2.0190 C.3   235  GLU235      0.0388
    129  CG         4.4220  -10.8780    3.4580 C.3   235  GLU235      0.1160
    130  CD         5.2160  -12.1710    3.5990 C.2   235  GLU235      0.3649
    131  OE1        6.3880  -12.1730    3.1450 O.co2 235  GLU235     -0.2457
    132  OE2        4.6790  -13.1640    4.1490 O.co2 235  GLU235     -0.2457
    133  N         -1.7730  -11.2470    6.6510 N.3   238  VAL238     -0.1245
    134  CA        -2.3360  -12.1090    7.6940 C.3   238  VAL238      0.1561
    135  C         -1.5410  -11.8600    8.9670 C.2   238  VAL238      0.2260
    136  O         -0.4080  -11.3760    8.9220 O.2   238  VAL238     -0.2867
    137  CB        -2.2650  -13.6340    7.3610 C.3   238  VAL238      0.0252
    138  CG1       -3.1710  -13.9480    6.1470 C.3   238  VAL238      0.0019
    139  CG2       -0.8250  -14.0570    7.1070 C.3   238  VAL238      0.0019
@<TRIPOS>BOND
     1   108   109    1
     2   109   110    1
     3   109   112    1
     4   111   110    2
     5   110   117   am
     6   107   106    2
     7   117   118    1
     8   117   123    1
     9   113   112    1
    10   113   114    1
    11   106   105    1
    12   122   123    1
    13   122   121    1
    14   118   121    1
    15   118   119    1
    16   119   120    2
    17   116   114   ar
    18   114   115   ar
    19   105   104    1
    20   103   101   am
    21    79    78    2
    22   104    98   am
    23   101   100    1
    24   101   102    2
    25    99    98    2
    26    98    97    1
    27    78    77    1
    28   100    97    1
    29    76    77    1
    30    77    80    1
    31    97    96    1
    32   124   125    1
    33    80    81    1
    34    96    87   am
    35    81    82    1
    36   125   126    1
    37   125   128    1
    38   126   127    2
    39    82    83    1
    40    87    88    2
    41    87    86    1
    42   128   129    1
    43    85    86    1
    44    86    89    1
    45    83    84    1
    46   131   130   ar
    47   129   130    1
    48   130   132   ar
    49    89    90    1
    50    62    63    1
    51    63    64    1
    52    90    92   ar
    53    90    91   ar
    54    64    65    2
    55    64    66   am
    56    92    94   ar
    57    91    93   ar
    58    10     9   ar
    59    10     8   ar
    60     9     7   ar
    61   138   137    1
    62    66    67    1
    63   133   134    1
    64    94    95   ar
    65     8     6   ar
    66     7     6   ar
    67     1     2    1
    68   139   137    1
    69    93    95   ar
    70   137   134    1
    71     6     5    1
    72    67    68    1
    73    67    70    1
    74   134   135    1
    75    68    69    2
    76    75    73   ar
    77    75    74   ar
    78    73    71   ar
    79    74    72   ar
    80    71    72   ar
    81    71    70    1
    82     2     5    1
    83     2     3    1
    84    61    59   am
    85     4     3    2
    86   136   135    2
    87     3    11   am
    88    14    13    2
    89    59    60    2
    90    59    58    1
    91    42    41    1
    92    42    43    1
    93    11    12    1
    94    13    25   am
    95    13    12    1
    96    26    25    1
    97    26    27    1
    98    58    55    1
    99    41    31   am
   100    29    27   am
   101    29    30    1
   102    36    38   ar
   103    36    34   ar
   104    12    15    1
   105    45    43   am
   106    45    46    1
   107    31    32    2
   108    31    30    1
   109    33    30    1
   110    33    34    1
   111    27    28    2
   112    43    44    2
   113    19    17   ar
   114    19    20   ar
   115    38    39   ar
   116    22    20   ar
   117    22    24   ar
   118    17    16   ar
   119    20    18   ar
   120    54    55    1
   121    49    46    1
   122    49    50    1
   123    24    23   ar
   124    34    35   ar
   125    55    56    1
   126    16    18   ar
   127    16    15    1
   128    18    21   ar
   129    23    21   ar
   130    46    47    1
   131    47    48    2
   132    51    50    1
   133    51    52    1
   134    56    57    2
   135    39    40    1
   136    39    37   ar
   137    35    37   ar
   138    53    52    1
