@<TRIPOS>MOLECULE
tmp/4qyfA00.pdb
 165 153 0 0 0
SMALL
GASTEIGER

@<TRIPOS>ATOM
      1  N          2.2310    3.0870   29.1180 N.3    11  GLN11      -0.1245
      2  CA         1.2640    2.8230   28.0420 C.3    11  GLN11       0.1566
      3  C          1.9880    2.5040   26.7370 C.2    11  GLN11       0.2260
      4  O          2.8960    3.2320   26.3330 O.2    11  GLN11      -0.2867
      5  CB         0.3530    4.0490   27.8440 C.3    11  GLN11       0.0367
      6  CG        -0.7220    3.9360   26.7650 C.3    11  GLN11       0.0905
      7  CD        -1.4890    5.2430   26.5870 C.2    11  GLN11       0.2608
      8  OE1       -1.4710    6.1100   27.4670 O.2    11  GLN11      -0.2717
      9  NE2       -2.1630    5.3930   25.4490 N.am   11  GLN11      -0.0878
     10  N          2.3180    2.7080   22.9270 N.3    13  LEU13      -0.1245
     11  CA         1.8780    3.6320   21.8780 C.3    13  LEU13       0.1561
     12  C          1.9050    3.0310   20.4670 C.2    13  LEU13       0.2260
     13  O          1.1770    3.4860   19.5790 O.2    13  LEU13      -0.2867
     14  CB         2.7570    4.8900   21.8870 C.3    13  LEU13       0.0270
     15  CG         2.6000    5.8010   23.0970 C.3    13  LEU13       0.0019
     16  CD1        3.4600    7.0460   22.9080 C.3    13  LEU13       0.0001
     17  CD2        1.1290    6.1380   23.3080 C.3    13  LEU13       0.0001
     18  N          7.0120    1.4310   20.9530 N.3    21  VAL21      -0.1245
     19  CA         7.1240    2.7980   21.4340 C.3    21  VAL21       0.1561
     20  C          6.2570    2.8600   22.6920 C.2    21  VAL21       0.2260
     21  O          5.0920    2.4530   22.6590 O.2    21  VAL21      -0.2867
     22  CB         6.6720    3.8380   20.3710 C.3    21  VAL21       0.0252
     23  CG1        6.9140    5.2670   20.8720 C.3    21  VAL21       0.0019
     24  CG2        7.4020    3.6060   19.0430 C.3    21  VAL21       0.0019
     25  N          7.8570   10.0310   24.4170 N.3    34  ALA34      -0.1245
     26  CA         7.7550    8.7280   23.7560 C.3    34  ALA34       0.1562
     27  C          9.1400    8.0740   23.7260 C.2    34  ALA34       0.2260
     28  O         10.1470    8.6980   23.3500 O.2    34  ALA34      -0.2867
     29  CB         7.2010    8.8760   22.3380 C.3    34  ALA34       0.0290
     30  N         11.2720    4.9280   22.1650 N.3    36  LYS36      -0.1245
     31  CA        11.2870    3.8920   21.1340 C.3    36  LYS36       0.1561
     32  C         12.3140    2.8680   21.5670 C.2    36  LYS36       0.2260
     33  O         13.5030    3.1780   21.6880 O.2    36  LYS36      -0.2867
     34  CB        11.6290    4.4610   19.7440 C.3    36  LYS36       0.0271
     35  CG        11.5820    3.4370   18.6130 C.3    36  LYS36       0.0035
     36  CD        11.8930    4.0740   17.2690 C.3    36  LYS36       0.0206
     37  CE        11.8350    3.0780   16.1210 C.3    36  LYS36       0.1093
     38  NZ        11.9340    3.7760   14.8000 N.3    36  LYS36      -0.1314
     39  N         19.6450    5.9900   12.1300 N.3    46  GLU46      -0.1245
     40  CA        18.4090    6.6290   12.5740 C.3    46  GLU46       0.1567
     41  C         18.6570    7.6180   13.7140 C.2    46  GLU46       0.2260
     42  O         18.0830    8.6990   13.7320 O.2    46  GLU46      -0.2867
     43  CB        17.3850    5.5750   13.0060 C.3    46  GLU46       0.0388
     44  CG        16.1450    6.1410   13.7200 C.3    46  GLU46       0.1160
     45  CD        15.0450    5.1140   13.8900 C.2    46  GLU46       0.3649
     46  OE1       15.2490    3.9650   13.4740 O.co2  46  GLU46      -0.2457
     47  OE2       13.9830    5.4500   14.4490 O.co2  46  GLU46      -0.2457
     48  N         18.3630   11.5890   13.4690 N.3    50  ASN50      -0.1240
     49  CA        17.5100   12.2430   14.4730 C.3    50  ASN50       0.1653
     50  C         18.1810   13.4190   15.1660 C.2    50  ASN50       0.2266
     51  O         17.5430   14.4470   15.3830 O.2    50  ASN50      -0.2867
     52  CB        16.9820   11.2370   15.5090 C.3    50  ASN50       0.1155
     53  CG        15.5970   10.7080   15.1630 C.2    50  ASN50       0.2627
     54  OD1       14.6040   11.3990   15.3460 O.2    50  ASN50      -0.2716
     55  ND2       15.5260    9.4820   14.6770 N.am   50  ASN50      -0.0877
     56  N          9.1900   15.3760   14.6130 N.3    59  VAL59      -0.1245
     57  CA         9.2730   14.8090   15.9460 C.3    59  VAL59       0.1561
     58  C         10.6920   15.0220   16.5150 C.2    59  VAL59       0.2260
     59  O         11.6710   14.5630   15.9350 O.2    59  VAL59      -0.2867
     60  CB         8.8870   13.3160   15.9640 C.3    59  VAL59       0.0252
     61  CG1        9.2020   12.6740   17.3500 C.3    59  VAL59       0.0019
     62  CG2        7.4000   13.1420   15.5990 C.3    59  VAL59       0.0019
     63  N         15.4380    5.3430   22.3640 N.3    73  LEU73      -0.1245
     64  CA        15.3970    6.6820   21.7580 C.3    73  LEU73       0.1561
     65  C         14.3210    7.4800   22.4770 C.2    73  LEU73       0.2260
     66  O         13.2040    7.0000   22.6360 O.2    73  LEU73      -0.2867
     67  CB        15.1110    6.6140   20.2450 C.3    73  LEU73       0.0270
     68  CG        16.2720    6.2560   19.2950 C.3    73  LEU73       0.0019
     69  CD1       16.6600    4.7710   19.4050 C.3    73  LEU73       0.0001
     70  CD2       15.9190    6.6390   17.8390 C.3    73  LEU73       0.0001
     71  N         11.9290   10.5970   22.4100 N.3    75  LEU75      -0.1231
     72  CA        11.3050   11.3890   21.3510 C.3    75  LEU75       0.1693
     73  C         10.1250   12.1860   21.8840 C.2    75  LEU75       0.2592
     74  O          9.5340   11.8250   22.9060 O.2    75  LEU75      -0.2718
     75  CB        10.8380   10.4630   20.2240 C.3    75  LEU75       0.0284
     76  CG        11.9630    9.5780   19.6370 C.3    75  LEU75       0.0019
     77  CD1       11.4630    8.2120   19.2360 C.3    75  LEU75       0.0001
     78  CD2       12.6380   10.2970   18.4950 C.3    75  LEU75       0.0001
     79  N          9.8050   13.2680   21.1740 N.am   76  GLU76      -0.1966
     80  CA         8.6800   14.1500   21.4840 C.3    76  GLU76       0.1733
     81  C          7.3620   13.3830   21.4850 C.2    76  GLU76       0.2616
     82  O          7.0030   12.7880   20.4780 O.2    76  GLU76      -0.2715
     83  CB         8.6240   15.2700   20.4340 C.3    76  GLU76       0.0429
     84  CG         7.5340   16.3120   20.6330 C.3    76  GLU76       0.1163
     85  CD         7.3940   17.2520   19.4530 C.2    76  GLU76       0.3649
     86  OE1        8.2280   17.2050   18.5070 O.co2  76  GLU76      -0.2457
     87  OE2        6.4220   18.0340   19.4750 O.co2  76  GLU76      -0.2457
     88  N          6.6510   13.3840   22.6080 N.am   77  TYR77      -0.1960
     89  CA         5.3470   12.7120   22.6900 C.3    77  TYR77       0.1771
     90  C          4.2580   13.5170   21.9820 C.2    77  TYR77       0.2620
     91  O          4.1000   14.7130   22.2110 O.2    77  TYR77      -0.2715
     92  CB         4.9280   12.4880   24.1450 C.3    77  TYR77       0.0574
     93  CG         3.5460   11.8780   24.2980 C.ar   77  TYR77      -0.0198
     94  CD1        3.2120   10.6870   23.6430 C.ar   77  TYR77      -0.0009
     95  CD2        2.5820   12.4770   25.1220 C.ar   77  TYR77      -0.0009
     96  CE1        1.9450   10.1140   23.7880 C.ar   77  TYR77       0.0417
     97  CE2        1.3260   11.9130   25.2720 C.ar   77  TYR77       0.0417
     98  CZ         1.0160   10.7340   24.5970 C.ar   77  TYR77       0.1957
     99  OH        -0.2300   10.1840   24.7360 O.3    77  TYR77      -0.2866
    100  N          3.4910   12.8260   21.1480 N.am   78  CYS78      -0.1954
    101  CA         2.4960   13.4310   20.2980 C.3    78  CYS78       0.1843
    102  C          1.1460   12.8250   20.6890 C.2    78  CYS78       0.2626
    103  O          0.7910   11.7410   20.2390 O.2    78  CYS78      -0.2714
    104  CB         2.8470   13.1620   18.8190 C.3    78  CYS78       0.0997
    105  SG         4.3190   14.0310   18.2020 S.3    78  CYS78      -0.0797
    106  N          0.4000   13.5190   21.5420 N.am   79  SER79      -0.1950
    107  CA        -0.7600   12.8970   22.2150 C.3    79  SER79       0.1924
    108  C         -1.9510   12.7100   21.2770 C.2    79  SER79       0.2314
    109  O         -2.7830   11.8330   21.5080 O.2    79  SER79      -0.2863
    110  CB        -1.1650   13.7080   23.4490 C.3    79  SER79       0.2116
    111  OG        -1.5770   15.0130   23.0900 O.3    79  SER79      -0.2180
    112  N         -1.8880   11.3220   18.4040 N.3    81  GLY81      -0.1210
    113  CA        -1.7660   10.0580   17.6690 C.3    81  GLY81       0.1956
    114  C         -1.4960   10.2840   16.1800 C.2    81  GLY81       0.2611
    115  O         -0.9540   11.3050   15.7930 O.2    81  GLY81      -0.2717
    116  N         -1.9300    9.3440   15.3480 N.am   82  GLU82      -0.1979
    117  CA        -1.6430    9.3740   13.9130 C.3    82  GLU82       0.1602
    118  C         -2.6900   10.1080   13.1190 C.2    82  GLU82       0.2287
    119  O         -3.8700   10.0240   13.4170 O.2    82  GLU82      -0.2864
    120  CB        -1.5220    7.9680   13.3630 C.3    82  GLU82       0.0415
    121  CG        -0.4670    7.1600   14.0480 C.3    82  GLU82       0.1163
    122  CD        -0.4250    5.7330   13.5550 C.2    82  GLU82       0.3649
    123  OE1       -1.1980    5.3780   12.6420 O.co2  82  GLU82      -0.2457
    124  OE2        0.3960    4.9830   14.0930 O.co2  82  GLU82      -0.2457
    125  N         -5.7120    8.2330   11.8090 N.3    85  ASP85      -0.1239
    126  CA        -6.9920    8.0950   12.5090 C.3    85  ASP85       0.1674
    127  C         -7.8860    9.3220   12.4310 C.2    85  ASP85       0.2266
    128  O         -8.9950    9.2740   12.9210 O.2    85  ASP85      -0.2867
    129  CB        -6.7740    7.6590   13.9680 C.3    85  ASP85       0.1410
    130  CG        -6.1610    6.2670   14.0660 C.2    85  ASP85       0.3668
    131  OD1       -6.6810    5.3410   13.4130 O.co2  85  ASP85      -0.2456
    132  OD2       -5.1410    6.1030   14.7580 O.co2  85  ASP85      -0.2456
    133  N          2.2780   12.4320   12.8860 N.3   128  LEU128     -0.1245
    134  CA         1.7210   12.4600   14.2220 C.3   128  LEU128      0.1561
    135  C          1.1700   13.8440   14.5190 C.2   128  LEU128      0.2260
    136  O          1.5220   14.8090   13.8570 O.2   128  LEU128     -0.2867
    137  CB         2.7940   12.0350   15.2590 C.3   128  LEU128      0.0270
    138  CG         3.4010   10.6260   15.0590 C.3   128  LEU128      0.0019
    139  CD1        4.3260   10.2060   16.2520 C.3   128  LEU128      0.0001
    140  CD2        2.3090    9.5540   14.8180 C.3   128  LEU128      0.0001
    141  N          7.3770   11.7520   11.7000 N.3   138  SER138     -0.1202
    142  CA         8.0270   10.8020   12.5980 C.3   138  SER138      0.2020
    143  C          8.5870    9.5650   11.8980 C.2   138  SER138      0.2619
    144  O          8.1710    9.2030   10.7890 O.2   138  SER138     -0.2717
    145  CB         7.0690   10.3720   13.7220 C.3   138  SER138      0.2103
    146  OG         6.2480    9.2950   13.3610 O.3   138  SER138     -0.2182
    147  N          9.5360    8.9360   12.5920 N.am  139  ASP139     -0.1959
    148  CA        10.1450    7.6640   12.2020 C.3   139  ASP139      0.1840
    149  C         11.1270    7.8260   11.0620 C.2   139  ASP139      0.2622
    150  O         10.7440    7.7820    9.8810 O.2   139  ASP139     -0.2715
    151  CB         9.0830    6.5910   11.8630 C.3   139  ASP139      0.1450
    152  CG         9.6950    5.1930   11.7130 C.2   139  ASP139      0.3671
    153  OD1       10.9430    5.0760   11.6530 O.co2 139  ASP139     -0.2456
    154  OD2        8.9230    4.2150   11.6500 O.co2 139  ASP139     -0.2456
    155  N         12.3960    8.0010   11.4290 N.am  140  PHE140     -0.1974
    156  CA        13.4700    8.2500   10.4760 C.3   140  PHE140      0.1639
    157  C         14.3290    7.0240   10.2260 C.2   140  PHE140      0.2290
    158  O         15.5090    7.1330    9.8980 O.2   140  PHE140     -0.2864
    159  CB        14.2640    9.4690   10.9340 C.3   140  PHE140      0.0560
    160  CG        13.4820   10.7380   10.8120 C.ar  140  PHE140     -0.0200
    161  CD1       12.5210   11.0780   11.7730 C.ar  140  PHE140     -0.0042
    162  CD2       13.6100   11.5350    9.6800 C.ar  140  PHE140     -0.0042
    163  CE1       11.7420   12.2380   11.6290 C.ar  140  PHE140     -0.0003
    164  CE2       12.8560   12.7170    9.5320 C.ar  140  PHE140     -0.0003
    165  CZ        11.9340   13.0720   10.5000 C.ar  140  PHE140     -0.0000
@<TRIPOS>BOND
     1   164   162   ar
     2   164   165   ar
     3   162   160   ar
     4   150   149    2
     5   158   157    2
     6   157   156    1
     7   156   159    1
     8   156   155    1
     9   165   163   ar
    10   144   143    2
    11   160   159    1
    12   160   161   ar
    13   149   155   am
    14   149   148    1
    15   163   161   ar
    16   154   152   ar
    17   153   152   ar
    18   141   142    1
    19   152   151    1
    20   125   126    1
    21   151   148    1
    22   143   147   am
    23   143   142    1
    24    39    40    1
    25   148   147    1
    26   127   126    1
    27   127   128    2
    28   126   129    1
    29    40    43    1
    30    40    41    1
    31   142   145    1
    32   123   122   ar
    33   133   134    1
    34    43    44    1
    35   118   119    2
    36   118   117    1
    37   146   145    1
    38   120   117    1
    39   120   121    1
    40   131   130   ar
    41    48    49    1
    42    46    45   ar
    43   122   121    1
    44   122   124   ar
    45    41    42    2
    46    44    45    1
    47   136   135    2
    48    45    47   ar
    49   117   116    1
    50   129   130    1
    51   130   132   ar
    52   134   135    1
    53   134   137    1
    54    49    50    1
    55    49    52    1
    56    56    57    1
    57    55    53   am
    58    38    37    1
    59   140   138    1
    60   138   137    1
    61   138   139    1
    62    53    54    2
    63    53    52    1
    64    50    51    2
    65   116   114   am
    66    62    60    1
    67   115   114    2
    68    59    58    2
    69    57    60    1
    70    57    58    1
    71    60    61    1
    72    37    36    1
    73   114   113    1
    74    36    35    1
    75   113   112    1
    76    70    68    1
    77   105   104    1
    78    78    76    1
    79    86    85   ar
    80    35    34    1
    81   104   101    1
    82    24    22    1
    83    77    76    1
    84    68    69    1
    85    68    67    1
    86    85    87   ar
    87    85    84    1
    88    13    12    2
    89    76    75    1
    90    34    31    1
    91    75    72    1
    92   103   102    2
    93    67    64    1
    94   101   102    1
    95   101   100    1
    96    22    23    1
    97    22    19    1
    98    83    84    1
    99    83    80    1
   100    12    11    1
   101    82    81    2
   102   102   106   am
   103    18    19    1
   104    31    32    1
   105    31    30    1
   106   100    90   am
   107    79    80    1
   108    79    73   am
   109   108   109    2
   110   108   107    1
   111    72    73    1
   112    72    71    1
   113    19    20    1
   114    80    81    1
   115    81    88   am
   116   106   107    1
   117    32    33    2
   118    64    63    1
   119    64    65    1
   120    11    14    1
   121    11    10    1
   122    73    74    2
   123    14    15    1
   124    90    91    2
   125    90    89    1
   126   107   110    1
   127    29    26    1
   128    65    66    2
   129    88    89    1
   130    21    20    2
   131    89    92    1
   132    16    15    1
   133   111   110    1
   134    15    17    1
   135    28    27    2
   136    94    96   ar
   137    94    93   ar
   138    27    26    1
   139    26    25    1
   140    96    98   ar
   141    92    93    1
   142    93    95   ar
   143    98    99    1
   144    98    97   ar
   145    95    97   ar
   146     9     7   am
   147     4     3    2
   148     7     6    1
   149     7     8    2
   150     3     2    1
   151     6     5    1
   152     5     2    1
   153     2     1    1
