@<TRIPOS>MOLECULE
tmp/4qyhB00.pdb
 138 127 0 0 0
SMALL
GASTEIGER

@<TRIPOS>ATOM
      1  N         -6.4430  -27.4890   29.7940 N.3    11  GLN11      -0.1245
      2  CA        -5.5400  -27.8220   30.9000 C.3    11  GLN11       0.1566
      3  C         -6.2800  -28.0030   32.2250 C.2    11  GLN11       0.2260
      4  O         -7.1300  -27.2130   32.5420 O.2    11  GLN11      -0.2867
      5  CB        -4.5210  -26.6910   31.0570 C.3    11  GLN11       0.0367
      6  CG        -3.4070  -26.9690   32.0460 C.3    11  GLN11       0.0905
      7  CD        -2.7080  -25.7000   32.4590 C.2    11  GLN11       0.2608
      8  OE1       -2.9270  -24.6390   31.8650 O.2    11  GLN11      -0.2717
      9  NE2       -1.8730  -25.7870   33.4870 N.am   11  GLN11      -0.0878
     10  N         -6.7910  -27.5170   35.9970 N.3    13  LEU13      -0.1245
     11  CA        -6.3480  -26.5280   36.9890 C.3    13  LEU13       0.1561
     12  C         -6.3650  -27.1390   38.3990 C.2    13  LEU13       0.2260
     13  O         -5.5580  -26.7710   39.2480 O.2    13  LEU13      -0.2867
     14  CB        -7.2050  -25.2570   36.8950 C.3    13  LEU13       0.0270
     15  CG        -7.2110  -24.6110   35.4950 C.3    13  LEU13       0.0019
     16  CD1       -8.1400  -23.4130   35.4030 C.3    13  LEU13       0.0001
     17  CD2       -5.8140  -24.2220   35.0740 C.3    13  LEU13       0.0001
     18  N        -11.5970  -28.7950   37.6630 N.3    21  VAL21      -0.1245
     19  CA       -11.6080  -27.4590   37.0790 C.3    21  VAL21       0.1561
     20  C        -10.6330  -27.4620   35.8930 C.2    21  VAL21       0.2260
     21  O         -9.5050  -27.9640   36.0070 O.2    21  VAL21      -0.2867
     22  CB       -11.1950  -26.3750   38.1570 C.3    21  VAL21       0.0252
     23  CG1      -11.1980  -24.9690   37.5920 C.3    21  VAL21       0.0019
     24  CG2      -12.1220  -26.4640   39.3790 C.3    21  VAL21       0.0019
     25  N        -12.2790  -20.3310   33.4350 N.3    34  ALA34      -0.1245
     26  CA       -12.1900  -21.5680   34.2070 C.3    34  ALA34       0.1562
     27  C        -13.5640  -22.2220   34.2180 C.2    34  ALA34       0.2260
     28  O        -14.5770  -21.5600   34.4370 O.2    34  ALA34      -0.2867
     29  CB       -11.7110  -21.2880   35.6340 C.3    34  ALA34       0.0290
     30  N        -15.6660  -25.2490   36.0010 N.3    36  LYS36      -0.1245
     31  CA       -15.7310  -26.2380   37.0580 C.3    36  LYS36       0.1561
     32  C        -16.7110  -27.2760   36.5810 C.2    36  LYS36       0.2260
     33  O        -17.8550  -26.9270   36.2610 O.2    36  LYS36      -0.2867
     34  CB       -16.1990  -25.6270   38.3960 C.3    36  LYS36       0.0271
     35  CG       -16.2540  -26.6720   39.5190 C.3    36  LYS36       0.0035
     36  CD       -16.7690  -26.1550   40.8660 C.3    36  LYS36       0.0206
     37  CE       -15.6540  -25.7600   41.7870 C.3    36  LYS36       0.1093
     38  NZ       -15.9670  -25.9340   43.2550 N.3    36  LYS36      -0.1314
     39  N        -23.8340  -23.7860   45.7360 N.3    46  GLU46      -0.1245
     40  CA       -22.6090  -23.1460   45.2510 C.3    46  GLU46       0.1567
     41  C        -22.9050  -22.2360   44.0780 C.2    46  GLU46       0.2260
     42  O        -22.3470  -21.1650   43.9890 O.2    46  GLU46      -0.2867
     43  CB       -21.5290  -24.1670   44.8690 C.3    46  GLU46       0.0388
     44  CG       -20.2660  -23.5370   44.2770 C.3    46  GLU46       0.1160
     45  CD       -19.1490  -24.5340   44.0390 C.2    46  GLU46       0.3649
     46  OE1      -19.3020  -25.6920   44.4570 O.co2  46  GLU46      -0.2457
     47  OE2      -18.1280  -24.1730   43.4090 O.co2  46  GLU46      -0.2457
     48  N        -13.6020  -14.2950   42.9080 N.3    59  VAL59      -0.1245
     49  CA       -13.6530  -14.8910   41.5790 C.3    59  VAL59       0.1561
     50  C        -15.0540  -14.6940   40.9620 C.2    59  VAL59       0.2260
     51  O        -16.0600  -15.0760   41.5500 O.2    59  VAL59      -0.2867
     52  CB       -13.2640  -16.3970   41.6290 C.3    59  VAL59       0.0252
     53  CG1      -13.6620  -17.1240   40.3260 C.3    59  VAL59       0.0019
     54  CG2      -11.8150  -16.5310   41.8810 C.3    59  VAL59       0.0019
     55  N        -16.3810  -19.5720   35.2070 N.3    75  LEU75      -0.1231
     56  CA       -15.8370  -18.6940   36.2530 C.3    75  LEU75       0.1693
     57  C        -14.5970  -17.9880   35.7730 C.2    75  LEU75       0.2592
     58  O        -13.9420  -18.4610   34.8470 O.2    75  LEU75      -0.2718
     59  CB       -15.4490  -19.5480   37.4660 C.3    75  LEU75       0.0284
     60  CG       -16.5830  -20.2970   38.1690 C.3    75  LEU75       0.0019
     61  CD1      -16.1480  -21.7070   38.5170 C.3    75  LEU75       0.0001
     62  CD2      -17.0670  -19.5380   39.4050 C.3    75  LEU75       0.0001
     63  N        -14.2340  -16.9060   36.4600 N.am   76  GLU76      -0.1966
     64  CA       -13.0420  -16.1450   36.1390 C.3    76  GLU76       0.1733
     65  C        -11.7840  -16.9980   36.2190 C.2    76  GLU76       0.2616
     66  O        -11.5590  -17.7120   37.2100 O.2    76  GLU76      -0.2715
     67  CB       -12.9350  -14.9330   37.0750 C.3    76  GLU76       0.0429
     68  CG       -11.6960  -14.1010   36.9210 C.3    76  GLU76       0.1163
     69  CD       -11.6600  -12.9560   37.8980 C.2    76  GLU76       0.3649
     70  OE1      -12.6140  -12.8030   38.6900 O.co2  76  GLU76      -0.2457
     71  OE2      -10.6710  -12.2080   37.8620 O.co2  76  GLU76      -0.2457
     72  N        -10.9780  -16.9420   35.1600 N.am   77  TYR77      -0.1960
     73  CA        -9.6790  -17.5700   35.1420 C.3    77  TYR77       0.1771
     74  C         -8.6440  -16.6490   35.7670 C.2    77  TYR77       0.2620
     75  O         -8.5760  -15.4430   35.4880 O.2    77  TYR77      -0.2715
     76  CB        -9.2660  -17.9630   33.7200 C.3    77  TYR77       0.0574
     77  CG        -7.8780  -18.5070   33.6050 C.ar   77  TYR77      -0.0198
     78  CD1       -7.5010  -19.6560   34.2780 C.ar   77  TYR77      -0.0009
     79  CD2       -6.9260  -17.8710   32.8160 C.ar   77  TYR77      -0.0009
     80  CE1       -6.2170  -20.1660   34.1570 C.ar   77  TYR77       0.0417
     81  CE2       -5.6400  -18.3730   32.6910 C.ar   77  TYR77       0.0417
     82  CZ        -5.2970  -19.5160   33.3540 C.ar   77  TYR77       0.1957
     83  OH        -4.0290  -20.0180   33.2320 O.3    77  TYR77      -0.2866
     84  N         -7.8320  -17.2370   36.6340 N.am   78  CYS78      -0.1954
     85  CA        -6.8410  -16.4880   37.3810 C.3    78  CYS78       0.1843
     86  C         -5.4690  -17.0300   37.0000 C.2    78  CYS78       0.2626
     87  O         -5.0240  -18.0590   37.4930 O.2    78  CYS78      -0.2714
     88  CB        -7.1390  -16.5900   38.8920 C.3    78  CYS78       0.0997
     89  SG        -8.6900  -15.7520   39.4180 S.3    78  CYS78      -0.0797
     90  N         -4.7950  -16.3200   36.0990 N.am   79  SER79      -0.1950
     91  CA        -3.6370  -16.8820   35.4240 C.3    79  SER79       0.1924
     92  C         -2.4120  -16.9390   36.3060 C.2    79  SER79       0.2314
     93  O         -1.4690  -17.6660   36.0000 O.2    79  SER79      -0.2863
     94  CB        -3.3270  -16.1070   34.1470 C.3    79  SER79       0.2116
     95  OG        -2.8940  -14.8080   34.4540 O.3    79  SER79      -0.2180
     96  N         -2.4760  -18.3220   39.2330 N.3    81  GLY81      -0.1210
     97  CA        -2.5610  -19.5540   40.0190 C.3    81  GLY81       0.1956
     98  C         -2.9520  -19.3240   41.4740 C.2    81  GLY81       0.2611
     99  O         -3.6310  -18.3550   41.7790 O.2    81  GLY81      -0.2717
    100  N         -2.5140  -20.2280   42.3540 N.am   82  GLU82      -0.1979
    101  CA        -2.8730  -20.1870   43.7740 C.3    82  GLU82       0.1602
    102  C         -1.8240  -19.4810   44.5940 C.2    82  GLU82       0.2287
    103  O         -0.6370  -19.6000   44.3290 O.2    82  GLU82      -0.2864
    104  CB        -3.0790  -21.5920   44.3350 C.3    82  GLU82       0.0415
    105  CG        -4.1870  -22.3710   43.6450 C.3    82  GLU82       0.1163
    106  CD        -4.1660  -23.8460   43.9550 C.2    82  GLU82       0.3649
    107  OE1       -3.2690  -24.2970   44.7000 O.co2  82  GLU82      -0.2457
    108  OE2       -5.0690  -24.5550   43.4390 O.co2  82  GLU82      -0.2457
    109  N          1.1890  -21.3530   45.8050 N.3    85  ASP85      -0.1239
    110  CA         2.4410  -21.4860   45.0640 C.3    85  ASP85       0.1674
    111  C          3.4160  -20.3030   45.1380 C.2    85  ASP85       0.2266
    112  O          4.5470  -20.4200   44.6630 O.2    85  ASP85      -0.2867
    113  CB         2.1360  -21.9350   43.6210 C.3    85  ASP85       0.1410
    114  CG         1.5850  -23.3750   43.5870 C.2    85  ASP85       0.3668
    115  OD1        2.1830  -24.2200   44.2760 O.co2  85  ASP85      -0.2456
    116  OD2        0.5530  -23.6510   42.9400 O.co2  85  ASP85      -0.2456
    117  N         -6.6940  -17.0540   44.8050 N.3   128  LEU128     -0.1245
    118  CA        -6.1050  -17.0640   43.4800 C.3   128  LEU128      0.1561
    119  C         -5.5960  -15.6770   43.1380 C.2   128  LEU128      0.2260
    120  O         -5.9300  -14.6950   43.7910 O.2   128  LEU128     -0.2867
    121  CB        -7.1050  -17.5720   42.4210 C.3   128  LEU128      0.0270
    122  CG        -7.9160  -18.8450   42.7590 C.3   128  LEU128      0.0019
    123  CD1       -8.8950  -19.1430   41.6050 C.3   128  LEU128      0.0001
    124  CD2       -7.0320  -20.0410   43.0860 C.3   128  LEU128      0.0001
    125  N        -11.8170  -17.8030   45.8840 N.3   138  SER138     -0.1202
    126  CA       -12.5110  -18.7830   45.0740 C.3   138  SER138      0.2020
    127  C        -13.0690  -19.9540   45.8800 C.2   138  SER138      0.2618
    128  O        -12.7860  -20.1520   47.0720 O.2   138  SER138     -0.2717
    129  CB       -11.5650  -19.3230   44.0070 C.3   138  SER138      0.2103
    130  OG       -10.6440  -20.2120   44.5770 O.3   138  SER138     -0.2182
    131  N        -13.8830  -20.7290   45.1900 N.am  139  ASP139     -0.1973
    132  CA       -14.4310  -21.9840   45.6910 C.3   139  ASP139      0.1709
    133  C        -15.4130  -21.8290   46.8420 C.2   139  ASP139      0.2293
    134  O        -15.0590  -21.9340   48.0400 O.2   139  ASP139     -0.2864
    135  CB       -13.3320  -23.0380   45.9840 C.3   139  ASP139      0.1436
    136  CG       -13.8960  -24.4640   46.1350 C.2   139  ASP139      0.3671
    137  OD1      -15.1450  -24.6210   46.1540 O.co2 139  ASP139     -0.2456
    138  OD2      -13.0810  -25.4140   46.2010 O.co2 139  ASP139     -0.2456
@<TRIPOS>BOND
     1     1     2    1
     2     2     5    1
     3     2     3    1
     4     5     6    1
     5     8     7    2
     6     6     7    1
     7     3     4    2
     8     7     9   am
     9    81    79   ar
    10    81    82   ar
    11    79    77   ar
    12    83    82    1
    13    82    80   ar
    14    25    26    1
    15    77    76    1
    16    77    78   ar
    17    76    73    1
    18    94    95    1
    19    94    91    1
    20    80    78   ar
    21    26    27    1
    22    26    29    1
    23    27    28    2
    24    58    57    2
    25    17    15    1
    26    73    72    1
    27    73    74    1
    28    72    65   am
    29    55    56    1
    30    16    15    1
    31    91    90    1
    32    91    92    1
    33    75    74    2
    34    15    14    1
    35    74    84   am
    36    57    56    1
    37    57    63   am
    38    20    21    2
    39    20    19    1
    40    10    11    1
    41    93    92    2
    42    30    31    1
    43    90    86   am
    44    64    65    1
    45    64    63    1
    46    64    67    1
    47    65    66    2
    48    56    59    1
    49    33    32    2
    50    32    31    1
    51    84    85    1
    52    14    11    1
    53    68    67    1
    54    68    69    1
    55    11    12    1
    56    86    85    1
    57    86    87    2
    58    31    34    1
    59    19    18    1
    60    19    22    1
    61    85    88    1
    62    59    60    1
    63    23    22    1
    64    71    69   ar
    65    69    70   ar
    66    22    24    1
    67    60    61    1
    68    60    62    1
    69    34    35    1
    70    12    13    2
    71    88    89    1
    72    96    97    1
    73    35    36    1
    74    97    98    1
    75    53    52    1
    76    36    37    1
    77    50    51    2
    78    50    49    1
    79    98    99    2
    80    98   100   am
    81    49    52    1
    82    49    48    1
    83   123   122    1
    84    52    54    1
    85    37    38    1
    86   100   101    1
    87   121   122    1
    88   121   118    1
    89   122   124    1
    90   116   114   ar
    91   119   118    1
    92   119   120    2
    93    47    45   ar
    94   108   106   ar
    95   118   117    1
    96   114   113    1
    97   114   115   ar
    98   113   110    1
    99   105   106    1
   100   105   104    1
   101   101   104    1
   102   101   102    1
   103   106   107   ar
   104    42    41    2
   105   129   130    1
   106   129   126    1
   107    45    44    1
   108    45    46   ar
   109    41    40    1
   110    44    43    1
   111   103   102    2
   112   112   111    2
   113    43    40    1
   114   110   111    1
   115   110   109    1
   116   126   127    1
   117   126   125    1
   118   131   132    1
   119   131   127   am
   120    40    39    1
   121   132   135    1
   122   132   133    1
   123   127   128    2
   124   135   136    1
   125   136   137   ar
   126   136   138   ar
   127   133   134    2
