@<TRIPOS>MOLECULE
tmp/4qyiB00.pdb
 82 80 0 0 0
SMALL
GASTEIGER

@<TRIPOS>ATOM
      1  N        -25.9990    4.5350   27.4060 N.3    96  GLU96      -0.1231
      2  CA       -25.8900    5.8510   27.9640 C.3    96  GLU96       0.1699
      3  C        -24.6530    6.0140   28.7860 C.2    96  GLU96       0.2592
      4  O        -24.0320    5.0440   29.2330 O.2    96  GLU96      -0.2718
      5  CB       -27.0950    6.1460   28.9100 C.3    96  GLU96       0.0402
      6  CG       -28.2740    6.7820   28.2420 C.3    96  GLU96       0.1161
      7  CD       -28.0740    8.2730   27.9380 C.2    96  GLU96       0.3649
      8  OE1      -29.1130    8.9200   27.7050 O.co2  96  GLU96      -0.2457
      9  OE2      -26.9520    8.8470   28.0520 O.co2  96  GLU96      -0.2457
     10  N        -24.2910    7.2760   28.9840 N.am   97  ASP97      -0.1960
     11  CA       -23.2180    7.6070   29.8620 C.3    97  ASP97       0.1840
     12  C        -23.7550    7.6530   31.3130 C.2    97  ASP97       0.2622
     13  O        -23.0900    7.2110   32.2450 O.2    97  ASP97      -0.2715
     14  CB       -22.6200    8.9820   29.5250 C.3    97  ASP97       0.1450
     15  CG       -23.6440   10.0890   29.3980 C.2    97  ASP97       0.3671
     16  OD1      -24.8340    9.8730   29.0350 O.co2  97  ASP97      -0.2456
     17  OD2      -23.2470   11.2510   29.5980 O.co2  97  ASP97      -0.2456
     18  N        -24.9230    8.2450   31.4700 N.am   98  ILE98      -0.1963
     19  CA       -25.5090    8.3930   32.8420 C.3    98  ILE98       0.1727
     20  C        -26.9850    8.1650   32.8080 C.2    98  ILE98       0.2616
     21  O        -27.6800    8.6000   31.8930 O.2    98  ILE98      -0.2715
     22  CB       -25.3010    9.8230   33.3740 C.3    98  ILE98       0.0290
     23  CG1      -23.8100   10.1350   33.4670 C.3    98  ILE98       0.0022
     24  CG2      -25.9560   10.0250   34.7310 C.3    98  ILE98       0.0023
     25  CD1      -23.4750   11.6190   33.6730 C.3    98  ILE98       0.0001
     26  N        -27.5000    7.5640   33.8640 N.am   99  ILE99      -0.1963
     27  CA       -28.9230    7.4700   34.0060 C.3    99  ILE99       0.1727
     28  C        -29.1790    7.9900   35.4490 C.2    99  ILE99       0.2616
     29  O        -28.5460    7.4970   36.3620 O.2    99  ILE99      -0.2715
     30  CB       -29.4620    6.0530   33.9240 C.3    99  ILE99       0.0290
     31  CG1      -29.1890    5.4440   32.5970 C.3    99  ILE99       0.0022
     32  CG2      -30.9580    6.0830   34.2250 C.3    99  ILE99       0.0023
     33  CD1      -29.7600    4.0630   32.5150 C.3    99  ILE99       0.0001
     34  N        -29.9730    9.0530   35.5960 N.am  100  ASP100     -0.1957
     35  CA       -30.2610    9.6040   36.9040 C.3   100  ASP100      0.1840
     36  C        -31.7660    9.5790   37.2050 C.2   100  ASP100      0.2623
     37  O        -32.2200    8.6690   37.8900 O.2   100  ASP100     -0.2715
     38  CB       -29.5660   10.9600   37.1680 C.3   100  ASP100      0.1450
     39  CG       -29.7920   11.9930   36.1050 C.2   100  ASP100      0.3671
     40  OD1      -30.8330   12.0120   35.4100 O.co2 100  ASP100     -0.2456
     41  OD2      -28.8920   12.8460   35.9730 O.co2 100  ASP100     -0.2456
     42  N        -32.5370   10.5100   36.6510 N.am  101  SER101     -0.1936
     43  CA       -33.9610   10.5220   36.8930 C.3   101  SER101      0.2055
     44  C        -34.6230    9.4120   36.0920 C.2   101  SER101      0.2644
     45  O        -35.6590    8.8730   36.5170 O.2   101  SER101     -0.2714
     46  CB       -34.5700   11.8590   36.4930 C.3   101  SER101      0.2130
     47  OG       -34.6190   11.9570   35.0970 O.3   101  SER101     -0.2179
     48  N        -34.0070    9.0740   34.9560 N.am  102  GLY102     -0.1939
     49  CA       -34.5210    8.0470   34.0810 C.3   102  GLY102      0.2014
     50  C        -35.7010    8.5020   33.2340 C.2   102  GLY102      0.2639
     51  O        -36.1800    7.7500   32.3820 O.2   102  GLY102     -0.2714
     52  N        -36.1460    9.7420   33.4450 N.am  103  LEU103     -0.1963
     53  CA       -37.3310   10.3020   32.7560 C.3   103  LEU103      0.1728
     54  C        -37.1520   10.3140   31.2610 C.2   103  LEU103      0.2617
     55  O        -38.0150    9.8550   30.5020 O.2   103  LEU103     -0.2715
     56  CB       -37.6380   11.7300   33.2350 C.3   103  LEU103      0.0311
     57  CG       -38.0950   11.7990   34.7040 C.3   103  LEU103      0.0022
     58  CD1      -38.1010   13.2200   35.2350 C.3   103  LEU103      0.0001
     59  CD2      -39.4810   11.1780   34.8450 C.3   103  LEU103      0.0001
     60  N        -36.0230   10.8220   30.8280 N.am  104  THR104     -0.1937
     61  CA       -35.7440   10.8650   29.3680 C.3   104  THR104      0.2028
     62  C        -35.5540    9.5160   28.7300 C.2   104  THR104      0.2642
     63  O        -35.9580    9.2740   27.5620 O.2   104  THR104     -0.2714
     64  CB       -34.5380   11.7900   29.0900 C.3   104  THR104      0.1808
     65  OG1      -34.9270   13.1520   29.4210 O.3   104  THR104     -0.2208
     66  CG2      -34.1420   11.7410   27.6460 C.3   104  THR104      0.0379
     67  N        -34.8760    8.6090   29.4080 N.am  105  LEU105     -0.1977
     68  CA       -34.6600    7.2890   28.8510 C.3   105  LEU105      0.1596
     69  C        -35.9660    6.4790   28.7900 C.2   105  LEU105      0.2287
     70  O        -36.1590    5.6110   27.9200 O.2   105  LEU105     -0.2864
     71  CB       -33.5880    6.5920   29.6640 C.3   105  LEU105      0.0297
     72  CG       -32.8500    5.4350   29.0440 C.3   105  LEU105      0.0022
     73  CD1      -32.2030    5.8370   27.7170 C.3   105  LEU105      0.0001
     74  CD2      -31.7630    4.9900   30.0180 C.3   105  LEU105      0.0001
     75  N        -19.2420   15.9370   29.4650 N.3   156  ASP156     -0.1239
     76  CA       -18.7350   17.2980   29.5170 C.3   156  ASP156      0.1674
     77  C        -19.2600   18.1750   30.6300 C.2   156  ASP156      0.2266
     78  O        -20.1770   17.8030   31.3550 O.2   156  ASP156     -0.2867
     79  CB       -19.1600   18.0530   28.2460 C.3   156  ASP156      0.1410
     80  CG       -20.6700   18.3290   28.1990 C.2   156  ASP156      0.3668
     81  OD1      -21.4620   17.3900   28.3980 O.co2 156  ASP156     -0.2456
     82  OD2      -21.0830   19.4860   27.9580 O.co2 156  ASP156     -0.2456
@<TRIPOS>BOND
     1     1     2    1
     2    63    62    2
     3    66    64    1
     4     8     7   ar
     5    73    72    1
     6    70    69    2
     7     7     9   ar
     8     7     6    1
     9    82    80   ar
    10     2     3    1
    11     2     5    1
    12    80    79    1
    13    80    81   ar
    14     6     5    1
    15    79    76    1
    16    62    61    1
    17    62    67   am
    18     3    10   am
    19     3     4    2
    20    69    68    1
    21    68    67    1
    22    68    71    1
    23    10    11    1
    24    16    15   ar
    25    72    71    1
    26    72    74    1
    27    64    61    1
    28    64    65    1
    29    61    60    1
    30    15    14    1
    31    15    17   ar
    32    75    76    1
    33    76    77    1
    34    14    11    1
    35    11    12    1
    36    55    54    2
    37    77    78    2
    38    60    54   am
    39    54    53    1
    40    12    18   am
    41    12    13    2
    42    18    19    1
    43    21    20    2
    44    51    50    2
    45    33    31    1
    46    31    30    1
    47    53    56    1
    48    53    52    1
    49    20    19    1
    50    20    26   am
    51    19    22    1
    52    50    52   am
    53    50    49    1
    54    56    57    1
    55    22    23    1
    56    22    24    1
    57    23    25    1
    58    26    27    1
    59    30    27    1
    60    30    32    1
    61    27    28    1
    62    49    48    1
    63    57    59    1
    64    57    58    1
    65    48    44   am
    66    47    46    1
    67    40    39   ar
    68    28    34   am
    69    28    29    2
    70    34    35    1
    71    41    39   ar
    72    44    45    2
    73    44    43    1
    74    39    38    1
    75    46    43    1
    76    42    43    1
    77    42    36   am
    78    35    38    1
    79    35    36    1
    80    36    37    2
