@<TRIPOS>MOLECULE
tmp/4qymA00.pdb
 109 102 0 0 0
SMALL
GASTEIGER

@<TRIPOS>ATOM
      1  N         26.6000   23.6810   56.9470 N.3    18  LEU18      -0.1245
      2  CA        25.5460   22.7340   56.6220 C.3    18  LEU18       0.1561
      3  C         24.3430   23.4630   56.0190 C.2    18  LEU18       0.2260
      4  O         23.7120   22.9700   55.0790 O.2    18  LEU18      -0.2867
      5  CB        25.1510   21.9390   57.8710 C.3    18  LEU18       0.0270
      6  CG        26.2460   21.0050   58.4180 C.3    18  LEU18       0.0019
      7  CD1       25.9990   20.5880   59.8760 C.3    18  LEU18       0.0001
      8  CD2       26.4010   19.7740   57.5200 C.3    18  LEU18       0.0001
      9  N         21.3580   24.0070   51.9610 N.3    22  GLN22      -0.1245
     10  CA        19.9120   24.0340   52.1100 C.3    22  GLN22       0.1566
     11  C         19.3350   25.3130   51.5210 C.2    22  GLN22       0.2260
     12  O         18.3260   25.2780   50.8340 O.2    22  GLN22      -0.2867
     13  CB        19.5220   23.9220   53.5780 C.3    22  GLN22       0.0367
     14  CG        20.0810   22.7060   54.2930 C.3    22  GLN22       0.0905
     15  CD        19.6520   22.6990   55.7340 C.2    22  GLN22       0.2608
     16  OE1       19.9820   23.6090   56.4870 O.2    22  GLN22      -0.2717
     17  NE2       18.8770   21.6960   56.1200 N.am   22  GLN22      -0.0878
     18  N         18.0080   24.1660   60.5700 N.3    78  THR78      -0.1203
     19  CA        19.0700   23.3010   60.0780 C.3    78  THR78       0.1994
     20  C         19.3430   22.1020   60.9890 C.2    78  THR78       0.2618
     21  O         19.3680   20.9580   60.5290 O.2    78  THR78      -0.2717
     22  CB        20.3540   24.1090   59.8660 C.3    78  THR78       0.1784
     23  OG1       20.1180   25.0780   58.8390 O.3    78  THR78      -0.2211
     24  CG2       21.5100   23.2110   59.4420 C.3    78  THR78       0.0376
     25  N         19.5220   22.3620   62.2780 N.am   79  LEU79      -0.1965
     26  CA        19.8880   21.3060   63.2280 C.3    79  LEU79       0.1728
     27  C         18.7410   20.7910   64.0810 C.2    79  LEU79       0.2616
     28  O         17.8780   21.5590   64.5050 O.2    79  LEU79      -0.2715
     29  CB        20.9670   21.8090   64.1740 C.3    79  LEU79       0.0311
     30  CG        22.2820   22.2300   63.5230 C.3    79  LEU79       0.0022
     31  CD1       23.1970   22.7090   64.6340 C.3    79  LEU79       0.0001
     32  CD2       22.9030   21.0740   62.7500 C.3    79  LEU79       0.0001
     33  N         18.7570   19.4920   64.3680 N.am   80  SER80      -0.1950
     34  CA        17.8150   18.9290   65.3300 C.3    80  SER80       0.1924
     35  C         17.9550   19.6180   66.6740 C.2    80  SER80       0.2314
     36  O         16.9670   19.8520   67.3580 O.2    80  SER80      -0.2863
     37  CB        18.0410   17.4350   65.5120 C.3    80  SER80       0.2116
     38  OG        17.7200   16.7270   64.3260 O.3    80  SER80      -0.2180
     39  N         16.1410   18.6310   57.1500 N.3   101  SER101     -0.1202
     40  CA        17.3410   17.8580   57.4350 C.3   101  SER101      0.2020
     41  C         17.4780   17.4030   58.8840 C.2   101  SER101      0.2619
     42  O         18.5570   16.9620   59.2830 O.2   101  SER101     -0.2717
     43  CB        18.5550   18.7210   57.1210 C.3   101  SER101      0.2103
     44  OG        18.5290   19.9030   57.9140 O.3   101  SER101     -0.2182
     45  N         16.4270   17.5590   59.6940 N.am  102  ASN102     -0.1960
     46  CA        16.5070   17.2040   61.1240 C.3   102  ASN102      0.1819
     47  C         16.2220   15.7220   61.3050 C.2   102  ASN102      0.2621
     48  O         15.0750   15.2950   61.1620 O.2   102  ASN102     -0.2715
     49  CB        15.4670   17.9520   61.9550 C.3   102  ASN102      0.1195
     50  CG        15.4190   19.4250   61.6720 C.2   102  ASN102      0.2630
     51  OD1       14.3380   19.9960   61.5800 O.2   102  ASN102     -0.2716
     52  ND2       16.5790   20.0630   61.5720 N.am  102  ASN102     -0.0877
     53  N         17.2380   14.9400   61.6560 N.am  103  THR103     -0.1951
     54  CA        17.1100   13.4810   61.6100 C.3   103  THR103      0.1897
     55  C         17.1960   12.7990   62.9740 C.2   103  THR103      0.2313
     56  O         17.1740   11.5730   63.0540 O.2   103  THR103     -0.2863
     57  CB        18.1450   12.8590   60.6480 C.3   103  THR103      0.1794
     58  OG1       19.4670   13.1930   61.0820 O.3   103  THR103     -0.2208
     59  CG2       17.9360   13.3900   59.2280 C.3   103  THR103      0.0378
     60  N         25.4650   17.8070   71.0000 N.3   150  ASP150     -0.1239
     61  CA        24.5380   17.9450   69.8810 C.3   150  ASP150      0.1674
     62  C         23.4690   16.8510   69.8520 C.2   150  ASP150      0.2266
     63  O         23.7900   15.6650   69.8310 O.2   150  ASP150     -0.2867
     64  CB        25.3150   17.9530   68.5550 C.3   150  ASP150      0.1410
     65  CG        24.4050   18.0460   67.3550 C.2   150  ASP150      0.3668
     66  OD1       23.8830   19.1510   67.0880 O.co2 150  ASP150     -0.2456
     67  OD2       24.2050   17.0120   66.6800 O.co2 150  ASP150     -0.2456
     68  N         21.2940   15.6810   67.6080 N.3   152  PHE152     -0.1241
     69  CA        21.3340   14.7270   66.5120 C.3   152  PHE152      0.1605
     70  C         22.5100   13.7520   66.6430 C.2   152  PHE152      0.2264
     71  O         22.3530   12.5620   66.3930 O.2   152  PHE152     -0.2867
     72  CB        21.3790   15.4570   65.1660 C.3   152  PHE152      0.0534
     73  CG        22.2450   14.7840   64.1360 C.ar  152  PHE152     -0.0203
     74  CD1       21.7560   13.7230   63.3830 C.ar  152  PHE152     -0.0042
     75  CD2       23.5470   15.2180   63.9210 C.ar  152  PHE152     -0.0042
     76  CE1       22.5530   13.1000   62.4370 C.ar  152  PHE152     -0.0003
     77  CE2       24.3460   14.5990   62.9760 C.ar  152  PHE152     -0.0003
     78  CZ        23.8490   13.5390   62.2310 C.ar  152  PHE152     -0.0000
     79  N         29.2460   17.3770   63.5950 N.3   204  LEU204     -0.1245
     80  CA        28.9070   18.2620   62.4870 C.3   204  LEU204      0.1561
     81  C         30.1200   18.4410   61.5650 C.2   204  LEU204      0.2260
     82  O         31.0610   17.6510   61.6240 O.2   204  LEU204     -0.2867
     83  CB        28.3410   19.5840   63.0040 C.3   204  LEU204      0.0270
     84  CG        27.1040   19.3910   63.8930 C.3   204  LEU204      0.0019
     85  CD1       26.5650   20.7270   64.3850 C.3   204  LEU204      0.0001
     86  CD2       26.0140   18.6100   63.1570 C.3   204  LEU204      0.0001
     87  N         25.6240   12.0770   59.2750 N.3   228  ASP228     -0.1225
     88  CA        24.9670   13.0590   58.4190 C.3   228  ASP228      0.1805
     89  C         25.5510   14.4560   58.5820 C.2   228  ASP228      0.2598
     90  O         25.4660   15.2770   57.6680 O.2   228  ASP228     -0.2718
     91  CB        23.4620   13.0740   58.6880 C.3   228  ASP228      0.1424
     92  CG        22.6700   13.6680   57.5460 C.2   228  ASP228      0.3668
     93  OD1       22.8800   13.2570   56.3870 O.co2 228  ASP228     -0.2456
     94  OD2       21.8290   14.5490   57.8020 O.co2 228  ASP228     -0.2456
     95  N         26.1580   14.7220   59.7350 N.am  229  GLY229     -0.1957
     96  CA        26.7560   16.0210   59.9830 C.3   229  GLY229      0.1869
     97  C         28.0300   16.2830   59.2070 C.2   229  GLY229      0.2309
     98  O         28.4850   17.4240   59.1160 O.2   229  GLY229     -0.2863
     99  N         21.5140   17.7190   51.1360 N.3   279  PHE279     -0.1241
    100  CA        20.8700   18.8210   51.8630 C.3   279  PHE279      0.1605
    101  C         20.1350   19.7940   50.9410 C.2   279  PHE279      0.2264
    102  O         19.1110   20.3730   51.3240 O.2   279  PHE279     -0.2867
    103  CB        21.8790   19.5680   52.7380 C.3   279  PHE279      0.0534
    104  CG        22.4230   18.7500   53.8620 C.ar  279  PHE279     -0.0203
    105  CD1       21.5930   17.9120   54.5920 C.ar  279  PHE279     -0.0042
    106  CD2       23.7650   18.8200   54.2010 C.ar  279  PHE279     -0.0042
    107  CE1       22.1010   17.1520   55.6410 C.ar  279  PHE279     -0.0003
    108  CE2       24.2740   18.0670   55.2440 C.ar  279  PHE279     -0.0003
    109  CZ        23.4420   17.2330   55.9640 C.ar  279  PHE279     -0.0000
@<TRIPOS>BOND
     1    12    11    2
     2   101   102    2
     3   101   100    1
     4    99   100    1
     5    11    10    1
     6   100   103    1
     7     9    10    1
     8    10    13    1
     9   103   104    1
    10    13    14    1
    11   104   106   ar
    12   104   105   ar
    13   106   108   ar
    14    14    15    1
    15   105   107   ar
    16     4     3    2
    17   108   109   ar
    18   107   109   ar
    19    15    17   am
    20    15    16    2
    21     3     2    1
    22    93    92   ar
    23     2     1    1
    24     2     5    1
    25    43    40    1
    26    43    44    1
    27    39    40    1
    28    40    41    1
    29     8     6    1
    30    92    94   ar
    31    92    91    1
    32    90    89    2
    33     5     6    1
    34     6     7    1
    35    88    89    1
    36    88    91    1
    37    88    87    1
    38    89    95   am
    39    23    22    1
    40    41    42    2
    41    41    45   am
    42    98    97    2
    43    97    96    1
    44    59    57    1
    45    24    22    1
    46    45    46    1
    47    95    96    1
    48    22    19    1
    49    19    18    1
    50    19    20    1
    51    21    20    2
    52    57    58    1
    53    57    54    1
    54    20    25   am
    55    46    47    1
    56    46    49    1
    57    48    47    2
    58    47    53   am
    59    81    82    2
    60    81    80    1
    61    52    50   am
    62    51    50    2
    63    54    53    1
    64    54    55    1
    65    50    49    1
    66    78    76   ar
    67    78    77   ar
    68    25    26    1
    69    76    74   ar
    70    80    83    1
    71    80    79    1
    72    32    30    1
    73    55    56    2
    74    77    75   ar
    75    83    84    1
    76    86    84    1
    77    26    27    1
    78    26    29    1
    79    74    73   ar
    80    30    29    1
    81    30    31    1
    82    84    85    1
    83    75    73   ar
    84    27    33   am
    85    27    28    2
    86    73    72    1
    87    38    37    1
    88    33    34    1
    89    72    69    1
    90    34    37    1
    91    34    35    1
    92    71    70    2
    93    69    70    1
    94    69    68    1
    95    35    36    2
    96    67    65   ar
    97    66    65   ar
    98    65    64    1
    99    64    61    1
   100    63    62    2
   101    62    61    1
   102    61    60    1
