@<TRIPOS>MOLECULE
tmp/4qynB00.pdb
 227 213 0 0 0
SMALL
GASTEIGER

@<TRIPOS>ATOM
      1  N         14.2850   -8.2080   22.4740 N.3    16  PHE16      -0.1241
      2  CA        15.1340   -8.4170   23.6390 C.3    16  PHE16       0.1605
      3  C         15.2980   -9.9000   23.9530 C.2    16  PHE16       0.2264
      4  O         16.3880  -10.3590   24.3320 O.2    16  PHE16      -0.2867
      5  CB        14.5380   -7.6050   24.7780 C.3    16  PHE16       0.0534
      6  CG        15.4730   -7.3760   25.9730 C.ar   16  PHE16      -0.0203
      7  CD1       16.8080   -7.0830   25.7730 C.ar   16  PHE16      -0.0042
      8  CD2       14.9380   -7.4130   27.2450 C.ar   16  PHE16      -0.0042
      9  CE1       17.6660   -6.7940   26.9340 C.ar   16  PHE16      -0.0003
     10  CE2       15.7970   -7.1330   28.3670 C.ar   16  PHE16      -0.0003
     11  CZ        17.1200   -6.8360   28.2020 C.ar   16  PHE16      -0.0000
     12  N         18.0290  -11.4040   21.5550 N.3    19  TYR19      -0.1227
     13  CA        19.3720  -10.9860   22.0560 C.3    19  TYR19       0.1736
     14  C         19.7970  -11.7340   23.3260 C.2    19  TYR19       0.2595
     15  O         20.8860  -12.2680   23.4160 O.2    19  TYR19      -0.2718
     16  CB        19.3510   -9.4480   22.2890 C.3    19  TYR19       0.0548
     17  CG        20.5660   -8.8870   22.8920 C.ar   19  TYR19      -0.0200
     18  CD1       21.7210   -8.7510   22.1670 C.ar   19  TYR19      -0.0009
     19  CD2       20.5310   -8.5120   24.2500 C.ar   19  TYR19      -0.0009
     20  CE1       22.8050   -8.2230   22.7540 C.ar   19  TYR19       0.0417
     21  CE2       21.6110   -7.9730   24.8450 C.ar   19  TYR19       0.0417
     22  CZ        22.8080   -7.7820   24.0800 C.ar   19  TYR19       0.1957
     23  OH        23.8740   -7.1920   24.7360 O.3    19  TYR19      -0.2866
     24  N         18.9010  -11.7760   24.3080 N.am   20  MET20      -0.1979
     25  CA        19.2440  -12.4860   25.5770 C.3    20  MET20       0.1605
     26  C         19.5150  -14.0030   25.3270 C.2    20  MET20       0.2287
     27  O         20.4410  -14.5770   25.9290 O.2    20  MET20      -0.2864
     28  CB        18.1560  -12.3410   26.6210 C.3    20  MET20       0.0413
     29  CG        18.0860  -10.9140   27.1940 C.3    20  MET20       0.0598
     30  SD        16.9030  -10.8180   28.5740 S.3    20  MET20      -0.1393
     31  CE        15.3440  -11.0170   27.6820 C.3    20  MET20       0.0692
     32  N         22.8980  -14.6710   24.0520 N.3    23  LEU23      -0.1245
     33  CA        23.8810  -14.5660   25.1350 C.3    23  LEU23       0.1561
     34  C         23.7530  -15.7470   26.1180 C.2    23  LEU23       0.2260
     35  O         24.5490  -15.7960   27.0790 O.2    23  LEU23      -0.2867
     36  CB        23.7210  -13.2630   25.9430 C.3    23  LEU23       0.0270
     37  CG        24.0320  -11.9750   25.1690 C.3    23  LEU23       0.0019
     38  CD1       23.7380  -10.7610   26.1110 C.3    23  LEU23       0.0001
     39  CD2       25.4810  -11.9540   24.7390 C.3    23  LEU23       0.0001
     40  N         21.4510  -16.3300   28.2340 N.3    25  ILE25      -0.1245
     41  CA        20.7750  -16.0240   29.4980 C.3    25  ILE25       0.1561
     42  C         19.5610  -16.9610   29.6160 C.2    25  ILE25       0.2260
     43  O         18.8660  -17.2760   28.6460 O.2    25  ILE25      -0.2867
     44  CB        20.4320  -14.5640   29.4810 C.3    25  ILE25       0.0252
     45  CG1       21.7030  -13.6530   29.5340 C.3    25  ILE25       0.0019
     46  CG2       19.3750  -14.2200   30.5990 C.3    25  ILE25       0.0019
     47  CD1       21.3980  -12.2060   29.1640 C.3    25  ILE25       0.0001
     48  N         15.0800  -16.0920   33.5120 N.3    29  THR29      -0.1218
     49  CA        15.5500  -14.7030   33.5510 C.3    29  THR29       0.1862
     50  C         15.0200  -13.9200   32.3660 C.2    29  THR29       0.2287
     51  O         14.5370  -12.7810   32.4750 O.2    29  THR29      -0.2866
     52  CB        17.0220  -14.6470   33.5500 C.3    29  THR29       0.1770
     53  OG1       17.5410  -15.4120   34.6680 O.3    29  THR29      -0.2211
     54  CG2       17.5920  -13.1790   33.6270 C.3    29  THR29       0.0375
     55  N         12.6400  -10.6000   32.2890 N.3    33  ALA33      -0.1245
     56  CA        13.2180   -9.3330   31.7630 C.3    33  ALA33       0.1562
     57  C         12.4270   -8.8370   30.6120 C.2    33  ALA33       0.2260
     58  O         12.3350   -7.6010   30.4530 O.2    33  ALA33      -0.2867
     59  CB        14.7240   -9.6010   31.4110 C.3    33  ALA33       0.0290
     60  N          9.6010   -6.2310   31.3820 N.3    36  LEU36      -0.1245
     61  CA         9.9320   -5.0530   32.1950 C.3    36  LEU36       0.1561
     62  C         10.2540   -3.8250   31.2920 C.2    36  LEU36       0.2260
     63  O         10.8850   -3.9670   30.2190 O.2    36  LEU36      -0.2867
     64  CB        11.0940   -5.3790   33.0880 C.3    36  LEU36       0.0270
     65  CG        10.7120   -6.3730   34.2130 C.3    36  LEU36       0.0019
     66  CD1       11.8080   -6.6060   35.1910 C.3    36  LEU36       0.0001
     67  CD2        9.4380   -6.1250   34.9960 C.3    36  LEU36       0.0001
     68  N         12.4280   -0.1840   31.1940 N.3    38  GLN38      -0.1301
     69  CA        13.7970    0.2020   31.6640 C.3    38  GLN38       0.1252
     70  C         13.9400    1.6520   31.7060 C.3    38  GLN38       0.2009
     71  O         13.1690    2.4310   31.0260 O.3    38  GLN38      -0.2188
     72  CB        14.8540   -0.3500   30.7380 C.3    38  GLN38       0.0314
     73  CG        14.7790   -1.8500   30.5720 C.3    38  GLN38       0.0901
     74  CD        15.9050   -2.3800   29.6320 C.2    38  GLN38       0.2608
     75  OE1       16.8580   -1.6220   29.4030 O.2    38  GLN38      -0.2717
     76  NE2       15.8170   -3.5880   29.1370 N.am   38  GLN38      -0.0878
     77  N         17.3260    4.4840   31.5180 N.3    40  LYS40      -0.1245
     78  CA        18.7620    4.6450   31.3280 C.3    40  LYS40       0.1561
     79  C         19.1550    5.9880   31.7720 C.2    40  LYS40       0.2260
     80  O         18.6040    6.9820   31.2620 O.2    40  LYS40      -0.2867
     81  CB        19.0590    4.4250   29.9020 C.3    40  LYS40       0.0271
     82  CG        20.5370    4.3230   29.5700 C.3    40  LYS40       0.0035
     83  CD        20.7260    3.9280   28.0860 C.3    40  LYS40       0.0206
     84  CE        20.1440    2.5040   27.7670 C.3    40  LYS40       0.1093
     85  NZ        21.0080    1.2460   28.1350 N.3    40  LYS40      -0.1314
     86  N         27.0800    5.2280   32.9710 N.3    51  THR51      -0.1218
     87  CA        25.7070    4.8700   32.6020 C.3    51  THR51       0.1862
     88  C         25.1040    3.9160   33.5780 C.2    51  THR51       0.2287
     89  O         25.7990    3.0360   34.1320 O.2    51  THR51      -0.2866
     90  CB        25.6060    4.2650   31.1410 C.3    51  THR51       0.1770
     91  OG1       26.1070    2.9600   31.1320 O.3    51  THR51      -0.2211
     92  CG2       26.3670    5.1230   30.1300 C.3    51  THR51       0.0375
     93  N         21.6490    1.3720   33.6450 N.3    53  THR53      -0.1218
     94  CA        20.3860    0.8540   32.9780 C.3    53  THR53       0.1862
     95  C         19.6610    0.0800   34.1070 C.2    53  THR53       0.2287
     96  O         20.2400   -0.8800   34.6530 O.2    53  THR53      -0.2866
     97  CB        20.7540   -0.0190   31.8560 C.3    53  THR53       0.1770
     98  OG1       21.5380    0.7020   30.8600 O.3    53  THR53      -0.2211
     99  CG2       19.5250   -0.5630   31.1330 C.3    53  THR53       0.0375
    100  N         15.9960   -1.5800   35.8950 N.3    55  SER55      -0.1217
    101  CA        14.6130   -2.1210   35.8440 C.3    55  SER55       0.1889
    102  C         14.1840   -2.4560   37.3020 C.2    55  SER55       0.2288
    103  O         14.9840   -2.2790   38.2510 O.2    55  SER55      -0.2866
    104  CB        14.5650   -3.3270   34.9390 C.3    55  SER55       0.2089
    105  OG        15.3020   -4.3830   35.5500 O.3    55  SER55      -0.2183
    106  N         13.9160   -5.4630   38.2530 N.3    57  PHE57      -0.1227
    107  CA        14.5460   -6.7400   38.4560 C.3    57  PHE57       0.1736
    108  C         16.0350   -6.6940   38.6880 C.2    57  PHE57       0.2595
    109  O         16.5560   -7.2800   39.6490 O.2    57  PHE57      -0.2718
    110  CB        14.2380   -7.5960   37.2580 C.3    57  PHE57       0.0547
    111  CG        14.8970   -8.9220   37.2340 C.ar   57  PHE57      -0.0202
    112  CD1       14.8170   -9.8260   38.2790 C.ar   57  PHE57      -0.0042
    113  CD2       15.6650   -9.2920   36.1550 C.ar   57  PHE57      -0.0042
    114  CE1       15.4250  -11.1260   38.1610 C.ar   57  PHE57      -0.0003
    115  CE2       16.2170  -10.5030   36.0040 C.ar   57  PHE57      -0.0003
    116  CZ        16.1400  -11.4500   37.0140 C.ar   57  PHE57      -0.0000
    117  N         16.7010   -5.8740   37.9070 N.am   58  ARG58      -0.1966
    118  CA        18.1400   -5.8350   37.8940 C.3    58  ARG58       0.1729
    119  C         18.6370   -4.5700   37.2020 C.2    58  ARG58       0.2616
    120  O         17.9250   -3.9190   36.3370 O.2    58  ARG58      -0.2715
    121  CB        18.7150   -7.0740   37.1930 C.3    58  ARG58       0.0348
    122  CG        20.2170   -7.3030   37.4020 C.3    58  ARG58       0.0492
    123  CD        20.6380   -8.6610   36.8860 C.3    58  ARG58       0.2205
    124  NE        19.9220   -9.7620   37.5320 N.pl3  58  ARG58      -0.0865
    125  CZ        19.9310  -11.0280   37.0950 C.cat  58  ARG58       0.5346
    126  NH1       20.6520  -11.3880   36.0170 N.pl3  58  ARG58       0.1354
    127  NH2       19.2090  -11.9470   37.7430 N.pl3  58  ARG58       0.1354
    128  N         19.8720   -4.2500   37.5290 N.am   59  ASN59      -0.1958
    129  CA        20.5110   -3.1320   36.9020 C.3    59  ASN59       0.1819
    130  C         21.7630   -3.5740   36.1650 C.2    59  ASN59       0.2621
    131  O         22.3620   -4.6160   36.4660 O.2    59  ASN59      -0.2715
    132  CB        20.9650   -2.0910   37.8750 C.3    59  ASN59       0.1195
    133  CG        19.8720   -1.6210   38.8040 C.2    59  ASN59       0.2630
    134  OD1       20.1760   -1.2830   40.0430 O.2    59  ASN59      -0.2716
    135  ND2       18.6930   -1.5700   38.3800 N.am   59  ASN59      -0.0877
    136  N         22.2350   -2.7670   35.2020 N.am   60  TYR60      -0.1974
    137  CA        23.5690   -2.9280   34.5980 C.3    60  TYR60       0.1639
    138  C         24.1420   -1.5490   34.5000 C.2    60  TYR60       0.2290
    139  O         23.6680   -0.6930   33.7560 O.2    60  TYR60      -0.2864
    140  CB        23.5020   -3.6400   33.2490 C.3    60  TYR60       0.0560
    141  CG        24.8790   -3.8920   32.7180 C.ar   60  TYR60      -0.0198
    142  CD1       25.7100   -4.7730   33.4130 C.ar   60  TYR60      -0.0009
    143  CD2       25.4010   -3.1940   31.6430 C.ar   60  TYR60      -0.0009
    144  CE1       27.0760   -5.0600   32.9910 C.ar   60  TYR60       0.0417
    145  CE2       26.7900   -3.4790   31.2260 C.ar   60  TYR60       0.0417
    146  CZ        27.5570   -4.3930   31.9160 C.ar   60  TYR60       0.1957
    147  OH        28.8780   -4.6510   31.5290 O.3    60  TYR60      -0.2866
    148  N         27.5860    0.6920   33.7800 N.3    62  VAL62      -0.1245
    149  CA        28.9210    0.6040   33.2160 C.3    62  VAL62       0.1561
    150  C         29.4560    1.9960   32.8990 C.2    62  VAL62       0.2260
    151  O         28.6900    2.8940   32.4720 O.2    62  VAL62      -0.2867
    152  CB        28.9540   -0.3140   31.9600 C.3    62  VAL62       0.0252
    153  CG1       27.9740    0.1500   30.8060 C.3    62  VAL62       0.0019
    154  CG2       30.4070   -0.5380   31.5260 C.3    62  VAL62       0.0019
    155  N         32.7700    4.2260   31.0550 N.3    64  PHE64      -0.1241
    156  CA        33.8180    4.0630   30.0010 C.3    64  PHE64       0.1605
    157  C         34.1970    5.4400   29.5370 C.2    64  PHE64       0.2264
    158  O         33.4800    6.4100   29.6680 O.2    64  PHE64      -0.2867
    159  CB        33.3490    3.1950   28.7660 C.3    64  PHE64       0.0534
    160  CG        32.0770    3.6630   28.1910 C.ar   64  PHE64      -0.0203
    161  CD1       32.0590    4.6990   27.2790 C.ar   64  PHE64      -0.0042
    162  CD2       30.8820    3.0760   28.5750 C.ar   64  PHE64      -0.0042
    163  CE1       30.8040    5.0880   26.7160 C.ar   64  PHE64      -0.0003
    164  CE2       29.5830    3.5000   28.0220 C.ar   64  PHE64      -0.0003
    165  CZ        29.5830    4.5070   27.0860 C.ar   64  PHE64      -0.0000
    166  N         25.8510  -10.0200   35.9640 N.3    76  SER76      -0.1202
    167  CA        24.3370  -10.0950   35.9730 C.3    76  SER76       0.2020
    168  C         23.6370   -9.9410   34.6260 C.2    76  SER76       0.2618
    169  O         22.4010   -9.8720   34.5240 O.2    76  SER76      -0.2717
    170  CB        23.6690   -9.4380   37.2900 C.3    76  SER76       0.2103
    171  OG        24.2150  -10.0390   38.5440 O.3    76  SER76      -0.2182
    172  N         24.4140   -9.9880   33.5410 N.am   77  LEU77      -0.1979
    173  CA        23.8920  -10.2750   32.1950 C.3    77  LEU77       0.1596
    174  C         24.2460  -11.7170   31.8790 C.2    77  LEU77       0.2287
    175  O         23.6250  -12.6390   32.4250 O.2    77  LEU77      -0.2864
    176  CB        24.4170   -9.2840   31.1710 C.3    77  LEU77       0.0297
    177  CG        24.3580   -7.8030   31.5470 C.3    77  LEU77       0.0022
    178  CD1       24.7860   -6.8670   30.3620 C.3    77  LEU77       0.0001
    179  CD2       22.9320   -7.4420   31.9760 C.3    77  LEU77       0.0001
    180  N         26.9720   -2.8280   20.4420 N.3   106  TRP106     -0.1241
    181  CA        25.8120   -1.9910   20.5040 C.3   106  TRP106      0.1605
    182  C         26.0930   -0.6760   19.8190 C.2   106  TRP106      0.2264
    183  O         27.2960   -0.3550   19.5440 O.2   106  TRP106     -0.2867
    184  CB        25.3050   -1.8270   21.9570 C.3   106  TRP106      0.0550
    185  CG        26.3110   -1.3570   22.9640 C.ar  106  TRP106      0.0003
    186  CD1       26.8700   -2.1670   23.9250 C.ar  106  TRP106      0.0946
    187  CD2       26.6870   -0.0270   23.2570 C.ar  106  TRP106      0.0152
    188  NE1       27.6340   -1.3880   24.7520 N.ar  106  TRP106     -0.2442
    189  CE2       27.5500   -0.0830   24.3740 C.ar  106  TRP106      0.0810
    190  CE3       26.4200    1.2070   22.6810 C.ar  106  TRP106      0.0012
    191  CZ2       28.1860    1.0390   24.9040 C.ar  106  TRP106      0.0191
    192  CZ3       27.0620    2.3300   23.2070 C.ar  106  TRP106      0.0001
    193  CH2       27.9050    2.2330   24.3420 C.ar  106  TRP106      0.0015
    194  N         24.3650    3.4970   19.9310 N.3   108  GLN108     -0.1245
    195  CA        23.4440    4.3570   20.6300 C.3   108  GLN108      0.1566
    196  C         23.5460    5.7800   20.0860 C.2   108  GLN108      0.2260
    197  O         24.6860    6.3210   19.9630 O.2   108  GLN108     -0.2867
    198  CB        23.8060    4.3330   22.1290 C.3   108  GLN108      0.0367
    199  CG        22.8810    5.1560   23.0300 C.3   108  GLN108      0.0905
    200  CD        23.2150    4.8810   24.4760 C.2   108  GLN108      0.2608
    201  OE1       22.7120    3.8760   24.9920 O.2   108  GLN108     -0.2717
    202  NE2       24.1180    5.6500   25.0610 N.am  108  GLN108     -0.0878
    203  N         18.8640    2.7040   20.6320 N.3   117  LEU117     -0.1245
    204  CA        19.8960    1.7730   21.0430 C.3   117  LEU117      0.1561
    205  C         19.7280    0.4680   20.2990 C.2   117  LEU117      0.2260
    206  O         18.6040   -0.1090   20.4000 O.2   117  LEU117     -0.2867
    207  CB        19.8510    1.5220   22.5600 C.3   117  LEU117      0.0270
    208  CG        20.8120    0.4440   23.1430 C.3   117  LEU117      0.0019
    209  CD1       22.2290    0.7860   22.9220 C.3   117  LEU117      0.0001
    210  CD2       20.5800    0.3050   24.7190 C.3   117  LEU117      0.0001
    211  N         21.2750   -3.3880   20.1120 N.3   119  LEU119     -0.1245
    212  CA        22.1830   -4.3950   20.7650 C.3   119  LEU119      0.1561
    213  C         22.3010   -5.5740   19.8300 C.2   119  LEU119      0.2260
    214  O         21.2630   -6.0310   19.2900 O.2   119  LEU119     -0.2867
    215  CB        21.5180   -4.8270   22.0880 C.3   119  LEU119      0.0270
    216  CG        21.2080   -3.7590   23.1730 C.3   119  LEU119      0.0019
    217  CD1       20.1350   -4.1590   24.1710 C.3   119  LEU119      0.0001
    218  CD2       22.4910   -3.5720   23.9810 C.3   119  LEU119      0.0001
    219  N         15.8520   -0.7760   20.6940 N.3   128  GLN128     -0.1245
    220  CA        15.1880   -0.0700   21.7610 C.3   128  GLN128      0.1566
    221  C         15.0870    1.3980   21.4210 C.2   128  GLN128      0.2260
    222  O         15.9510    1.9540   20.7810 O.2   128  GLN128     -0.2867
    223  CB        15.9630   -0.2350   23.0800 C.3   128  GLN128      0.0367
    224  CG        16.1110   -1.7160   23.4590 C.3   128  GLN128      0.0905
    225  CD        16.8570   -1.9600   24.7460 C.2   128  GLN128      0.2608
    226  OE1       17.5360   -1.0810   25.2530 O.2   128  GLN128     -0.2717
    227  NE2       16.7150   -3.1810   25.2840 N.am  128  GLN128     -0.0878
@<TRIPOS>BOND
     1   214   213    2
     2   183   182    2
     3   182   181    1
     4   213   212    1
     5   194   195    1
     6   197   196    2
     7   196   195    1
     8   211   212    1
     9   205   206    2
    10   205   204    1
    11   180   181    1
    12   181   184    1
    13   195   198    1
    14   203   204    1
    15   219   220    1
    16   212   215    1
    17   222   221    2
    18   204   207    1
    19   221   220    1
    20    12    13    1
    21   220   223    1
    22   184   185    1
    23    13    16    1
    24    13    14    1
    25   215   216    1
    26   198   199    1
    27    18    20   ar
    28    18    17   ar
    29    16    17    1
    30     1     2    1
    31   207   208    1
    32   190   192   ar
    33   190   187   ar
    34    20    22   ar
    35    17    19   ar
    36   209   208    1
    37   185   187   ar
    38   185   186   ar
    39   199   200    1
    40   223   224    1
    41   208   210    1
    42   216   218    1
    43   216   217    1
    44   192   193   ar
    45   187   189   ar
    46    14    15    2
    47    14    24   am
    48   224   225    1
    49     2     3    1
    50     2     5    1
    51   186   188   ar
    52     3     4    2
    53    32    33    1
    54    22    23    1
    55    22    21   ar
    56    19    21   ar
    57    24    25    1
    58   193   191   ar
    59   189   188   ar
    60   189   191   ar
    61   200   201    2
    62   200   202   am
    63    39    37    1
    64   225   226    2
    65   225   227   am
    66     5     6    1
    67    33    36    1
    68    33    34    1
    69    37    36    1
    70    37    38    1
    71    26    25    1
    72    26    27    2
    73    25    28    1
    74     7     6   ar
    75     7     9   ar
    76     6     8   ar
    77    34    35    2
    78    28    29    1
    79   163   165   ar
    80   163   161   ar
    81     9    11   ar
    82   165   164   ar
    83    29    30    1
    84     8    10   ar
    85   161   160   ar
    86    31    30    1
    87    84    83    1
    88    84    85    1
    89   164   162   ar
    90    83    82    1
    91   160   162   ar
    92   160   159    1
    93    11    10   ar
    94    40    41    1
    95    43    42    2
    96   159   156    1
    97    76    74   am
    98    47    45    1
    99    75    74    2
   100    44    41    1
   101    44    45    1
   102    44    46    1
   103    41    42    1
   104   157   158    2
   105   157   156    1
   106    82    81    1
   107    74    73    1
   108    81    78    1
   109   156   155    1
   110    92    90    1
   111    63    62    2
   112   178   177    1
   113    58    57    2
   114    73    72    1
   115    57    56    1
   116    72    69    1
   117   153   152    1
   118    98    97    1
   119    71    70    1
   120    91    90    1
   121    99    97    1
   122    90    87    1
   123   176   177    1
   124   176   173    1
   125    68    69    1
   126   145   143   ar
   127   145   146   ar
   128    80    79    2
   129    62    61    1
   130    78    77    1
   131    78    79    1
   132    60    61    1
   133    59    56    1
   134   154   152    1
   135   147   146    1
   136   177   179    1
   137   143   141   ar
   138    69    70    1
   139    56    55    1
   140    97    94    1
   141   174   173    1
   142   174   175    2
   143   146   144   ar
   144   152   149    1
   145    61    64    1
   146   173   172    1
   147    50    51    2
   148    50    49    1
   149   151   150    2
   150    87    86    1
   151    87    88    1
   152   141   140    1
   153   141   142   ar
   154   150   149    1
   155    94    93    1
   156    94    95    1
   157   144   142   ar
   158    64    65    1
   159   149   148    1
   160   140   137    1
   161    48    49    1
   162   172   168   am
   163    52    49    1
   164    52    54    1
   165    52    53    1
   166    88    89    2
   167   139   138    2
   168    95    96    2
   169    65    67    1
   170    65    66    1
   171   138   137    1
   172   169   168    2
   173   137   136    1
   174   168   167    1
   175   104   105    1
   176   104   101    1
   177   136   130   am
   178   101   100    1
   179   101   102    1
   180   166   167    1
   181   167   170    1
   182   115   113   ar
   183   115   116   ar
   184   126   125    1
   185   113   111   ar
   186   130   131    2
   187   130   129    1
   188   120   119    2
   189   123   122    1
   190   123   124    1
   191   129   128    1
   192   129   132    1
   193   116   114   ar
   194   125   124    2
   195   125   127    1
   196   121   122    1
   197   121   118    1
   198   119   128   am
   199   119   118    1
   200   111   110    1
   201   111   112   ar
   202   110   107    1
   203   170   171    1
   204   102   103    2
   205   132   133    1
   206   118   117    1
   207   117   108   am
   208   114   112   ar
   209   106   107    1
   210   135   133   am
   211   107   108    1
   212   108   109    2
   213   133   134    2
