@<TRIPOS>MOLECULE
tmp/4qyoA00.pdb
 99 99 0 0 0
SMALL
GASTEIGER

@<TRIPOS>ATOM
      1  N         24.6950   -1.5120   30.8660 N.3    27  PHE27      -0.1241
      2  CA        23.9960   -1.2440   32.1240 C.3    27  PHE27       0.1605
      3  C         22.6490   -1.9270   32.0310 C.2    27  PHE27       0.2264
      4  O         22.0180   -1.8770   30.9830 O.2    27  PHE27      -0.2867
      5  CB        23.7930    0.2710   32.2770 C.3    27  PHE27       0.0534
      6  CG        23.2570    0.6880   33.6160 C.ar   27  PHE27      -0.0203
      7  CD1       24.0920    0.7720   34.7100 C.ar   27  PHE27      -0.0042
      8  CD2       21.9130    1.0300   33.7700 C.ar   27  PHE27      -0.0042
      9  CE1       23.6020    1.1580   35.9480 C.ar   27  PHE27      -0.0003
     10  CE2       21.4170    1.4260   35.0010 C.ar   27  PHE27      -0.0003
     11  CZ        22.2680    1.4790   36.0950 C.ar   27  PHE27      -0.0000
     12  N         18.2300   -1.6090   36.9720 N.3    31  ASP31      -0.1225
     13  CA        19.0440   -1.1660   38.0970 C.3    31  ASP31       0.1805
     14  C         18.8830    0.3120   38.4820 C.2    31  ASP31       0.2598
     15  O         19.4490    0.7160   39.5010 O.2    31  ASP31      -0.2718
     16  CB        20.5300   -1.4940   37.8460 C.3    31  ASP31       0.1424
     17  CG        20.8100   -2.9740   37.8370 C.2    31  ASP31       0.3668
     18  OD1       19.9760   -3.7490   38.3160 O.co2  31  ASP31      -0.2456
     19  OD2       21.9020   -3.3710   37.3590 O.co2  31  ASP31      -0.2456
     20  N         18.1710    1.1300   37.7090 N.am   32  ASP32      -0.1960
     21  CA        18.0440    2.5450   38.0600 C.3    32  ASP32       0.1840
     22  C         16.9020    3.1840   37.3060 C.2    32  ASP32       0.2622
     23  O         16.4790    2.7010   36.2520 O.2    32  ASP32      -0.2715
     24  CB        19.3290    3.3060   37.7060 C.3    32  ASP32       0.1450
     25  CG        19.4940    4.6230   38.4610 C.2    32  ASP32       0.3671
     26  OD1       18.7000    4.9310   39.3880 O.co2  32  ASP32      -0.2456
     27  OD2       20.4500    5.3590   38.1160 O.co2  32  ASP32      -0.2456
     28  N         16.4230    4.2980   37.8310 N.am   33  PHE33      -0.1974
     29  CA        15.5090    5.1540   37.1000 C.3    33  PHE33       0.1639
     30  C         16.1180    5.6190   35.7990 C.2    33  PHE33       0.2290
     31  O         17.3400    5.8310   35.7110 O.2    33  PHE33      -0.2864
     32  CB        15.1550    6.3970   37.9270 C.3    33  PHE33       0.0560
     33  CG        14.6420    6.1090   39.3020 C.ar   33  PHE33      -0.0200
     34  CD1       13.3390    5.6810   39.4950 C.ar   33  PHE33      -0.0042
     35  CD2       15.4470    6.3140   40.4180 C.ar   33  PHE33      -0.0042
     36  CE1       12.8610    5.4390   40.7840 C.ar   33  PHE33      -0.0003
     37  CE2       14.9800    6.0660   41.6800 C.ar   33  PHE33      -0.0003
     38  CZ        13.6920    5.6230   41.8680 C.ar   33  PHE33      -0.0000
     39  N         15.5920    9.0060   33.4560 N.3    35  HIS35      -0.1241
     40  CA        15.0600   10.3630   33.4810 C.3    35  HIS35       0.1621
     41  C         14.9780   10.9230   32.0810 C.2    35  HIS35       0.2264
     42  O         15.8310   10.6220   31.2460 O.2    35  HIS35      -0.2867
     43  CB        15.9940   11.2660   34.2940 C.3    35  HIS35       0.0745
     44  CG        16.1920   10.8010   35.6980 C.ar   35  HIS35       0.0817
     45  ND1       15.5860   11.4020   36.7800 N.ar   35  HIS35      -0.2268
     46  CD2       16.9400    9.7820   36.1980 C.ar   35  HIS35       0.1154
     47  CE1       15.9510   10.7670   37.8860 C.ar   35  HIS35       0.1986
     48  NE2       16.7790    9.7850   37.5560 N.ar   35  HIS35      -0.2212
     49  N         10.7190   10.7310   35.6360 N.3    50  ARG50      -0.1197
     50  CA        11.5230    9.5310   35.7010 C.3    50  ARG50       0.1779
     51  C         10.6260    8.3110   35.7380 C.2    50  ARG50       0.2305
     52  O          9.5140    8.3560   36.2590 O.2    50  ARG50      -0.2863
     53  CB        12.4750    9.5420   36.9080 C.2    50  ARG50      -0.0007
     54  CG        11.8090    9.4970   38.2790 C.2    50  ARG50       0.0176
     55  CD        12.7750    9.5140   39.4900 C.3    50  ARG50       0.2464
     56  NE        11.9330    9.6550   40.6680 N.pl3  50  ARG50      -0.0815
     57  CZ        11.6260   10.8050   41.2680 C.cat  50  ARG50       0.5349
     58  NH1       12.2880   11.9170   40.9800 N.pl3  50  ARG50       0.1354
     59  NH2       10.7160   10.8140   42.2330 N.pl3  50  ARG50       0.1354
     60  N         22.0130    6.4390   35.8900 N.3    99  TYR99      -0.1227
     61  CA        23.1260    6.3450   36.8380 C.3    99  TYR99       0.1736
     62  C         23.0640    7.5880   37.7310 C.2    99  TYR99       0.2596
     63  O         23.9140    8.4960   37.6510 O.2    99  TYR99      -0.2718
     64  CB        24.4820    6.1720   36.1160 C.3    99  TYR99       0.0548
     65  CG        25.5730    5.5850   37.0040 C.ar   99  TYR99      -0.0200
     66  CD1       26.4580    6.4140   37.6910 C.ar   99  TYR99      -0.0009
     67  CD2       25.7130    4.2170   37.1570 C.ar   99  TYR99      -0.0009
     68  CE1       27.4450    5.8920   38.5030 C.ar   99  TYR99       0.0417
     69  CE2       26.7010    3.6850   37.9780 C.ar   99  TYR99       0.0417
     70  CZ        27.5440    4.5430   38.6450 C.ar   99  TYR99       0.1957
     71  OH        28.5100    4.0160   39.4600 O.3    99  TYR99      -0.2866
     72  N         22.0260    7.6430   38.5610 N.am  100  GLY100     -0.1942
     73  CA        21.5400    8.9250   39.0190 C.3   100  GLY100      0.2014
     74  C         21.1710    9.7290   37.7900 C.2   100  GLY100      0.2639
     75  O         20.3310    9.2780   36.9910 O.2   100  GLY100     -0.2714
     76  N         21.8220   10.8750   37.5980 N.am  101  VAL101     -0.1963
     77  CA        21.7070   11.6280   36.3550 C.3   101  VAL101      0.1727
     78  C         23.0920   11.8810   35.7480 C.2   101  VAL101      0.2616
     79  O         23.3270   12.8870   35.0690 O.2   101  VAL101     -0.2715
     80  CB        20.9430   12.9550   36.5450 C.3   101  VAL101      0.0290
     81  CG1       19.4440   12.7030   36.7960 C.3   101  VAL101      0.0023
     82  CG2       21.5610   13.7860   37.6840 C.3   101  VAL101      0.0023
     83  N         24.0020   10.9350   35.9350 N.am  102  ALA102     -0.1963
     84  CA        25.3880   11.1060   35.4810 C.3   102  ALA102      0.1728
     85  C         25.6110   10.8230   33.9980 C.2   102  ALA102      0.2616
     86  O         26.4900   11.4310   33.3870 O.2   102  ALA102     -0.2715
     87  CB        26.3170   10.2340   36.2940 C.3   102  ALA102      0.0334
     88  N         24.8740    9.8860   33.4200 N.am  103  TYR103     -0.1974
     89  CA        25.0980    9.4570   32.0390 C.3   103  TYR103      0.1639
     90  C         23.9030    9.8290   31.1650 C.2   103  TYR103      0.2290
     91  O         22.7740    9.4390   31.4610 O.2   103  TYR103     -0.2864
     92  CB        25.3260    7.9410   31.9620 C.3   103  TYR103      0.0560
     93  CG        26.4290    7.4130   32.8510 C.ar  103  TYR103     -0.0198
     94  CD1       27.4730    8.2150   33.2250 C.ar  103  TYR103     -0.0009
     95  CD2       26.3890    6.1130   33.3370 C.ar  103  TYR103     -0.0009
     96  CE1       28.4930    7.7340   34.0570 C.ar  103  TYR103      0.0417
     97  CE2       27.3950    5.6260   34.1550 C.ar  103  TYR103      0.0417
     98  CZ        28.4270    6.4480   34.5180 C.ar  103  TYR103      0.1957
     99  OH        29.4360    5.9620   35.3350 O.3   103  TYR103     -0.2866
@<TRIPOS>BOND
     1     1     2    1
     2     4     3    2
     3    90    91    2
     4    90    89    1
     5    42    41    2
     6    92    89    1
     7    92    93    1
     8     3     2    1
     9    89    88    1
    10    41    40    1
    11     2     5    1
    12     5     6    1
    13    93    94   ar
    14    93    95   ar
    15    94    96   ar
    16    95    97   ar
    17    86    85    2
    18    88    85   am
    19    39    40    1
    20    40    43    1
    21     6     8   ar
    22     6     7   ar
    23     8    10   ar
    24    85    84    1
    25    96    98   ar
    26    97    98   ar
    27    43    44    1
    28    98    99    1
    29     7     9   ar
    30    10    11   ar
    31    79    78    2
    32    84    83    1
    33    84    87    1
    34    49    50    1
    35    44    46   ar
    36    44    45   ar
    37    50    51    1
    38    50    53    1
    39    31    30    2
    40    51    52    2
    41    78    83   am
    42    78    77    1
    43    30    29    1
    44    60    61    1
    45     9    11   ar
    46    64    61    1
    47    64    65    1
    48    46    48   ar
    49    23    22    2
    50    77    80    1
    51    77    76    1
    52    80    81    1
    53    80    82    1
    54    45    47   ar
    55    61    62    1
    56    53    54    2
    57    12    13    1
    58    75    74    2
    59    65    67   ar
    60    65    66   ar
    61    29    28    1
    62    29    32    1
    63    67    69   ar
    64    22    28   am
    65    22    21    1
    66    19    17   ar
    67    48    47   ar
    68    76    74   am
    69    63    62    2
    70    66    68   ar
    71    24    21    1
    72    24    25    1
    73    20    21    1
    74    20    14   am
    75    62    72   am
    76    74    73    1
    77    17    16    1
    78    17    18   ar
    79    16    13    1
    80    32    33    1
    81    69    70   ar
    82    13    14    1
    83    27    25   ar
    84    54    55    1
    85    25    26   ar
    86    14    15    2
    87    68    70   ar
    88    72    73    1
    89    70    71    1
    90    33    34   ar
    91    33    35   ar
    92    55    56    1
    93    34    36   ar
    94    35    37   ar
    95    56    57    2
    96    36    38   ar
    97    58    57    1
    98    57    59    1
    99    37    38   ar
