@<TRIPOS>MOLECULE
tmp/4qyqA00.pdb
 86 82 0 0 0
SMALL
GASTEIGER

@<TRIPOS>ATOM
      1  N         -3.0230    5.2520   23.4880 N.3   205  ASN205     -0.1240
      2  CA        -3.8680    4.5220   24.4000 C.3   205  ASN205      0.1653
      3  C         -2.9650    3.5690   25.1560 C.2   205  ASN205      0.2266
      4  O         -2.5400    2.5430   24.6250 O.2   205  ASN205     -0.2867
      5  CB        -4.9440    3.7470   23.6400 C.3   205  ASN205      0.1155
      6  CG        -5.8510    2.9540   24.5600 C.2   205  ASN205      0.2627
      7  OD1       -5.8030    3.1070   25.7810 O.2   205  ASN205     -0.2716
      8  ND2       -6.6840    2.0990   23.9780 N.am  205  ASN205     -0.0877
      9  N         -3.9890    2.1200   28.1170 N.3   207  SER207     -0.1202
     10  CA        -4.8380    1.2470   28.9210 C.3   207  SER207      0.2020
     11  C         -5.1170   -0.1150   28.2960 C.2   207  SER207      0.2619
     12  O         -5.9270   -0.8840   28.8080 O.2   207  SER207     -0.2717
     13  CB        -6.1540    1.9560   29.2350 C.3   207  SER207      0.2103
     14  OG        -5.9130    3.1110   30.0280 O.3   207  SER207     -0.2182
     15  N         -4.4450   -0.4080   27.1900 N.am  208  SER208     -0.1951
     16  CA        -4.5870   -1.6970   26.5210 C.3   208  SER208      0.1924
     17  C         -3.3150   -1.9320   25.7280 C.2   208  SER208      0.2314
     18  O         -2.9020   -1.0880   24.9420 O.2   208  SER208     -0.2863
     19  CB        -5.7810   -1.7000   25.5680 C.3   208  SER208      0.2116
     20  OG        -5.5400   -0.8840   24.4350 O.3   208  SER208     -0.2180
     21  N         -2.5560   -2.7420   23.0820 N.3   210  LEU210     -0.1245
     22  CA        -2.8650   -2.8840   21.6570 C.3   210  LEU210      0.1561
     23  C         -2.1190   -1.8990   20.7330 C.2   210  LEU210      0.2260
     24  O         -2.3170   -1.9050   19.5180 O.2   210  LEU210     -0.2867
     25  CB        -4.3830   -2.7630   21.4370 C.3   210  LEU210      0.0270
     26  CG        -5.2940   -3.6460   22.3060 C.3   210  LEU210      0.0019
     27  CD1       -6.7390   -3.5450   21.8210 C.3   210  LEU210      0.0001
     28  CD2       -4.8340   -5.1000   22.2430 C.3   210  LEU210      0.0001
     29  N         -2.5290    1.1200   20.2260 N.3   212  LEU212     -0.1231
     30  CA        -3.4750    2.0570   19.6320 C.3   212  LEU212      0.1693
     31  C         -3.2280    3.4990   20.0310 C.2   212  LEU212      0.2592
     32  O         -2.5920    3.7810   21.0480 O.2   212  LEU212     -0.2718
     33  CB        -4.8930    1.6930   20.0790 C.3   212  LEU212      0.0284
     34  CG        -5.3850    0.3360   19.5880 C.3   212  LEU212      0.0019
     35  CD1       -6.6500   -0.1000   20.3350 C.3   212  LEU212      0.0001
     36  CD2       -5.6190    0.4490   18.0790 C.3   212  LEU212      0.0001
     37  N         -3.7580    4.4100   19.2230 N.am  213  MET213     -0.1965
     38  CA        -3.6810    5.8300   19.5190 C.3   213  MET213      0.1736
     39  C         -5.0030    6.1240   20.2130 C.2   213  MET213      0.2616
     40  O         -5.9950    5.4120   20.0040 O.2   213  MET213     -0.2715
     41  CB        -3.5610    6.6590   18.2420 C.3   213  MET213      0.0427
     42  CG        -2.1560    6.7550   17.6690 C.3   213  MET213      0.0599
     43  SD        -1.0220    7.7220   18.7070 S.3   213  MET213     -0.1393
     44  CE        -1.8430    9.2940   18.6840 C.3   213  MET213      0.0692
     45  N         -5.0240    7.1570   21.0420 N.am  214  ALA214     -0.1963
     46  CA        -6.2350    7.4960   21.7710 C.3   214  ALA214      0.1728
     47  C         -7.2880    8.0460   20.8420 C.2   214  ALA214      0.2616
     48  O         -6.9660    8.7760   19.8880 O.2   214  ALA214     -0.2715
     49  CB        -5.9320    8.5120   22.8550 C.3   214  ALA214      0.0334
     50  N         -8.5400    7.6900   21.1260 N.am  215  VAL215     -0.1977
     51  CA        -9.6730    8.1460   20.3410 C.3   215  VAL215      0.1596
     52  C        -10.7770    8.6920   21.2420 C.2   215  VAL215      0.2287
     53  O        -10.8140    8.4320   22.4420 O.2   215  VAL215     -0.2864
     54  CB       -10.2200    7.0190   19.4580 C.3   215  VAL215      0.0276
     55  CG1       -9.0590    6.2020   18.9140 C.3   215  VAL215      0.0022
     56  CG2      -11.1950    6.1560   20.2330 C.3   215  VAL215      0.0022
     57  N        -14.3790    9.6220   23.0890 N.3   217  GLN217     -0.1245
     58  CA       -15.4160    8.8670   23.7740 C.3   217  GLN217      0.1566
     59  C        -16.8000    9.4460   23.4580 C.2   217  GLN217      0.2260
     60  O        -17.6890    8.7360   22.9820 O.2   217  GLN217     -0.2867
     61  CB       -15.1930    8.8940   25.2860 C.3   217  GLN217      0.0367
     62  CG       -13.8630    8.3270   25.7460 C.3   217  GLN217      0.0905
     63  CD       -13.5190    7.0220   25.0670 C.2   217  GLN217      0.2608
     64  OE1      -14.3940    6.3170   24.5690 O.2   217  GLN217     -0.2717
     65  NE2      -12.2360    6.6880   25.0510 N.am  217  GLN217     -0.0878
     66  N        -18.8040    9.4620   17.7150 N.3   220  TRP220     -0.1241
     67  CA       -18.2820    8.5640   16.6850 C.3   220  TRP220      0.1605
     68  C        -18.8210    8.9100   15.3070 C.2   220  TRP220      0.2264
     69  O        -19.7730    9.6760   15.1760 O.2   220  TRP220     -0.2867
     70  CB       -18.6090    7.1210   17.0280 C.3   220  TRP220      0.0550
     71  CG       -18.0930    6.7620   18.3760 C.ar  220  TRP220      0.0003
     72  CD1      -18.6680    7.0540   19.5820 C.ar  220  TRP220      0.0946
     73  CD2      -16.8820    6.0600   18.6650 C.ar  220  TRP220      0.0152
     74  NE1      -17.8920    6.5690   20.6050 N.ar  220  TRP220     -0.2442
     75  CE2      -16.7890    5.9520   20.0720 C.ar  220  TRP220      0.0810
     76  CE3      -15.8640    5.5080   17.8740 C.ar  220  TRP220      0.0012
     77  CZ2      -15.7140    5.3110   20.7080 C.ar  220  TRP220      0.0191
     78  CZ3      -14.7950    4.8710   18.5070 C.ar  220  TRP220      0.0001
     79  CH2      -14.7330    4.7770   19.9140 C.ar  220  TRP220      0.0015
     80  N         -9.1400   12.4500   20.1100 N.3   228  PRO228     -0.2116
     81  CA        -9.6340   12.9310   21.4110 C.3   228  PRO228      0.1372
     82  C         -9.7410   14.4600   21.3760 C.2   228  PRO228      0.2244
     83  O         -9.1860   15.0880   20.4740 O.2   228  PRO228     -0.2868
     84  CB        -8.5580   12.4460   22.3780 C.3   228  PRO228      0.0268
     85  CG        -8.0330   11.1810   21.6880 C.3   228  PRO228      0.0207
     86  CD        -7.9040   11.6650   20.2750 C.3   228  PRO228      0.0892
@<TRIPOS>BOND
     1    69    68    2
     2    68    67    1
     3    67    70    1
     4    67    66    1
     5    70    71    1
     6    42    41    1
     7    42    43    1
     8    76    78   ar
     9    76    73   ar
    10    36    34    1
    11    41    38    1
    12    71    73   ar
    13    71    72   ar
    14    78    79   ar
    15    73    75   ar
    16    44    43    1
    17    55    54    1
    18    37    38    1
    19    37    31   am
    20    54    56    1
    21    54    51    1
    22    24    23    2
    23    38    39    1
    24    72    74   ar
    25    34    33    1
    26    34    35    1
    27    30    31    1
    28    30    33    1
    29    30    29    1
    30    48    47    2
    31    79    77   ar
    32    40    39    2
    33    31    32    2
    34    75    74   ar
    35    75    77   ar
    36    80    86    1
    37    80    81    1
    38    39    45   am
    39    86    85    1
    40    51    50    1
    41    51    52    1
    42    83    82    2
    43    23    22    1
    44    47    50   am
    45    47    46    1
    46    45    46    1
    47    52    53    2
    48    82    81    1
    49    81    84    1
    50    25    22    1
    51    25    26    1
    52    22    21    1
    53    85    84    1
    54    46    49    1
    55    27    26    1
    56    28    26    1
    57    60    59    2
    58    57    58    1
    59    59    58    1
    60     1     2    1
    61     5     2    1
    62     5     6    1
    63    58    61    1
    64     8     6   am
    65     2     3    1
    66    20    19    1
    67     6     7    2
    68    64    63    2
    69     4     3    2
    70    18    17    2
    71    65    63   am
    72    63    62    1
    73    61    62    1
    74    19    16    1
    75    17    16    1
    76    16    15    1
    77    15    11   am
    78     9    10    1
    79    11    12    2
    80    11    10    1
    81    10    13    1
    82    13    14    1
