@<TRIPOS>MOLECULE
tmp/4qyqA03.pdb
 115 109 0 0 0
SMALL
GASTEIGER

@<TRIPOS>ATOM
      1  N         -0.6290   21.2410    3.2510 N.3   105  GLN105     -0.1245
      2  CA        -0.6990   21.7630    4.5980 C.3   105  GLN105      0.1566
      3  C         -0.4600   20.6130    5.6010 C.2   105  GLN105      0.2260
      4  O          0.0450   20.8210    6.7170 O.2   105  GLN105     -0.2867
      5  CB        -2.0600   22.4280    4.7880 C.3   105  GLN105      0.0367
      6  CG        -2.2680   22.9930    6.1750 C.3   105  GLN105      0.0905
      7  CD        -3.6700   23.5120    6.3930 C.2   105  GLN105      0.2608
      8  OE1       -4.6630   22.9510    5.8940 O.2   105  GLN105     -0.2717
      9  NE2       -3.7680   24.5790    7.1620 N.am  105  GLN105     -0.0878
     10  N          3.0710   20.1610    5.2350 N.3   108  ASP108     -0.1225
     11  CA         3.7270   21.3260    5.7710 C.3   108  ASP108      0.1805
     12  C          3.8100   21.1570    7.2630 C.2   108  ASP108      0.2597
     13  O          4.8150   21.4480    7.8320 O.2   108  ASP108     -0.2718
     14  CB         2.9760   22.6140    5.3780 C.3   108  ASP108      0.1424
     15  CG         3.6040   23.8770    5.9240 C.2   108  ASP108      0.3668
     16  OD1        3.6680   24.0400    7.1120 O.co2 108  ASP108     -0.2456
     17  OD2        4.0110   24.7580    5.1790 O.co2 108  ASP108     -0.2456
     18  N          2.7550   20.6620    7.8840 N.am  109  HIS109     -0.1975
     19  CA         2.6480   20.5620    9.3360 C.3   109  HIS109      0.1656
     20  C          3.4580   19.4230    9.9020 C.2   109  HIS109      0.2291
     21  O          3.7550   19.3900   11.0950 O.2   109  HIS109     -0.2864
     22  CB         1.1860   20.3840    9.7500 C.3   109  HIS109      0.0771
     23  CG         0.4030   21.6540    9.7390 C.ar  109  HIS109      0.0820
     24  ND1       -0.9440   21.7000   10.0150 N.ar  109  HIS109     -0.2267
     25  CD2        0.7950   22.9350    9.5560 C.ar  109  HIS109      0.1154
     26  CE1       -1.3500   22.9540   10.0090 C.ar  109  HIS109      0.1986
     27  NE2       -0.3120   23.7240    9.7350 N.ar  109  HIS109     -0.2212
     28  N          6.9900   24.1050   12.2200 N.3   113  PHE113     -0.1227
     29  CA         6.1800   25.0840   12.8920 C.3   113  PHE113      0.1736
     30  C          7.1140   26.1440   13.4440 C.2   113  PHE113      0.2595
     31  O          8.1920   25.8440   13.9560 O.2   113  PHE113     -0.2718
     32  CB         5.3830   24.4380   14.0260 C.3   113  PHE113      0.0547
     33  CG         4.3490   25.3440   14.6310 C.ar  113  PHE113     -0.0202
     34  CD1        3.6230   26.2170   13.8380 C.ar  113  PHE113     -0.0042
     35  CD2        4.1010   25.3210   15.9940 C.ar  113  PHE113     -0.0042
     36  CE1        2.6710   27.0510   14.3920 C.ar  113  PHE113     -0.0003
     37  CE2        3.1500   26.1530   16.5540 C.ar  113  PHE113     -0.0003
     38  CZ         2.4340   27.0190   15.7520 C.ar  113  PHE113     -0.0000
     39  N          6.6720   27.3830   13.3460 N.am  114  ALA114     -0.1980
     40  CA         7.2420   28.4950   14.0750 C.3   114  ALA114      0.1597
     41  C          6.2570   28.7650   15.2020 C.2   114  ALA114      0.2287
     42  O          5.1520   29.2400   14.9690 O.2   114  ALA114     -0.2864
     43  CB         7.3330   29.6780   13.1830 C.3   114  ALA114      0.0319
     44  N          4.1770   30.6250   17.4810 N.3   116  GLU116     -0.1245
     45  CA         3.8830   32.0490   17.5940 C.3   116  GLU116      0.1567
     46  C          3.8730   32.4060   19.0900 C.2   116  GLU116      0.2260
     47  O          3.2900   31.6740   19.9060 O.2   116  GLU116     -0.2867
     48  CB         2.5250   32.3790   16.9710 C.3   116  GLU116      0.0388
     49  CG         2.2530   33.8690   16.9640 C.3   116  GLU116      0.1160
     50  CD         1.0110   34.2430   17.7570 C.2   116  GLU116      0.3649
     51  OE1        0.8470   33.7170   18.8850 O.co2 116  GLU116     -0.2457
     52  OE2        0.2090   35.0670   17.2510 O.co2 116  GLU116     -0.2457
     53  N         -1.8440   22.5470   15.3820 N.3   255  ARG255     -0.1245
     54  CA        -2.6590   23.2280   14.3770 C.3   255  ARG255      0.1563
     55  C         -3.7200   22.3090   13.7600 C.2   255  ARG255      0.2260
     56  O         -4.4940   22.7310   12.9080 O.2   255  ARG255     -0.2867
     57  CB        -1.7510   23.7450   13.2500 C.3   255  ARG255      0.0307
     58  CG        -0.6410   24.7090   13.6930 C.3   255  ARG255      0.0489
     59  CD         0.5410   24.7520   12.7210 C.3   255  ARG255      0.2205
     60  NE         1.3560   23.5410   12.8020 N.pl3 255  ARG255     -0.0865
     61  CZ         2.5320   23.3730   12.2020 C.cat 255  ARG255      0.5346
     62  NH1        3.0530   24.3450   11.4660 N.pl3 255  ARG255      0.1354
     63  NH2        3.1870   22.2240   12.3340 N.pl3 255  ARG255      0.1354
     64  N         -7.3520   23.7690   12.2950 N.3   258  GLU258     -0.1245
     65  CA        -7.4420   25.1690   11.9100 C.3   258  GLU258      0.1567
     66  C         -8.6040   25.3340   10.9470 C.2   258  GLU258      0.2260
     67  O         -9.3400   26.3200   11.0070 O.2   258  GLU258     -0.2867
     68  CB        -6.1410   25.6330   11.2550 C.3   258  GLU258      0.0388
     69  CG        -6.2690   26.9260   10.4660 C.3   258  GLU258      0.1160
     70  CD        -6.3000   26.6940    8.9690 C.2   258  GLU258      0.3649
     71  OE1       -6.3660   25.5190    8.5490 O.co2 258  GLU258     -0.2457
     72  OE2       -6.2570   27.6860    8.2110 O.co2 258  GLU258     -0.2457
     73  N          4.2100   28.0050    1.8780 N.3   348  ARG348     -0.1245
     74  CA         2.8900   28.5940    1.8630 C.3   348  ARG348      0.1563
     75  C          2.5950   29.2500    0.5300 C.2   348  ARG348      0.2260
     76  O          2.0490   30.3090    0.4420 O.2   348  ARG348     -0.2867
     77  CB         2.6760   29.6120    2.9770 C.3   348  ARG348      0.0307
     78  CG         3.5870   29.5120    4.1470 C.3   348  ARG348      0.0489
     79  CD         3.9670   30.8680    4.6450 C.3   348  ARG348      0.2205
     80  NE         4.5610   30.7810    5.9510 N.pl3 348  ARG348     -0.0865
     81  CZ         4.3180   31.6080    6.9370 C.cat 348  ARG348      0.5346
     82  NH1        3.4910   32.5930    6.7700 N.pl3 348  ARG348      0.1354
     83  NH2        4.8970   31.4350    8.0850 N.pl3 348  ARG348      0.1354
     84  N         -1.2310   28.5240    0.3830 N.3   351  HIS351     -0.1241
     85  CA        -2.3300   29.4580    0.6330 C.3   351  HIS351      0.1621
     86  C         -3.0820   29.8930   -0.6290 C.2   351  HIS351      0.2264
     87  O         -4.3100   29.9760   -0.6350 O.2   351  HIS351     -0.2867
     88  CB        -1.8180   30.6900    1.3850 C.3   351  HIS351      0.0745
     89  CG        -1.3550   30.3980    2.7780 C.ar  351  HIS351      0.0817
     90  ND1       -0.6110   31.2920    3.5180 N.ar  351  HIS351     -0.2268
     91  CD2       -1.5310   29.3120    3.5670 C.ar  351  HIS351      0.1154
     92  CE1       -0.3490   30.7690    4.7020 C.ar  351  HIS351      0.1986
     93  NE2       -0.8960   29.5680    4.7580 N.ar  351  HIS351     -0.2212
     94  N        -11.3260   26.4800   12.5770 N.3   381  PHE381     -0.1241
     95  CA       -11.5310   25.8760   13.8930 C.3   381  PHE381      0.1605
     96  C        -12.9430   25.3660   14.1050 C.2   381  PHE381      0.2264
     97  O        -13.4900   25.4100   15.2080 O.2   381  PHE381     -0.2867
     98  CB       -11.1450   26.8890   14.9480 C.3   381  PHE381      0.0534
     99  CG        -9.6980   27.2710   14.8760 C.ar  381  PHE381     -0.0203
    100  CD1       -8.7200   26.4100   15.3680 C.ar  381  PHE381     -0.0042
    101  CD2       -9.3030   28.4580   14.2520 C.ar  381  PHE381     -0.0042
    102  CE1       -7.3680   26.7260   15.2380 C.ar  381  PHE381     -0.0003
    103  CE2       -7.9490   28.7820   14.1160 C.ar  381  PHE381     -0.0003
    104  CZ        -6.9830   27.9120   14.6100 C.ar  381  PHE381     -0.0000
    105  N          5.3970   38.2940    8.5630 N.3   440  ARG440     -0.1245
    106  CA         6.1720   37.1570    9.0370 C.3   440  ARG440      0.1563
    107  C          7.5790   37.0560    8.4700 C.2   440  ARG440      0.2260
    108  O          8.5040   36.7700    9.2150 O.2   440  ARG440     -0.2867
    109  CB         5.4240   35.8550    8.7760 C.3   440  ARG440      0.0307
    110  CG         5.9430   34.7320    9.6350 C.3   440  ARG440      0.0489
    111  CD         5.8320   35.0920   11.1120 C.3   440  ARG440      0.2205
    112  NE         4.4950   34.8730   11.6550 N.pl3 440  ARG440     -0.0865
    113  CZ         4.1170   35.3020   12.8530 C.cat 440  ARG440      0.5346
    114  NH1        4.9800   35.9760   13.6010 N.pl3 440  ARG440      0.1354
    115  NH2        2.9030   35.0350   13.3160 N.pl3 440  ARG440      0.1354
@<TRIPOS>BOND
     1    87    86    2
     2    86    85    1
     3    84    85    1
     4    76    75    2
     5    75    74    1
     6    85    88    1
     7    88    89    1
     8    74    73    1
     9    74    77    1
    10    89    90   ar
    11    89    91   ar
    12    77    78    1
    13     1     2    1
    14    90    92   ar
    15    91    93   ar
    16    78    79    1
    17     2     5    1
    18     2     3    1
    19    79    80    1
    20    92    93   ar
    21     5     6    1
    22    17    15   ar
    23    10    11    1
    24    14    11    1
    25    14    15    1
    26     3     4    2
    27    11    12    1
    28     8     7    2
    29    15    16   ar
    30    80    81    2
    31     6     7    1
    32     7     9   am
    33    82    81    1
    34    81    83    1
    35    12    13    2
    36    12    18   am
    37    18    19    1
    38    72    70   ar
    39   107   106    1
    40   107   108    2
    41    71    70   ar
    42   105   106    1
    43   109   106    1
    44   109   110    1
    45    70    69    1
    46    19    22    1
    47    19    20    1
    48    25    27   ar
    49    25    23   ar
    50   110   111    1
    51    27    26   ar
    52    23    22    1
    53    23    24   ar
    54    20    21    2
    55    26    24   ar
    56    69    68    1
    57    66    67    2
    58    66    65    1
    59   111   112    1
    60    68    65    1
    61    62    61    1
    62   112   113    2
    63    65    64    1
    64    61    63    1
    65    61    60    2
    66    28    29    1
    67    94    95    1
    68    59    60    1
    69    59    58    1
    70   113   115    1
    71   113   114    1
    72    29    30    1
    73    29    32    1
    74    56    55    2
    75    43    40    1
    76    57    58    1
    77    57    54    1
    78    39    30   am
    79    39    40    1
    80    30    31    2
    81    55    54    1
    82    34    36   ar
    83    34    33   ar
    84    95    96    1
    85    95    98    1
    86    32    33    1
    87    40    41    1
    88    96    97    2
    89   103   101   ar
    90   103   104   ar
    91   101    99   ar
    92    54    53    1
    93    36    38   ar
    94   104   102   ar
    95    33    35   ar
    96    99    98    1
    97    99   100   ar
    98    42    41    2
    99   102   100   ar
   100    38    37   ar
   101    35    37   ar
   102    49    48    1
   103    49    50    1
   104    48    45    1
   105    52    50   ar
   106    44    45    1
   107    45    46    1
   108    50    51   ar
   109    46    47    2
