@<TRIPOS>MOLECULE
tmp/4qysB01.pdb
 100 98 0 0 0
SMALL
GASTEIGER

@<TRIPOS>ATOM
      1  N          8.5130    5.1010  -20.5660 N.3   108  LYS108     -0.1245
      2  CA         9.7970    4.6620  -19.9850 C.3   108  LYS108      0.1561
      3  C         10.9590    4.6580  -20.9660 C.2   108  LYS108      0.2260
      4  O         12.1120    4.9000  -20.5940 O.2   108  LYS108     -0.2867
      5  CB         9.6560    3.2560  -19.4010 C.3   108  LYS108      0.0271
      6  CG         8.7040    3.2050  -18.1920 C.3   108  LYS108      0.0035
      7  CD         9.2190    4.0850  -17.0980 C.3   108  LYS108      0.0206
      8  CE         8.3680    3.9450  -15.8340 C.3   108  LYS108      0.1093
      9  NZ         7.7430    2.5990  -15.8840 N.3   108  LYS108     -0.1314
     10  N         13.0020   -3.6780  -12.1150 N.3   131  THR131     -0.1203
     11  CA        11.6990   -3.3270  -12.6840 C.3   131  THR131      0.1994
     12  C         10.5390   -3.8910  -11.8580 C.2   131  THR131      0.2618
     13  O         10.6730   -4.9310  -11.2020 O.2   131  THR131     -0.2717
     14  CB        11.5770   -3.8170  -14.1520 C.3   131  THR131      0.1784
     15  OG1       10.4380   -3.2140  -14.7870 O.3   131  THR131     -0.2211
     16  CG2       11.4660   -5.3290  -14.2090 C.3   131  THR131      0.0376
     17  N          9.3990   -3.2030  -11.8980 N.am  132  GLY132     -0.1942
     18  CA         8.2140   -3.6860  -11.2120 C.3   132  GLY132      0.2014
     19  C          7.1980   -4.2410  -12.1890 C.2   132  GLY132      0.2639
     20  O          7.1270   -5.4550  -12.4180 O.2   132  GLY132     -0.2714
     21  N          6.4140   -3.3350  -12.7710 N.am  133  ALA133     -0.1963
     22  CA         5.4620   -3.6680  -13.8300 C.3   133  ALA133      0.1728
     23  C          6.1620   -4.2880  -15.0430 C.2   133  ALA133      0.2617
     24  O          5.5550   -5.0080  -15.8430 O.2   133  ALA133     -0.2715
     25  CB         4.6950   -2.4270  -14.2500 C.3   133  ALA133      0.0334
     26  N          7.4460   -3.9940  -15.1730 N.am  134  GLY134     -0.1940
     27  CA         8.2200   -4.4930  -16.2890 C.3   134  GLY134      0.2014
     28  C          8.0820   -3.5820  -17.4790 C.2   134  GLY134      0.2639
     29  O          8.5800   -3.9040  -18.5650 O.2   134  GLY134     -0.2714
     30  N          7.4390   -2.4450  -17.2920 N.am  135  GLN135     -0.1963
     31  CA         7.4040   -1.4700  -18.3340 C.3   135  GLN135      0.1733
     32  C          8.7810   -0.8830  -18.4690 C.2   135  GLN135      0.2616
     33  O          9.2380   -0.6390  -19.5410 O.2   135  GLN135     -0.2715
     34  CB         6.3810   -0.4020  -18.0580 C.3   135  GLN135      0.0408
     35  CG         5.3610   -0.2490  -19.1660 C.3   135  GLN135      0.0908
     36  CD         4.0320   -0.8430  -18.8150 C.2   135  GLN135      0.2608
     37  OE1        3.9220   -1.4950  -17.8090 O.2   135  GLN135     -0.2717
     38  NE2        3.0070   -0.6050  -19.6400 N.am  135  GLN135     -0.0878
     39  N          9.4540   -0.7250  -17.3590 N.am  136  TRP136     -0.1974
     40  CA        10.8100   -0.1730  -17.3570 C.3   136  TRP136      0.1640
     41  C         11.8220   -1.2140  -17.8200 C.2   136  TRP136      0.2290
     42  O         12.7000   -0.9140  -18.6180 O.2   136  TRP136     -0.2864
     43  CB        11.1850    0.3430  -15.9690 C.3   136  TRP136      0.0576
     44  CG        12.6490    0.7550  -15.8090 C.ar  136  TRP136      0.0006
     45  CD1       13.5630    0.1820  -14.9830 C.ar  136  TRP136      0.0946
     46  CD2       13.3350    1.8250  -16.4790 C.ar  136  TRP136      0.0152
     47  NE1       14.7770    0.8180  -15.0930 N.ar  136  TRP136     -0.2442
     48  CE2       14.6650    1.8280  -16.0070 C.ar  136  TRP136      0.0810
     49  CE3       12.9630    2.7680  -17.4450 C.ar  136  TRP136      0.0012
     50  CZ2       15.6150    2.7360  -16.4630 C.ar  136  TRP136      0.0191
     51  CZ3       13.9050    3.6720  -17.8910 C.ar  136  TRP136      0.0001
     52  CH2       15.2180    3.6550  -17.3960 C.ar  136  TRP136      0.0015
     53  N          4.2500    7.4790  -10.0510 N.3   242  GLY242     -0.1225
     54  CA         4.9350    6.3270   -9.5030 C.3   242  GLY242      0.1811
     55  C          6.0800    6.9000   -8.7010 C.2   242  GLY242      0.2280
     56  O          5.9970    7.0140   -7.4760 O.2   242  GLY242     -0.2866
     57  N         -0.1460   -1.0190   -9.7040 N.3   316  GLY316     -0.1210
     58  CA         1.1120   -0.4980  -10.2080 C.3   316  GLY316      0.1956
     59  C          1.9050    0.4220   -9.2920 C.2   316  GLY316      0.2612
     60  O          2.6810   -0.0640   -8.4700 O.2   316  GLY316     -0.2717
     61  N          1.7220    1.7320   -9.4520 N.am  317  LEU317     -0.1965
     62  CA         2.4690    2.7920   -8.7450 C.3   317  LEU317      0.1728
     63  C          3.0010    2.4140   -7.3540 C.2   317  LEU317      0.2616
     64  O          2.5610    2.9680   -6.3400 O.2   317  LEU317     -0.2715
     65  CB         1.5750    4.0270   -8.6240 C.3   317  LEU317      0.0311
     66  CG         0.6870    4.2810   -9.8510 C.3   317  LEU317      0.0022
     67  CD1       -0.2630    5.4320   -9.6430 C.3   317  LEU317      0.0001
     68  CD2        1.5330    4.5430  -11.0900 C.3   317  LEU317      0.0001
     69  N          3.9530    1.4840   -7.3120 N.am  318  ARG318     -0.1963
     70  CA         4.3820    0.8770   -6.0460 C.3   318  ARG318      0.1729
     71  C          5.5150    1.6090   -5.3290 C.2   318  ARG318      0.2616
     72  O          5.7210    1.3860   -4.1320 O.2   318  ARG318     -0.2715
     73  CB         4.7960   -0.5860   -6.2710 C.3   318  ARG318      0.0348
     74  CG         3.6380   -1.5830   -6.2870 C.3   318  ARG318      0.0492
     75  CD         4.1110   -3.0070   -6.5700 C.3   318  ARG318      0.2205
     76  NE         4.5770   -3.1730   -7.9490 N.pl3 318  ARG318     -0.0865
     77  CZ         5.0470   -4.3130   -8.4530 C.cat 318  ARG318      0.5346
     78  NH1        5.1200   -5.3980   -7.6900 N.pl3 318  ARG318      0.1354
     79  NH2        5.4460   -4.3730   -9.7210 N.pl3 318  ARG318      0.1354
     80  N          6.2520    2.4720   -6.0330 N.am  319  TYR319     -0.1974
     81  CA         7.4110    3.1150   -5.4140 C.3   319  TYR319      0.1639
     82  C          6.9910    3.9540   -4.2050 C.2   319  TYR319      0.2290
     83  O          5.8780    4.4740   -4.1410 O.2   319  TYR319     -0.2864
     84  CB         8.1930    3.9790   -6.4150 C.3   319  TYR319      0.0560
     85  CG         9.5590    4.3810   -5.8820 C.ar  319  TYR319     -0.0198
     86  CD1       10.5210    3.4210   -5.6160 C.ar  319  TYR319     -0.0009
     87  CD2        9.8820    5.7140   -5.6420 C.ar  319  TYR319     -0.0009
     88  CE1       11.7750    3.7670   -5.1160 C.ar  319  TYR319      0.0417
     89  CE2       11.1410    6.0770   -5.1440 C.ar  319  TYR319      0.0417
     90  CZ        12.0790    5.0920   -4.8830 C.ar  319  TYR319      0.1957
     91  OH        13.3300    5.4200   -4.3820 O.3   319  TYR319     -0.2866
     92  N         -1.4520    1.5590  -14.0370 N.3   363  GLU363     -0.1245
     93  CA        -0.8880    2.8250  -13.5540 C.3   363  GLU363      0.1567
     94  C         -1.6850    4.0470  -14.0450 C.2   363  GLU363      0.2260
     95  O         -2.1730    4.8410  -13.2390 O.2   363  GLU363     -0.2867
     96  CB         0.5770    2.9680  -13.9750 C.3   363  GLU363      0.0388
     97  CG         1.5230    1.9240  -13.3900 C.3   363  GLU363      0.1160
     98  CD         1.4820    0.5780  -14.1100 C.2   363  GLU363      0.3649
     99  OE1        0.6260    0.3860  -15.0020 O.co2 363  GLU363     -0.2457
    100  OE2        2.3260   -0.2880  -13.7870 O.co2 363  GLU363     -0.2457
@<TRIPOS>BOND
     1     3     4    2
     2     3     2    1
     3     1     2    1
     4     2     5    1
     5    38    36   am
     6    33    32    2
     7     5     6    1
     8    35    36    1
     9    35    34    1
    10    36    37    2
    11    42    41    2
    12    29    28    2
    13    32    31    1
    14    32    39   am
    15    31    34    1
    16    31    30    1
    17     6     7    1
    18    51    49   ar
    19    51    52   ar
    20    41    40    1
    21    28    30   am
    22    28    27    1
    23    49    46   ar
    24    52    50   ar
    25    39    40    1
    26    40    43    1
    27     7     8    1
    28    46    48   ar
    29    46    44   ar
    30    50    48   ar
    31    27    26    1
    32    48    47   ar
    33    43    44    1
    34     9     8    1
    35    24    23    2
    36    44    45   ar
    37    26    23   am
    38    47    45   ar
    39    23    22    1
    40    99    98   ar
    41    15    14    1
    42    25    22    1
    43    16    14    1
    44    14    11    1
    45    98   100   ar
    46    98    97    1
    47    94    93    1
    48    94    95    2
    49    92    93    1
    50    96    93    1
    51    96    97    1
    52    22    21    1
    53    21    19   am
    54    11    10    1
    55    11    12    1
    56    20    19    2
    57    19    18    1
    58    17    12   am
    59    17    18    1
    60    12    13    2
    61    68    66    1
    62    58    57    1
    63    58    59    1
    64    53    54    1
    65    66    67    1
    66    66    65    1
    67    79    77    1
    68    54    55    1
    69    61    59   am
    70    61    62    1
    71    59    60    2
    72    62    65    1
    73    62    63    1
    74    55    56    2
    75    77    76    2
    76    77    78    1
    77    76    75    1
    78    63    69   am
    79    63    64    2
    80    69    70    1
    81    75    74    1
    82    84    85    1
    83    84    81    1
    84    74    73    1
    85    73    70    1
    86    70    71    1
    87    80    81    1
    88    80    71   am
    89    85    87   ar
    90    85    86   ar
    91    87    89   ar
    92    86    88   ar
    93    81    82    1
    94    71    72    2
    95    89    90   ar
    96    88    90   ar
    97    90    91    1
    98    82    83    2
