@<TRIPOS>MOLECULE
tmp/4qysA00.pdb
 144 135 0 0 0
SMALL
GASTEIGER

@<TRIPOS>ATOM
      1  N         -4.6490   -4.2060  -32.1670 N.3    98  GLY98      -0.1210
      2  CA        -3.3390   -4.6930  -32.5830 C.3    98  GLY98       0.1956
      3  C         -3.3330   -5.5650  -33.8200 C.2    98  GLY98       0.2613
      4  O         -2.4490   -6.4070  -33.9950 O.2    98  GLY98      -0.2717
      5  N         -4.3280   -5.3920  -34.6770 N.am   99  SER99      -0.1938
      6  CA        -4.3830   -6.1860  -35.8850 C.3    99  SER99       0.2055
      7  C         -5.4100   -5.6400  -36.8630 C.2    99  SER99       0.2643
      8  O         -6.2180   -4.7840  -36.5290 O.2    99  SER99      -0.2714
      9  CB        -4.6670   -7.6560  -35.5500 C.3    99  SER99       0.2130
     10  OG        -6.0060   -8.0070  -35.8220 O.3    99  SER99      -0.2179
     11  N         -5.3420   -6.1430  -38.0870 N.am  100  HIS100     -0.1959
     12  CA        -6.1980   -5.7080  -39.1770 C.3   100  HIS100      0.1787
     13  C         -7.6550   -6.1530  -39.0400 C.2   100  HIS100      0.2620
     14  O         -8.5010   -5.7000  -39.7970 O.2   100  HIS100     -0.2715
     15  CB        -5.6460   -6.2580  -40.4940 C.3   100  HIS100      0.0785
     16  CG        -5.7410   -7.7450  -40.5700 C.ar  100  HIS100      0.0821
     17  ND1       -4.9830   -8.5700  -39.7690 N.ar  100  HIS100     -0.2267
     18  CD2       -6.5620   -8.5550  -41.2760 C.ar  100  HIS100      0.1154
     19  CE1       -5.3120   -9.8270  -40.0020 C.ar  100  HIS100      0.1986
     20  NE2       -6.2650   -9.8470  -40.9140 N.ar  100  HIS100     -0.2212
     21  N         -7.9450   -7.0630  -38.1150 N.am  101  LYS101     -0.1977
     22  CA        -9.2750   -7.6880  -38.0540 C.3   101  LYS101      0.1596
     23  C        -10.3930   -6.7070  -37.6790 C.2   101  LYS101      0.2287
     24  O        -11.5260   -6.8810  -38.1020 O.2   101  LYS101     -0.2864
     25  CB        -9.2670   -8.8590  -37.0730 C.3   101  LYS101      0.0298
     26  CG        -8.4750  -10.0890  -37.5570 C.3   101  LYS101      0.0038
     27  CD        -8.6820  -11.2270  -36.5890 C.3   101  LYS101      0.0206
     28  CE        -7.7600  -12.3600  -36.8950 C.3   101  LYS101      0.1093
     29  NZ        -6.4190  -11.8930  -36.5010 N.3   101  LYS101     -0.1314
     30  N         -8.3560  -13.5950  -31.3060 N.3   128  GLN128     -0.1245
     31  CA        -8.0840  -12.4450  -32.1900 C.3   128  GLN128      0.1566
     32  C         -9.3510  -11.8300  -32.7450 C.2   128  GLN128      0.2260
     33  O         -9.5150  -10.6120  -32.7780 O.2   128  GLN128     -0.2867
     34  CB        -7.2080  -12.8540  -33.3770 C.3   128  GLN128      0.0367
     35  CG        -5.7520  -13.1100  -33.0570 C.3   128  GLN128      0.0905
     36  CD        -5.5480  -14.4550  -32.4050 C.2   128  GLN128      0.2608
     37  OE1       -6.4920  -15.2430  -32.2680 O.2   128  GLN128     -0.2717
     38  NE2       -4.3140  -14.7330  -31.9950 N.am  128  GLN128     -0.0878
     39  N         -6.6920  -12.6050  -23.9000 N.3   159  ARG159     -0.1245
     40  CA        -7.5860  -12.0700  -24.9130 C.3   159  ARG159      0.1563
     41  C         -9.0390  -12.1930  -24.4670 C.2   159  ARG159      0.2260
     42  O         -9.8790  -11.3600  -24.8370 O.2   159  ARG159     -0.2867
     43  CB        -7.3570  -12.7460  -26.2630 C.3   159  ARG159      0.0307
     44  CG        -6.3730  -11.9410  -27.1220 C.3   159  ARG159      0.0489
     45  CD        -6.2590  -12.4730  -28.5370 C.3   159  ARG159      0.2205
     46  NE        -5.3690  -11.6460  -29.3500 N.pl3 159  ARG159     -0.0865
     47  CZ        -4.1060  -11.9600  -29.6290 C.cat 159  ARG159      0.5346
     48  NH1       -3.5840  -13.0870  -29.1580 N.pl3 159  ARG159      0.1354
     49  NH2       -3.3670  -11.1560  -30.3900 N.pl3 159  ARG159      0.1354
     50  N        -13.4500  -16.0320  -44.9240 N.3   218  VAL218     -0.1245
     51  CA       -12.7540  -15.6180  -46.1300 C.3   218  VAL218      0.1561
     52  C        -13.7550  -15.1990  -47.1890 C.2   218  VAL218      0.2260
     53  O        -13.4440  -15.1810  -48.3880 O.2   218  VAL218     -0.2867
     54  CB       -11.8500  -16.7460  -46.6620 C.3   218  VAL218      0.0252
     55  CG1      -10.9530  -17.2550  -45.5410 C.3   218  VAL218      0.0019
     56  CG2      -12.6900  -17.8860  -47.2120 C.3   218  VAL218      0.0019
     57  N        -11.6020   -4.9730  -45.3070 N.3   226  LYS226     -0.1245
     58  CA       -10.2360   -4.7860  -44.8160 C.3   226  LYS226      0.1561
     59  C         -9.3660   -3.9730  -45.7790 C.2   226  LYS226      0.2260
     60  O         -8.3050   -3.4870  -45.4020 O.2   226  LYS226     -0.2867
     61  CB        -9.6020   -6.1460  -44.5190 C.3   226  LYS226      0.0271
     62  CG       -10.2150   -6.7680  -43.2550 C.3   226  LYS226      0.0035
     63  CD        -9.7680   -8.1870  -43.0410 C.3   226  LYS226      0.0206
     64  CE       -10.3970   -8.7870  -41.7900 C.3   226  LYS226      0.1093
     65  NZ       -10.6030  -10.2470  -41.9850 N.3   226  LYS226     -0.1314
     66  N          1.3260  -12.4080  -45.0680 N.3   250  VAL250     -0.1245
     67  CA         1.0290  -13.7870  -44.7320 C.3   250  VAL250      0.1561
     68  C         -0.4490  -14.1450  -44.9300 C.2   250  VAL250      0.2260
     69  O         -1.3230  -13.2710  -44.9750 O.2   250  VAL250     -0.2867
     70  CB         1.4170  -14.0820  -43.3010 C.3   250  VAL250      0.0252
     71  CG1        2.8780  -13.6530  -43.0590 C.3   250  VAL250      0.0019
     72  CG2        0.4980  -13.3380  -42.3890 C.3   250  VAL250      0.0019
     73  N         -3.4640  -16.3250  -43.3190 N.3   252  GLY252     -0.1210
     74  CA        -4.2490  -17.1620  -42.4330 C.3   252  GLY252      0.1956
     75  C         -5.3150  -17.7040  -43.3610 C.2   252  GLY252      0.2612
     76  O         -5.2240  -18.8350  -43.8280 O.2   252  GLY252     -0.2717
     77  N         -6.3100  -16.8740  -43.6410 N.am  253  GLY253     -0.1942
     78  CA        -7.2650  -17.1190  -44.7090 C.3   253  GLY253      0.2014
     79  C         -6.8940  -16.2560  -45.9100 C.2   253  GLY253      0.2639
     80  O         -7.3630  -16.4800  -47.0240 O.2   253  GLY253     -0.2714
     81  N         -6.0340  -15.2610  -45.6910 N.am  254  GLY254     -0.1939
     82  CA        -5.6060  -14.4110  -46.7870 C.3   254  GLY254      0.2014
     83  C         -6.1590  -12.9850  -46.7780 C.2   254  GLY254      0.2640
     84  O         -5.7030  -12.1410  -47.5450 O.2   254  GLY254     -0.2714
     85  N         -7.1050  -12.7050  -45.8870 N.am  255  SER255     -0.1935
     86  CA        -7.7820  -11.4030  -45.8720 C.3   255  SER255      0.2055
     87  C         -6.8330  -10.2280  -45.6160 C.2   255  SER255      0.2643
     88  O         -6.9700   -9.1730  -46.2450 O.2   255  SER255     -0.2714
     89  CB        -8.9190  -11.3980  -44.8330 C.3   255  SER255      0.2130
     90  OG        -8.4680  -11.0330  -43.5330 O.3   255  SER255     -0.2179
     91  N         -5.8780  -10.3830  -44.7060 N.am  256  ASN256     -0.1971
     92  CA        -4.9740   -9.2680  -44.4540 C.3   256  ASN256      0.1688
     93  C         -4.0960   -8.9720  -45.6460 C.2   256  ASN256      0.2292
     94  O         -3.7870   -7.8030  -45.9110 O.2   256  ASN256     -0.2864
     95  CB        -4.0870   -9.5210  -43.2370 C.3   256  ASN256      0.1181
     96  CG        -2.8420  -10.3040  -43.5770 C.2   256  ASN256      0.2629
     97  OD1       -2.8590  -11.5370  -43.5830 O.2   256  ASN256     -0.2716
     98  ND2       -1.7530   -9.5990  -43.8710 N.am  256  ASN256     -0.0877
     99  N          0.2510  -19.8600  -35.4760 N.3   326  GLY326     -0.1210
    100  CA        -0.9770  -19.0920  -35.5440 C.3   326  GLY326      0.1956
    101  C         -1.7100  -19.0540  -36.8790 C.2   326  GLY326      0.2611
    102  O         -2.8240  -18.5190  -36.9550 O.2   326  GLY326     -0.2717
    103  N         -1.1170  -19.6060  -37.9360 N.am  327  LEU327     -0.1979
    104  CA        -1.7990  -19.5970  -39.2310 C.3   327  LEU327      0.1596
    105  C         -2.5440  -20.9190  -39.4770 C.2   327  LEU327      0.2287
    106  O         -2.3360  -21.5870  -40.4850 O.2   327  LEU327     -0.2864
    107  CB        -0.7950  -19.3030  -40.3610 C.3   327  LEU327      0.0297
    108  CG        -0.2460  -17.8650  -40.2990 C.3   327  LEU327      0.0022
    109  CD1        0.7580  -17.5970  -41.4420 C.3   327  LEU327      0.0001
    110  CD2       -1.3750  -16.8220  -40.3240 C.3   327  LEU327      0.0001
    111  N          3.5000  -10.0650  -34.5390 N.3   371  ALA371     -0.1245
    112  CA         2.6940  -11.2420  -34.2740 C.3   371  ALA371      0.1562
    113  C          3.3710  -12.4670  -34.8810 C.2   371  ALA371      0.2260
    114  O          4.0560  -12.3610  -35.8980 O.2   371  ALA371     -0.2867
    115  CB         1.2660  -11.0590  -34.8400 C.3   371  ALA371      0.0290
    116  N          1.9210  -14.7630  -36.4470 N.3   373  GLU373     -0.1245
    117  CA         1.3700  -14.8500  -37.7890 C.3   373  GLU373      0.1567
    118  C          2.2070  -14.0020  -38.7540 C.2   373  GLU373      0.2260
    119  O          2.6970  -14.4920  -39.7750 O.2   373  GLU373     -0.2867
    120  CB        -0.0950  -14.3860  -37.8060 C.3   373  GLU373      0.0388
    121  CG        -1.0750  -15.3490  -37.1140 C.3   373  GLU373      0.1160
    122  CD        -1.2200  -15.1320  -35.5940 C.2   373  GLU373      0.3649
    123  OE1       -0.3660  -14.4480  -34.9930 O.co2 373  GLU373     -0.2457
    124  OE2       -2.2030  -15.6490  -35.0040 O.co2 373  GLU373     -0.2457
    125  N          0.7250   -7.3130  -40.0620 N.3   402  SER402     -0.1202
    126  CA        -0.6900   -7.5260  -39.7930 C.3   402  SER402      0.2020
    127  C         -1.0230   -7.3650  -38.3170 C.2   402  SER402      0.2619
    128  O         -2.1440   -7.0450  -37.9710 O.2   402  SER402     -0.2717
    129  CB        -1.1140   -8.9030  -40.3070 C.3   402  SER402      0.2103
    130  OG        -0.3100   -9.9170  -39.7270 O.3   402  SER402     -0.2182
    131  N         -0.0330   -7.5180  -37.4470 N.am  403  GLY403     -0.1942
    132  CA        -0.2890   -7.3650  -36.0220 C.3   403  GLY403      0.2014
    133  C          0.9650   -7.3760  -35.1600 C.2   403  GLY403      0.2638
    134  O          2.0620   -7.7320  -35.6160 O.2   403  GLY403     -0.2714
    135  N          0.8230   -7.0030  -33.8930 N.am  404  HIS404     -0.1973
    136  CA         1.9690   -7.1320  -33.0030 C.3   404  HIS404      0.1656
    137  C          1.7900   -8.3780  -32.1640 C.2   404  HIS404      0.2291
    138  O          0.7110   -8.9890  -32.1580 O.2   404  HIS404     -0.2864
    139  CB         2.1420   -5.8880  -32.1270 C.3   404  HIS404      0.0771
    140  CG         0.9800   -5.6170  -31.2310 C.ar  404  HIS404      0.0820
    141  ND1        0.5800   -6.4920  -30.2470 N.ar  404  HIS404     -0.2267
    142  CD2        0.1360   -4.5600  -31.1680 C.ar  404  HIS404      0.1154
    143  CE1       -0.4620   -5.9840  -29.6070 C.ar  404  HIS404      0.1986
    144  NE2       -0.7480   -4.8140  -30.1430 N.ar  404  HIS404     -0.2212
@<TRIPOS>BOND
     1    53    52    2
     2    84    83    2
     3    56    54    1
     4    52    51    1
     5    80    79    2
     6    82    83    1
     7    82    81    1
     8    83    85   am
     9    54    51    1
    10    54    55    1
    11    88    87    2
    12    51    50    1
    13    94    93    2
    14    79    81   am
    15    79    78    1
    16    85    86    1
    17    86    87    1
    18    86    89    1
    19    59    60    2
    20    59    58    1
    21    93    92    1
    22    87    91   am
    23    57    58    1
    24    66    67    1
    25    69    68    2
    26    68    67    1
    27    89    90    1
    28    58    61    1
    29    67    70    1
    30    78    77    1
    31    91    92    1
    32    61    62    1
    33    92    95    1
    34    98    96   am
    35    76    75    2
    36    77    75   am
    37    97    96    2
    38    96    95    1
    39    75    74    1
    40    73    74    1
    41    70    71    1
    42    70    72    1
    43    62    63    1
    44    63    64    1
    45    65    64    1
    46   109   108    1
    47    18    20   ar
    48    18    16   ar
    49    20    19   ar
    50    16    15    1
    51    16    17   ar
    52    15    12    1
    53   106   105    2
    54   107   108    1
    55   107   104    1
    56   110   108    1
    57   129   126    1
    58   129   130    1
    59   125   126    1
    60    19    17   ar
    61    14    13    2
    62   126   127    1
    63   119   118    2
    64   105   104    1
    65   104   103    1
    66    12    13    1
    67    12    11    1
    68    13    21   am
    69   118   117    1
    70   127   128    2
    71   127   131   am
    72    21    22    1
    73    24    23    2
    74    11     7   am
    75    22    23    1
    76    22    25    1
    77   103   101   am
    78   120   117    1
    79   120   121    1
    80   117   116    1
    81    26    25    1
    82    26    27    1
    83   131   132    1
    84   121   122    1
    85   102   101    2
    86    28    27    1
    87    28    29    1
    88   101   100    1
    89     7     8    2
    90     7     6    1
    91   132   133    1
    92   114   113    2
    93     6     9    1
    94     6     5    1
    95    10     9    1
    96   134   133    2
    97   122   124   ar
    98   122   123   ar
    99   100    99    1
   100   133   135   am
   101   113   112    1
   102   115   112    1
   103     5     3   am
   104   111   112    1
   105     4     3    2
   106   135   136    1
   107     3     2    1
   108    34    35    1
   109    34    31    1
   110    35    36    1
   111   136   137    1
   112   136   139    1
   113    33    32    2
   114    32    31    1
   115     2     1    1
   116    36    37    2
   117    36    38   am
   118    31    30    1
   119   137   138    2
   120   139   140    1
   121   140   142   ar
   122   140   141   ar
   123   142   144   ar
   124    49    47    1
   125   141   143   ar
   126   144   143   ar
   127    47    46    2
   128    47    48    1
   129    46    45    1
   130    45    44    1
   131    44    43    1
   132    43    40    1
   133    40    41    1
   134    40    39    1
   135    42    41    2
