@<TRIPOS>MOLECULE
tmp/4qyyA00.pdb
 197 185 0 0 0
SMALL
GASTEIGER

@<TRIPOS>ATOM
      1  N         41.7860    8.4030    4.3430 N.3    17  ILE17      -0.1245
      2  CA        42.3090    8.0550    5.6630 C.3    17  ILE17       0.1561
      3  C         41.4730    8.7820    6.7090 C.2    17  ILE17       0.2260
      4  O         40.9420    8.1550    7.6270 O.2    17  ILE17      -0.2867
      5  CB        43.8190    8.4150    5.7900 C.3    17  ILE17       0.0252
      6  CG1       44.6530    7.5550    4.8150 C.3    17  ILE17       0.0019
      7  CG2       44.3050    8.2360    7.2370 C.3    17  ILE17       0.0019
      8  CD1       46.1560    7.7930    4.8470 C.3    17  ILE17       0.0001
      9  N         40.3100   19.9960   10.5760 N.3    21  ALA21      -0.1231
     10  CA        40.2960   21.4470   10.3350 C.3    21  ALA21       0.1694
     11  C         41.2260   21.7870    9.1320 C.2    21  ALA21       0.2592
     12  O         40.8200   22.4980    8.2120 O.2    21  ALA21      -0.2718
     13  CB        40.7510   22.1880   11.5940 C.3    21  ALA21       0.0304
     14  N         42.4410   21.2110    9.1370 N.am   22  TYR22      -0.1976
     15  CA        43.4470   21.3740    8.0650 C.3    22  TYR22       0.1639
     16  C         42.9750   21.0300    6.6470 C.2    22  TYR22       0.2290
     17  O         43.4830   21.6120    5.6900 O.2    22  TYR22      -0.2864
     18  CB        44.6880   20.5180    8.3640 C.3    22  TYR22       0.0560
     19  CG        44.3970   19.0340    8.3250 C.ar   22  TYR22      -0.0198
     20  CD1       43.9620   18.3590    9.4580 C.ar   22  TYR22      -0.0009
     21  CD2       44.4940   18.3170    7.1400 C.ar   22  TYR22      -0.0009
     22  CE1       43.6490   17.0060    9.4190 C.ar   22  TYR22       0.0417
     23  CE2       44.1560   16.9700    7.0810 C.ar   22  TYR22       0.0417
     24  CZ        43.7350   16.3160    8.2250 C.ar   22  TYR22       0.1957
     25  OH        43.3940   14.9850    8.1800 O.3    22  TYR22      -0.2866
     26  N         43.2190   13.9070    4.2290 N.3    25  VAL25      -0.1245
     27  CA        44.4010   13.0860    3.9230 C.3    25  VAL25       0.1561
     28  C         43.9610   11.7570    3.3140 C.2    25  VAL25       0.2260
     29  O         43.0130   11.1460    3.8060 O.2    25  VAL25      -0.2867
     30  CB        45.2960   12.8230    5.1610 C.3    25  VAL25       0.0252
     31  CG1       46.6790   12.3140    4.7580 C.3    25  VAL25       0.0019
     32  CG2       45.4340   14.0680    5.9840 C.3    25  VAL25       0.0019
     33  N         51.3670    9.3160    2.0270 N.3    38  ALA38      -0.1245
     34  CA        50.2070   10.0490    2.5310 C.3    38  ALA38       0.1562
     35  C         50.1920   11.3600    1.7780 C.2    38  ALA38       0.2260
     36  O         51.2560   11.8940    1.4830 O.2    38  ALA38      -0.2867
     37  CB        50.3370   10.3290    4.0340 C.3    38  ALA38       0.0290
     38  N         47.9950   15.1100    1.8250 N.3    40  LYS40      -0.1245
     39  CA        46.9760   15.9150    2.4660 C.3    40  LYS40       0.1561
     40  C         46.7120   17.1360    1.6120 C.2    40  LYS40       0.2260
     41  O         47.6650   17.7540    1.1440 O.2    40  LYS40      -0.2867
     42  CB        47.3400   16.2930    3.8960 C.3    40  LYS40       0.0271
     43  CG        48.5450   17.1630    4.0510 C.3    40  LYS40       0.0035
     44  CD        48.9930   17.1770    5.5120 C.3    40  LYS40       0.0206
     45  CE        50.3590   17.7450    5.6080 C.3    40  LYS40       0.1093
     46  NZ        50.9290   17.6500    6.9650 N.3    40  LYS40      -0.1314
     47  N         45.3590   20.8800    1.4110 N.3    42  ILE42      -0.1227
     48  CA        45.1590   22.0480    2.2600 C.3    42  ILE42       0.1732
     49  C         44.6020   23.1600    1.3790 C.2    42  ILE42       0.2596
     50  O         45.1510   23.3930    0.3110 O.2    42  ILE42      -0.2718
     51  CB        46.4770   22.4820    2.9360 C.3    42  ILE42       0.0485
     52  CG1       47.2150   21.2440    3.5540 C.2    42  ILE42      -0.0245
     53  CG2       46.1910   23.5660    3.9820 C.3    42  ILE42       0.0067
     54  CD1       48.3440   21.5070    4.1310 C.2    42  ILE42      -0.0049
     55  N         43.5670   23.8790    1.8430 N.am   43  SER43      -0.1938
     56  CA        42.9270   24.9730    1.0880 C.3    43  SER43       0.2040
     57  C         42.8590   26.1970    2.0080 C.2    43  SER43       0.2485
     58  O         41.7900   26.5500    2.5210 O.2    43  SER43      -0.2729
     59  CB        41.5420   24.5340    0.6210 C.3    43  SER43       0.2129
     60  OG        41.6690   23.2830   -0.0360 O.3    43  SER43      -0.2179
     61  N         44.0100   26.8540    2.2330 N.am   44  PRO44      -0.2726
     62  CA        44.0980   27.8810    3.2560 C.3    44  PRO44       0.1402
     63  C         44.0380   29.3400    2.8610 C.2    44  PRO44       0.2269
     64  O         44.0930   30.1840    3.7440 O.2    44  PRO44      -0.2865
     65  CB        45.4960   27.6100    3.8040 C.3    44  PRO44       0.0296
     66  CG        46.2960   27.3410    2.5490 C.3    44  PRO44       0.0237
     67  CD        45.3390   26.6420    1.6090 C.3    44  PRO44       0.0939
     68  N         44.9010   30.4890    8.5180 N.3    50  TYR50      -0.1241
     69  CA        45.1370   29.2120    7.8310 C.3    50  TYR50       0.1605
     70  C         46.4460   29.2890    7.0420 C.2    50  TYR50       0.2264
     71  O         47.1680   28.2940    6.9730 O.2    50  TYR50      -0.2867
     72  CB        43.9920   28.8320    6.8730 C.3    50  TYR50       0.0534
     73  CG        42.5740   28.8560    7.4160 C.ar   50  TYR50      -0.0201
     74  CD1       42.3250   28.8810    8.7830 C.ar   50  TYR50      -0.0009
     75  CD2       41.4820   28.8680    6.5570 C.ar   50  TYR50      -0.0009
     76  CE1       41.0200   28.9280    9.2810 C.ar   50  TYR50       0.0417
     77  CE2       40.1760   28.8930    7.0430 C.ar   50  TYR50       0.0417
     78  CZ        39.9480   28.9320    8.4070 C.ar   50  TYR50       0.1957
     79  OH        38.6620   28.9820    8.9090 O.3    50  TYR50      -0.2866
     80  N         49.4660   28.9340    9.5130 N.3    53  ARG53      -0.1231
     81  CA        49.6740   27.5450    9.9180 C.3    53  ARG53       0.1694
     82  C         50.2590   26.6940    8.7880 C.2    53  ARG53       0.2592
     83  O         51.0750   25.8140    9.0350 O.2    53  ARG53      -0.2718
     84  CB        48.3790   26.9330   10.4310 C.3    53  ARG53       0.0321
     85  CG        47.8970   27.6040   11.7070 C.3    53  ARG53       0.0489
     86  CD        46.6410   26.9780   12.2360 C.3    53  ARG53       0.2205
     87  NE        46.1050   27.7770   13.3350 N.pl3  53  ARG53      -0.0865
     88  CZ        44.9160   27.5890   13.8970 C.cat  53  ARG53       0.5346
     89  NH1       44.1240   26.6030   13.4870 N.pl3  53  ARG53       0.1354
     90  NH2       44.5110   28.3790   14.8810 N.pl3  53  ARG53       0.1354
     91  N         49.8900   26.9900    7.5380 N.am   54  THR54      -0.1953
     92  CA        50.4060   26.2570    6.3910 C.3    54  THR54       0.1897
     93  C         51.8740   26.6090    6.1370 C.2    54  THR54       0.2313
     94  O         52.6610   25.7210    5.8220 O.2    54  THR54      -0.2863
     95  CB        49.5640   26.5640    5.1540 C.3    54  THR54       0.1794
     96  OG1       48.1930   26.2240    5.4010 O.3    54  THR54      -0.2208
     97  CG2       50.0410   25.8110    3.9290 C.3    54  THR54       0.0378
     98  N         54.0120   24.8930    8.8710 N.3    57  GLU57      -0.1245
     99  CA        54.1030   23.4480    8.6000 C.3    57  GLU57       0.1567
    100  C         55.1600   23.2010    7.5110 C.2    57  GLU57       0.2260
    101  O         56.0710   22.4110    7.6720 O.2    57  GLU57      -0.2867
    102  CB        52.7340   22.9050    8.1540 C.3    57  GLU57       0.0388
    103  CG        52.7310   21.4530    7.6660 C.3    57  GLU57       0.1160
    104  CD        52.6810   20.3620    8.7170 C.2    57  GLU57       0.3649
    105  OE1       52.8660   20.6590    9.9130 O.co2  57  GLU57      -0.2457
    106  OE2       52.5220   19.1850    8.3320 O.co2  57  GLU57      -0.2457
    107  N         58.0590   13.6570   11.1080 N.3    70  ILE70      -0.1245
    108  CA        57.5580   13.3440    9.7590 C.3    70  ILE70       0.1561
    109  C         58.1980   14.2890    8.7510 C.2    70  ILE70       0.2260
    110  O         58.3600   15.4540    9.0470 O.2    70  ILE70      -0.2867
    111  CB        56.0120   13.4410    9.7110 C.3    70  ILE70       0.0252
    112  CG1       55.4560   12.7490    8.4420 C.3    70  ILE70       0.0019
    113  CG2       55.5390   14.8970    9.7730 C.3    70  ILE70       0.0019
    114  CD1       55.6400   11.3020    8.3820 C.3    70  ILE70       0.0001
    115  N         53.7450   13.0520    2.3120 N.3    91  GLN91      -0.1231
    116  CA        54.5550   12.5880    3.4390 C.3    91  GLN91       0.1698
    117  C         54.5750   11.0670    3.5070 C.2    91  GLN91       0.2592
    118  O         53.7540   10.4070    2.8880 O.2    91  GLN91      -0.2718
    119  CB        53.9790   13.1650    4.7330 C.3    91  GLN91       0.0381
    120  CG        53.8550   14.6720    4.6860 C.3    91  GLN91       0.0905
    121  CD        53.3200   15.2310    5.9410 C.2    91  GLN91       0.2608
    122  OE1       52.1270   15.1720    6.1630 O.2    91  GLN91      -0.2717
    123  NE2       54.1560   15.8970    6.7300 N.am   91  GLN91      -0.0878
    124  N         55.5120   10.5030    4.2750 N.am   92  ASP92      -0.1960
    125  CA        55.5760    9.0490    4.4570 C.3    92  ASP92       0.1840
    126  C         54.2780    8.5790    5.0630 C.2    92  ASP92       0.2622
    127  O         53.7340    9.2670    5.9310 O.2    92  ASP92      -0.2715
    128  CB        56.7110    8.6550    5.4090 C.3    92  ASP92       0.1450
    129  CG        58.1120    8.8830    4.8950 C.2    92  ASP92       0.3671
    130  OD1       58.2850    9.0160    3.6520 O.co2  92  ASP92      -0.2456
    131  OD2       59.0450    8.9110    5.7270 O.co2  92  ASP92      -0.2456
    132  N         53.7610    7.4400    4.5970 N.am   93  LEU93      -0.1963
    133  CA        52.5210    6.8720    5.0960 C.3    93  LEU93       0.1728
    134  C         52.7740    6.1530    6.4160 C.2    93  LEU93       0.2616
    135  O         53.6710    5.3130    6.4780 O.2    93  LEU93      -0.2715
    136  CB        51.9410    5.8550    4.0870 C.3    93  LEU93       0.0311
    137  CG        50.5870    5.2440    4.4690 C.3    93  LEU93       0.0022
    138  CD1       49.5200    6.3130    4.6410 C.3    93  LEU93       0.0001
    139  CD2       50.1520    4.2270    3.4460 C.3    93  LEU93       0.0001
    140  N         51.9700    6.4390    7.4510 N.am   94  MET94      -0.1963
    141  CA        52.0730    5.7900    8.7610 C.3    94  MET94       0.1736
    142  C         50.7700    5.0270    9.0220 C.2    94  MET94       0.2616
    143  O         49.7150    5.4460    8.5540 O.2    94  MET94      -0.2715
    144  CB        52.3420    6.8260    9.8600 C.3    94  MET94       0.0427
    145  CG        53.6670    7.5700    9.6840 C.3    94  MET94       0.0599
    146  SD        55.1360    6.5130    9.8330 S.3    94  MET94      -0.1393
    147  CE        55.3970    6.5660   11.6560 C.3    94  MET94       0.0692
    148  N         50.8350    3.9180    9.7580 N.am   95  GLU95      -0.1963
    149  CA        49.6640    3.0580    9.9800 C.3    95  GLU95       0.1733
    150  C         48.6270    3.5750   10.9370 C.2    95  GLU95       0.2617
    151  O         47.4400    3.2870   10.7530 O.2    95  GLU95      -0.2715
    152  CB        50.0880    1.6570   10.4240 C.3    95  GLU95       0.0429
    153  CG        50.7550    0.8910    9.3030 C.3    95  GLU95       0.1163
    154  CD        51.2640   -0.4730    9.7100 C.2    95  GLU95       0.3649
    155  OE1       50.4700   -1.2620   10.2730 O.co2  95  GLU95      -0.2457
    156  OE2       52.4590   -0.7540    9.4660 O.co2  95  GLU95      -0.2457
    157  N         49.0400    4.2810   11.9990 N.am   96  THR96      -0.1951
    158  CA        48.0960    4.7650   12.9760 C.3    96  THR96       0.1897
    159  C         48.7380    5.9110   13.7620 C.2    96  THR96       0.2313
    160  O         49.7720    6.4370   13.3570 O.2    96  THR96      -0.2863
    161  CB        47.6440    3.5910   13.8870 C.3    96  THR96       0.1794
    162  OG1       46.5160    4.0120   14.6540 O.3    96  THR96      -0.2208
    163  CG2       48.7520    3.1010   14.8270 C.3    96  THR96       0.0378
    164  N         49.0660   13.5920   17.3910 N.3   140  ASN140     -0.1240
    165  CA        50.1760   14.1220   16.5860 C.3   140  ASN140      0.1653
    166  C         51.4280   13.2700   16.6810 C.2   140  ASN140      0.2266
    167  O         52.5170   13.7250   16.3130 O.2   140  ASN140     -0.2867
    168  CB        50.4590   15.5500   16.9670 C.3   140  ASN140      0.1155
    169  CG        49.3870   16.4950   16.4780 C.2   140  ASN140      0.2627
    170  OD1       48.6960   16.1970   15.5010 O.2   140  ASN140     -0.2716
    171  ND2       49.2770   17.6720   17.0730 N.am  140  ASN140     -0.0877
    172  N         52.5810    9.8560   15.1540 N.3   142  LEU142     -0.1245
    173  CA        52.2400    8.8210   14.1750 C.3   142  LEU142      0.1561
    174  C         53.0470    7.5840   14.4340 C.2   142  LEU142      0.2260
    175  O         54.2050    7.6990   14.8230 O.2   142  LEU142     -0.2867
    176  CB        52.5010    9.3340   12.7590 C.3   142  LEU142      0.0270
    177  CG        51.8240   10.6670   12.3880 C.3   142  LEU142      0.0019
    178  CD1       52.2680   11.1360   11.0700 C.3   142  LEU142      0.0001
    179  CD2       50.3230   10.5470   12.4610 C.3   142  LEU142      0.0001
    180  N         54.2450   14.8600   14.2420 N.3   152  CYS152     -0.1221
    181  CA        53.6640   15.6110   13.1400 C.3   152  CYS152      0.1808
    182  C         52.9250   16.8520   13.6420 C.2   152  CYS152      0.2601
    183  O         52.8580   17.1150   14.8390 O.2   152  CYS152     -0.2717
    184  CB        52.7750   14.7290   12.2770 C.3   152  CYS152      0.0970
    185  SG        51.1810   14.3180   13.0100 S.3   152  CYS152     -0.0800
    186  N         52.4840   17.6680   12.6780 N.am  153  ASP153     -0.1973
    187  CA        51.6760   18.8740   12.8780 C.3   153  ASP153      0.1709
    188  C         52.4280   20.0170   13.5350 C.2   153  ASP153      0.2293
    189  O         52.3480   20.2140   14.7470 O.2   153  ASP153     -0.2864
    190  CB        50.3630   18.5990   13.6150 C.3   153  ASP153      0.1436
    191  CG        49.3500   19.7120   13.3380 C.2   153  ASP153      0.3671
    192  OD1       49.7610   20.7710   12.8390 O.co2 153  ASP153     -0.2456
    193  OD2       48.1360   19.5040   13.5950 O.co2 153  ASP153     -0.2456
    194  N         51.7410   23.2050   12.6780 N.3   155  GLY155     -0.1225
    195  CA        50.9290   24.3780   12.3830 C.3   155  GLY155      0.1811
    196  C         50.9690   25.4750   13.4400 C.2   155  GLY155      0.2280
    197  O         50.7540   26.6470   13.1120 O.2   155  GLY155     -0.2866
@<TRIPOS>BOND
     1    60    59    1
     2    50    49    2
     3    59    56    1
     4    56    55    1
     5    56    57    1
     6    41    40    2
     7    49    55   am
     8    49    48    1
     9    47    48    1
    10    36    35    2
    11    67    61    1
    12    67    66    1
    13    40    39    1
    14    35    34    1
    15    38    39    1
    16    57    61   am
    17    57    58    2
    18    33    34    1
    19    61    62    1
    20    48    51    1
    21   115   116    1
    22    39    42    1
    23    34    37    1
    24    66    65    1
    25    63    62    1
    26    63    64    2
    27   118   117    2
    28    51    52    1
    29    51    53    1
    30    62    65    1
    31    28    29    2
    32    28    27    1
    33   116   117    1
    34   116   119    1
    35   139   137    1
    36   117   124   am
    37    52    54    2
    38   130   129   ar
    39    42    43    1
    40    27    26    1
    41    27    30    1
    42    97    95    1
    43    43    44    1
    44   136   137    1
    45   136   133    1
    46   124   125    1
    47     1     2    1
    48   125   126    1
    49   125   128    1
    50   137   138    1
    51   132   126   am
    52   132   133    1
    53   120   119    1
    54   120   121    1
    55    31    30    1
    56     6     8    1
    57     6     5    1
    58   129   128    1
    59   129   131   ar
    60   126   127    2
    61   133   134    1
    62    95    96    1
    63    95    92    1
    64    30    32    1
    65    44    45    1
    66    45    46    1
    67     2     5    1
    68     2     3    1
    69    17    16    2
    70     5     7    1
    71    94    93    2
    72   121   122    2
    73   121   123   am
    74    93    92    1
    75    92    91    1
    76   134   135    2
    77   134   140   am
    78    75    77   ar
    79    75    73   ar
    80    16    15    1
    81     3     4    2
    82    72    73    1
    83    72    69    1
    84    71    70    2
    85    70    69    1
    86    77    78   ar
    87    23    21   ar
    88    23    24   ar
    89    21    19   ar
    90    73    74   ar
    91   140   141    1
    92   100   101    2
    93   100    99    1
    94    91    82   am
    95   103   102    1
    96   103   104    1
    97    69    68    1
    98    15    18    1
    99    15    14    1
   100   102    99    1
   101    25    24    1
   102    12    11    2
   103    24    22   ar
   104    19    18    1
   105    19    20   ar
   106   106   104   ar
   107   114   112    1
   108    78    79    1
   109    78    76   ar
   110   112   111    1
   111   143   142    2
   112    99    98    1
   113   104   105   ar
   114   109   110    2
   115   109   108    1
   116   141   142    1
   117   141   144    1
   118    74    76   ar
   119    82    83    2
   120    82    81    1
   121   142   148   am
   122    11    14   am
   123    11    10    1
   124   153   154    1
   125   153   152    1
   126    22    20   ar
   127   156   154   ar
   128    80    81    1
   129   145   146    1
   130   145   144    1
   131   154   155   ar
   132   111   108    1
   133   111   113    1
   134   148   149    1
   135   108   107    1
   136   146   147    1
   137    81    84    1
   138   149   152    1
   139   149   150    1
   140    10     9    1
   141    10    13    1
   142    84    85    1
   143   151   150    2
   144   150   157   am
   145   178   177    1
   146    85    86    1
   147   157   158    1
   148    86    87    1
   149   184   185    1
   150   184   181    1
   151   195   194    1
   152   195   196    1
   153   177   179    1
   154   177   176    1
   155   186   187    1
   156   186   182   am
   157   176   173    1
   158   192   191   ar
   159   187   188    1
   160   187   190    1
   161   158   159    1
   162   158   161    1
   163   197   196    2
   164   181   182    1
   165   181   180    1
   166    87    88    2
   167   191   193   ar
   168   191   190    1
   169   160   159    2
   170    89    88    1
   171   188   189    2
   172   182   183    2
   173   161   162    1
   174   161   163    1
   175    88    90    1
   176   173   174    1
   177   173   172    1
   178   174   175    2
   179   170   169    2
   180   167   166    2
   181   169   168    1
   182   169   171   am
   183   165   166    1
   184   165   168    1
   185   165   164    1
