@<TRIPOS>MOLECULE
tmp/4qzbA00.pdb
 163 156 0 0 0
SMALL
GASTEIGER

@<TRIPOS>ATOM
      1  N        -33.7240   -4.0820   38.6990 N.3   186  GLY186     -0.1210
      2  CA       -32.3560   -4.2100   38.2140 C.3   186  GLY186      0.1956
      3  C        -31.9390   -5.6410   37.9600 C.2   186  GLY186      0.2612
      4  O        -32.7930   -6.5130   37.7680 O.2   186  GLY186     -0.2717
      5  N        -30.6360   -5.8660   38.0120 N.am  187  GLY187     -0.1942
      6  CA       -30.0160   -7.1620   37.7560 C.3   187  GLY187      0.2014
      7  C        -30.5180   -8.3110   38.6030 C.2   187  GLY187      0.2638
      8  O        -30.7010   -9.4140   38.0900 O.2   187  GLY187     -0.2714
      9  N        -30.7460   -8.0620   39.9070 N.am  188  PHE188     -0.1973
     10  CA       -31.2200   -9.1020   40.8300 C.3   188  PHE188      0.1639
     11  C        -32.6170   -9.6260   40.4380 C.2   188  PHE188      0.2290
     12  O        -32.8490  -10.8290   40.5680 O.2   188  PHE188     -0.2864
     13  CB       -31.1920   -8.6080   42.2820 C.3   188  PHE188      0.0560
     14  CG       -29.7710   -8.4820   42.8000 C.ar  188  PHE188     -0.0200
     15  CD1      -28.9760   -9.6120   42.9880 C.ar  188  PHE188     -0.0042
     16  CD2      -29.2070   -7.2330   43.0430 C.ar  188  PHE188     -0.0042
     17  CE1      -27.6570   -9.4920   43.4450 C.ar  188  PHE188     -0.0003
     18  CE2      -27.8970   -7.1170   43.5190 C.ar  188  PHE188     -0.0003
     19  CZ       -27.1260   -8.2380   43.6890 C.ar  188  PHE188     -0.0000
     20  N        -33.5140   -9.8550   37.3400 N.3   190  ARG190     -0.1245
     21  CA       -33.1950  -10.6190   36.1220 C.3   190  ARG190      0.1563
     22  C        -32.4520  -11.9500   36.4560 C.2   190  ARG190      0.2260
     23  O        -31.9910  -12.6400   35.5340 O.2   190  ARG190     -0.2867
     24  CB       -32.3410   -9.7820   35.1540 C.3   190  ARG190      0.0307
     25  CG       -33.0260   -8.5030   34.6210 C.3   190  ARG190      0.0489
     26  CD       -32.2870   -7.9170   33.4150 C.3   190  ARG190      0.2205
     27  NE       -30.8260   -7.8280   33.6000 N.pl3 190  ARG190     -0.0865
     28  CZ       -30.1750   -6.7900   34.1210 C.cat 190  ARG190      0.5346
     29  NH1      -28.8520   -6.8100   34.2140 N.pl3 190  ARG190      0.1354
     30  NH2      -30.8420   -5.7250   34.5540 N.pl3 190  ARG190      0.1354
     31  N        -29.5690  -12.2200   38.4360 N.3   192  LYS192     -0.1245
     32  CA       -28.1320  -12.0990   38.6620 C.3   192  LYS192      0.1561
     33  C        -27.7260  -12.4800   40.0620 C.2   192  LYS192      0.2260
     34  O        -28.4920  -12.3020   41.0160 O.2   192  LYS192     -0.2867
     35  CB       -27.6150  -10.6990   38.3540 C.3   192  LYS192      0.0271
     36  CG       -27.5520  -10.4040   36.8650 C.3   192  LYS192      0.0035
     37  CD       -27.0300   -9.0050   36.5880 C.3   192  LYS192      0.0206
     38  CE       -25.5290   -8.9190   36.5520 C.3   192  LYS192      0.1093
     39  NZ       -25.0730   -7.5140   36.6850 N.3   192  LYS192     -0.1314
     40  N        -24.7560  -11.2760   41.2100 N.3   194  THR194     -0.1203
     41  CA       -24.0830  -10.0840   41.7370 C.3   194  THR194      0.1994
     42  C        -24.6550   -8.8230   41.1030 C.2   194  THR194      0.2618
     43  O        -25.3940   -8.9010   40.1270 O.2   194  THR194     -0.2717
     44  CB       -22.5480  -10.1380   41.5600 C.3   194  THR194      0.1784
     45  OG1      -22.2550  -10.2780   40.1810 O.3   194  THR194     -0.2211
     46  CG2      -21.8950  -11.2660   42.3290 C.3   194  THR194      0.0376
     47  N        -24.2830   -7.6780   41.6480 N.am  195  GLY195     -0.1942
     48  CA       -24.6770   -6.3640   41.1480 C.3   195  GLY195      0.2014
     49  C        -23.8470   -5.2560   41.7600 C.2   195  GLY195      0.2639
     50  O        -23.2090   -5.4720   42.7910 O.2   195  GLY195     -0.2714
     51  N        -23.8490   -4.0570   41.1470 N.am  196  HIS196     -0.1959
     52  CA       -23.0930   -2.9150   41.6810 C.3   196  HIS196      0.1787
     53  C        -23.9320   -2.2090   42.7750 C.2   196  HIS196      0.2620
     54  O        -23.3880   -1.4900   43.6250 O.2   196  HIS196     -0.2715
     55  CB       -22.7000   -1.9560   40.5290 C.3   196  HIS196      0.0785
     56  CG       -23.6570   -0.8220   40.2870 C.ar  196  HIS196      0.0821
     57  ND1      -24.8260   -0.9910   39.5540 N.ar  196  HIS196     -0.2267
     58  CD2      -23.5820    0.4690   40.6890 C.ar  196  HIS196      0.1154
     59  CE1      -25.4170    0.1900   39.5430 C.ar  196  HIS196      0.1986
     60  NE2      -24.7280    1.0890   40.2430 N.ar  196  HIS196     -0.2212
     61  N        -25.2620   -2.4490   42.7440 N.am  197  ASP197     -0.1971
     62  CA       -26.2220   -1.8680   43.6710 C.3   197  ASP197      0.1709
     63  C        -27.4690   -2.7700   43.8200 C.2   197  ASP197      0.2293
     64  O        -27.5620   -3.8240   43.1850 O.2   197  ASP197     -0.2864
     65  CB       -26.6140   -0.4670   43.1660 C.3   197  ASP197      0.1436
     66  CG       -27.4080   -0.3710   41.8510 C.2   197  ASP197      0.3671
     67  OD1      -27.7430   -1.4350   41.2520 O.co2 197  ASP197     -0.2456
     68  OD2      -27.8690    0.7350   41.5290 O.co2 197  ASP197     -0.2456
     69  N        -31.6340   -2.1290   43.5780 N.3   199  ASP199     -0.1239
     70  CA       -32.6560   -1.1700   43.1930 C.3   199  ASP199      0.1674
     71  C        -34.0470   -1.6470   43.5410 C.2   199  ASP199      0.2266
     72  O        -34.3170   -2.8420   43.4480 O.2   199  ASP199     -0.2867
     73  CB       -32.5660   -0.9100   41.6770 C.3   199  ASP199      0.1410
     74  CG       -31.1950   -0.4800   41.1840 C.2   199  ASP199      0.3668
     75  OD1      -30.5010    0.2390   41.9180 O.co2 199  ASP199     -0.2456
     76  OD2      -30.8060   -0.9090   40.0970 O.co2 199  ASP199     -0.2456
     77  N        -30.6760   11.0280   31.2860 N.3   251  ALA251     -0.1245
     78  CA       -30.2410    9.8050   31.9640 C.3   251  ALA251      0.1562
     79  C        -31.2110    9.3440   33.0730 C.2   251  ALA251      0.2260
     80  O        -31.3040    8.1430   33.3460 O.2   251  ALA251     -0.2867
     81  CB       -28.8510   10.0020   32.5500 C.3   251  ALA251      0.0290
     82  N        -30.8240    2.0770   45.5170 N.3   284  ASP284     -0.1239
     83  CA       -31.6520    3.0850   44.8630 C.3   284  ASP284      0.1674
     84  C        -33.1140    2.7810   45.0670 C.2   284  ASP284      0.2266
     85  O        -33.5390    1.6420   44.8710 O.2   284  ASP284     -0.2867
     86  CB       -31.3660    3.1790   43.3720 C.3   284  ASP284      0.1410
     87  CG       -29.9270    3.4600   43.0270 C.2   284  ASP284      0.3668
     88  OD1      -29.2540    4.1790   43.8040 O.co2 284  ASP284     -0.2456
     89  OD2      -29.4800    2.9890   41.9730 O.co2 284  ASP284     -0.2456
     90  N        -38.8380   -0.2640   32.8400 N.3   299  GLY299     -0.1210
     91  CA       -37.6400    0.5510   32.6730 C.3   299  GLY299      0.1956
     92  C        -36.5520    0.2800   33.6900 C.2   299  GLY299      0.2612
     93  O        -35.3850    0.3410   33.3380 O.2   299  GLY299     -0.2717
     94  N        -36.9130   -0.0190   34.9570 N.am  300  TRP300     -0.1962
     95  CA       -35.9140   -0.2640   35.9990 C.3   300  TRP300      0.1771
     96  C        -35.4430   -1.7140   36.0460 C.2   300  TRP300      0.2620
     97  O        -34.4590   -1.9850   36.7330 O.2   300  TRP300     -0.2715
     98  CB       -36.4370    0.1770   37.3720 C.3   300  TRP300      0.0590
     99  CG       -36.3080    1.6580   37.5470 C.ar  300  TRP300      0.0006
    100  CD1      -37.1620    2.6170   37.0750 C.ar  300  TRP300      0.0946
    101  CD2      -35.1640    2.3540   38.0430 C.ar  300  TRP300      0.0152
    102  NE1      -36.6250    3.8660   37.2700 N.ar  300  TRP300     -0.2442
    103  CE2      -35.4170    3.7370   37.8970 C.ar  300  TRP300      0.0810
    104  CE3      -33.9510    1.9440   38.6230 C.ar  300  TRP300      0.0012
    105  CZ2      -34.5280    4.7120   38.3490 C.ar  300  TRP300      0.0191
    106  CZ3      -33.0640    2.9160   39.0640 C.ar  300  TRP300      0.0001
    107  CH2      -33.3510    4.2810   38.9130 C.ar  300  TRP300      0.0015
    108  N        -36.1270   -2.6520   35.3480 N.am  301  THR301     -0.1937
    109  CA       -35.6830   -4.0560   35.3870 C.3   301  THR301      0.2028
    110  C        -34.4200   -4.2250   34.5110 C.2   301  THR301      0.2643
    111  O        -33.5370   -5.0200   34.8330 O.2   301  THR301     -0.2714
    112  CB       -36.8290   -5.0120   34.9800 C.3   301  THR301      0.1808
    113  OG1      -37.8310   -4.9430   35.9920 O.3   301  THR301     -0.2208
    114  CG2      -36.3690   -6.4950   34.8480 C.3   301  THR301      0.0379
    115  N        -34.3720   -3.5170   33.3980 N.am  302  GLY302     -0.1939
    116  CA       -33.2640   -3.6230   32.4700 C.3   302  GLY302      0.2014
    117  C        -33.3020   -4.9060   31.6460 C.2   302  GLY302      0.2640
    118  O        -34.3560   -5.5300   31.5190 O.2   302  GLY302     -0.2714
    119  N        -32.1640   -5.3600   31.1040 N.am  303  SER303     -0.1935
    120  CA       -30.8270   -4.7260   31.1340 C.3   303  SER303      0.2055
    121  C        -30.8330   -3.4150   30.3250 C.2   303  SER303      0.2642
    122  O        -31.8180   -3.1290   29.6340 O.2   303  SER303     -0.2714
    123  CB       -29.7910   -5.6940   30.5520 C.3   303  SER303      0.2130
    124  OG       -30.0360   -5.8530   29.1640 O.3   303  SER303     -0.2179
    125  N        -29.7380   -2.6200   30.3900 N.am  304  ARG304     -0.1977
    126  CA       -29.6090   -1.3920   29.6060 C.3   304  ARG304      0.1597
    127  C        -29.8430   -1.6860   28.0950 C.2   304  ARG304      0.2287
    128  O        -30.5700   -0.9440   27.4430 O.2   304  ARG304     -0.2864
    129  CB       -28.2180   -0.7590   29.8330 C.3   304  ARG304      0.0334
    130  CG       -27.8340    0.2690   28.7790 C.3   304  ARG304      0.0492
    131  CD       -26.4720    0.8430   29.0310 C.3   304  ARG304      0.2205
    132  NE       -26.2880    2.1130   28.3240 N.pl3 304  ARG304     -0.0865
    133  CZ       -25.1100    2.6020   27.9690 C.cat 304  ARG304      0.5346
    134  NH1      -23.9960    1.9210   28.2210 N.pl3 304  ARG304      0.1354
    135  NH2      -25.0330    3.7600   27.3310 N.pl3 304  ARG304      0.1354
    136  N        -33.5320   -2.3930   27.3210 N.3   307  GLU307     -0.1245
    137  CA       -34.2680   -1.0990   27.3620 C.3   307  GLU307      0.1567
    138  C        -34.0670   -0.2960   26.0890 C.2   307  GLU307      0.2260
    139  O        -35.0540    0.1540   25.5310 O.2   307  GLU307     -0.2867
    140  CB       -33.8340   -0.2350   28.5630 C.3   307  GLU307      0.0388
    141  CG       -34.1250   -0.8510   29.9280 C.3   307  GLU307      0.1160
    142  CD       -35.5640   -1.2420   30.1800 C.2   307  GLU307      0.3649
    143  OE1      -35.7830   -2.3710   30.6670 O.co2 307  GLU307     -0.2457
    144  OE2      -36.4720   -0.4760   29.7920 O.co2 307  GLU307     -0.2457
    145  N        -37.0910    0.5300   23.1460 N.3   311  ARG311     -0.1245
    146  CA       -37.3930    1.8900   22.6830 C.3   311  ARG311      0.1563
    147  C        -37.1140    2.0250   21.1770 C.2   311  ARG311      0.2260
    148  O        -37.8840    2.6690   20.4860 O.2   311  ARG311     -0.2867
    149  CB       -36.6090    2.9350   23.4880 C.3   311  ARG311      0.0307
    150  CG       -37.0160    2.9820   24.9560 C.3   311  ARG311      0.0489
    151  CD       -36.1110    3.9000   25.7760 C.3   311  ARG311      0.2205
    152  NE       -36.5410    4.0990   27.1640 N.pl3 311  ARG311     -0.0865
    153  CZ       -36.8210    3.1360   28.0350 C.cat 311  ARG311      0.5346
    154  NH1      -37.2150    3.4400   29.2630 N.pl3 311  ARG311      0.1354
    155  NH2      -36.7340    1.8630   27.6800 N.pl3 311  ARG311      0.1354
    156  N        -39.8440    5.3200   30.8030 N.3   324  ASN324     -0.1240
    157  CA       -40.1800    4.7790   32.1280 C.3   324  ASN324      0.1653
    158  C        -41.5260    5.2240   32.6540 C.2   324  ASN324      0.2266
    159  O        -41.9800    4.6880   33.6620 O.2   324  ASN324     -0.2867
    160  CB       -39.1210    5.1910   33.1240 C.3   324  ASN324      0.1155
    161  CG       -37.8380    4.4280   32.9720 C.2   324  ASN324      0.2627
    162  OD1      -37.5880    3.7470   31.9690 O.2   324  ASN324     -0.2716
    163  ND2      -36.9660    4.5680   33.9520 N.am  324  ASN324     -0.0877
@<TRIPOS>BOND
     1   148   147    2
     2   147   146    1
     3   146   145    1
     4   146   149    1
     5   149   150    1
     6   150   151    1
     7   139   138    2
     8   151   152    1
     9   138   137    1
    10   152   153    2
    11   136   137    1
    12   135   133    1
    13   137   140    1
    14   128   127    2
    15   155   153    1
    16   133   134    1
    17   133   132    2
    18   153   154    1
    19   127   126    1
    20   132   131    1
    21   140   141    1
    22   130   131    1
    23   130   129    1
    24   124   123    1
    25   126   129    1
    26   126   125    1
    27   122   121    2
    28   144   142   ar
    29   141   142    1
    30   142   143   ar
    31   121   125   am
    32   121   120    1
    33   123   120    1
    34   156   157    1
    35   119   120    1
    36   119   117   am
    37    77    78    1
    38   118   117    2
    39   117   116    1
    40    78    81    1
    41    78    79    1
    42   162   161    2
    43   157   158    1
    44   157   160    1
    45   116   115    1
    46   158   159    2
    47    91    90    1
    48    91    92    1
    49   161   160    1
    50   161   163   am
    51    79    80    2
    52    93    92    2
    53   115   110   am
    54    26    27    1
    55    26    25    1
    56    27    28    2
    57    92    94   am
    58    28    29    1
    59    28    30    1
    60   110   111    2
    61   110   109    1
    62    25    24    1
    63   114   112    1
    64    94    95    1
    65   112   109    1
    66   112   113    1
    67    24    21    1
    68   108   109    1
    69   108    96   am
    70    23    22    2
    71    95    96    1
    72    95    98    1
    73    96    97    2
    74    21    22    1
    75    21    20    1
    76    38    37    1
    77    38    39    1
    78    37    36    1
    79    36    35    1
    80   100   102   ar
    81   100    99   ar
    82   102   103   ar
    83    98    99    1
    84    99   101   ar
    85     6     5    1
    86     6     7    1
    87     4     3    2
    88   103   101   ar
    89   103   105   ar
    90     3     5   am
    91     3     2    1
    92   101   104   ar
    93     8     7    2
    94     2     1    1
    95   105   107   ar
    96    35    32    1
    97    31    32    1
    98     7     9   am
    99   104   106   ar
   100    32    33    1
   101   107   106   ar
   102    59    57   ar
   103    59    60   ar
   104    57    56   ar
   105     9    10    1
   106    33    34    2
   107    76    74   ar
   108    43    42    2
   109    45    44    1
   110    60    58   ar
   111    56    55    1
   112    56    58   ar
   113    11    12    2
   114    11    10    1
   115    55    52    1
   116    10    13    1
   117    42    47   am
   118    42    41    1
   119    51    52    1
   120    51    49   am
   121    48    47    1
   122    48    49    1
   123    74    73    1
   124    74    75   ar
   125    40    41    1
   126    67    66   ar
   127    68    66   ar
   128    44    41    1
   129    44    46    1
   130    73    70    1
   131    52    53    1
   132    49    50    2
   133    66    65    1
   134    89    87   ar
   135    13    14    1
   136    61    53   am
   137    61    62    1
   138    53    54    2
   139    14    15   ar
   140    14    16   ar
   141    15    17   ar
   142    87    86    1
   143    87    88   ar
   144    16    18   ar
   145    65    62    1
   146    64    63    2
   147    70    71    1
   148    70    69    1
   149    86    83    1
   150    17    19   ar
   151    72    71    2
   152    18    19   ar
   153    62    63    1
   154    83    84    1
   155    83    82    1
   156    85    84    2
