@<TRIPOS>MOLECULE
tmp/4qzdA00.pdb
 169 160 0 0 0
SMALL
GASTEIGER

@<TRIPOS>ATOM
      1  N         16.5830    6.8110   35.9720 N.3   107  THR107     -0.1218
      2  CA        15.1210    6.6940   36.0540 C.3   107  THR107      0.1862
      3  C         14.6440    5.6080   37.0440 C.2   107  THR107      0.2287
      4  O         13.4440    5.5880   37.3760 O.2   107  THR107     -0.2866
      5  CB        14.4960    6.4920   34.7090 C.3   107  THR107      0.1770
      6  OG1       14.9820    5.2750   34.1570 O.3   107  THR107     -0.2211
      7  CG2       14.7190    7.6710   33.7940 C.3   107  THR107      0.0375
      8  N         15.1860    5.7860   40.0430 N.3   109  VAL109     -0.1231
      9  CA        14.8690    6.6160   41.2080 C.3   109  VAL109      0.1692
     10  C         13.4300    7.1490   41.0460 C.2   109  VAL109      0.2592
     11  O         13.1140    7.6780   39.9850 O.2   109  VAL109     -0.2718
     12  CB        15.8980    7.7890   41.3740 C.3   109  VAL109      0.0266
     13  CG1       15.5760    8.6660   42.5890 C.3   109  VAL109      0.0020
     14  CG2       17.3360    7.2820   41.4450 C.3   109  VAL109      0.0020
     15  N         12.5740    7.0370   42.0880 N.am  110  PHE110     -0.1962
     16  CA        11.2130    7.5950   42.0840 C.3   110  PHE110      0.1771
     17  C         11.3520    9.1220   42.0200 C.2   110  PHE110      0.2620
     18  O         12.0870    9.7150   42.8120 O.2   110  PHE110     -0.2715
     19  CB        10.4000    7.1230   43.3310 C.3   110  PHE110      0.0574
     20  CG         9.0530    7.7820   43.5910 C.ar  110  PHE110     -0.0200
     21  CD1        7.9590    7.5120   42.7830 C.ar  110  PHE110     -0.0042
     22  CD2        8.8750    8.6540   44.6740 C.ar  110  PHE110     -0.0042
     23  CE1        6.7170    8.1350   43.0300 C.ar  110  PHE110     -0.0003
     24  CE2        7.6200    9.2440   44.9400 C.ar  110  PHE110     -0.0003
     25  CZ         6.5510    8.9800   44.1210 C.ar  110  PHE110     -0.0000
     26  N         10.7200    9.7260   41.0230 N.am  111  GLY111     -0.1940
     27  CA        10.7510   11.1670   40.8120 C.3   111  GLY111      0.2014
     28  C         11.6420   11.5770   39.6670 C.2   111  GLY111      0.2639
     29  O         11.6870   12.7560   39.3210 O.2   111  GLY111     -0.2714
     30  N         12.3690   10.6240   39.0690 N.am  112  VAL112     -0.1963
     31  CA        13.2750   10.9090   37.9530 C.3   112  VAL112      0.1727
     32  C         12.7410   10.2400   36.6980 C.2   112  VAL112      0.2617
     33  O         12.7310    9.0210   36.6020 O.2   112  VAL112     -0.2715
     34  CB        14.7520   10.4760   38.2360 C.3   112  VAL112      0.0290
     35  CG1       15.6790   10.8340   37.0840 C.3   112  VAL112      0.0023
     36  CG2       15.2770   11.0480   39.5420 C.3   112  VAL112      0.0023
     37  N         12.3630   11.0420   35.7280 N.am  113  GLY113     -0.1940
     38  CA        11.9210   10.5670   34.4250 C.3   113  GLY113      0.2014
     39  C         12.9280   10.9200   33.3530 C.2   113  GLY113      0.2639
     40  O         14.0690   11.2860   33.6510 O.2   113  GLY113     -0.2714
     41  N         12.5050   10.8370   32.0980 N.am  114  LEU114     -0.1963
     42  CA        13.3450   11.0670   30.9460 C.3   114  LEU114      0.1728
     43  C         14.0610   12.4250   30.9510 C.2   114  LEU114      0.2616
     44  O         15.2500   12.4660   30.6300 O.2   114  LEU114     -0.2715
     45  CB        12.4870   10.9420   29.6860 C.3   114  LEU114      0.0311
     46  CG        12.6020    9.6630   28.8660 C.3   114  LEU114      0.0022
     47  CD1       11.7110    8.5260   29.4250 C.3   114  LEU114      0.0001
     48  CD2       12.2230    9.9460   27.4520 C.3   114  LEU114      0.0001
     49  N         13.3590   13.5240   31.2760 N.am  115  LYS115     -0.1963
     50  CA        13.9550   14.8640   31.2200 C.3   115  LYS115      0.1728
     51  C         15.0790   15.0680   32.2480 C.2   115  LYS115      0.2616
     52  O         16.1320   15.5980   31.8870 O.2   115  LYS115     -0.2715
     53  CB        12.8900   15.9650   31.3710 C.3   115  LYS115      0.0311
     54  CG        11.8800   16.0690   30.2430 C.3   115  LYS115      0.0038
     55  CD        12.4360   16.7770   29.0290 C.3   115  LYS115      0.0206
     56  CE        13.2060   15.8290   28.1450 C.3   115  LYS115      0.1093
     57  NZ        13.6780   16.5130   26.9230 N.3   115  LYS115     -0.1314
     58  N         14.8700   14.6480   33.4970 N.am  116  THR116     -0.1951
     59  CA        15.8710   14.8150   34.5500 C.3   116  THR116      0.1897
     60  C         17.0720   13.8790   34.3000 C.2   116  THR116      0.2313
     61  O         18.2180   14.3120   34.4800 O.2   116  THR116     -0.2863
     62  CB        15.2500   14.6540   35.9430 C.3   116  THR116      0.1794
     63  OG1       14.2070   15.6280   36.0750 O.3   116  THR116     -0.2208
     64  CG2       16.2570   14.8660   37.0570 C.3   116  THR116      0.0378
     65  N         13.6560   17.6770   43.5780 N.3   140  THR140     -0.1218
     66  CA        12.2290   17.8290   43.8760 C.3   140  THR140      0.1862
     67  C         11.9090   16.9990   45.1260 C.2   140  THR140      0.2287
     68  O         12.6870   16.0960   45.4720 O.2   140  THR140     -0.2866
     69  CB        11.3500   17.4050   42.6780 C.3   140  THR140      0.1770
     70  OG1       11.5110   16.0020   42.4230 O.3   140  THR140     -0.2211
     71  CG2       11.6230   18.2080   41.4320 C.3   140  THR140      0.0375
     72  N          9.7550   14.7040   45.3970 N.3   142  MET142     -0.1230
     73  CA         9.5590   13.3540   44.8640 C.3   142  MET142      0.1702
     74  C         10.8970   12.6190   44.7890 C.2   142  MET142      0.2592
     75  O         10.9920   11.4810   45.2660 O.2   142  MET142     -0.2718
     76  CB         8.8790   13.4220   43.4890 C.3   142  MET142      0.0401
     77  CG         8.0490   12.2170   43.1730 C.3   142  MET142      0.0596
     78  SD         7.2900   12.1940   41.5280 S.3   142  MET142     -0.1393
     79  CE         6.1360   13.6400   41.6270 C.3   142  MET142      0.0692
     80  N         11.9400   13.2970   44.2580 N.am  143  GLN143     -0.1979
     81  CA        13.2940   12.7570   44.1060 C.3   143  GLN143      0.1601
     82  C         13.9740   12.5210   45.4500 C.2   143  GLN143      0.2287
     83  O         14.6620   11.5110   45.6040 O.2   143  GLN143     -0.2864
     84  CB        14.1390   13.6910   43.2580 C.3   143  GLN143      0.0394
     85  CG        13.7520   13.6640   41.7900 C.3   143  GLN143      0.0908
     86  CD        14.1860   14.8990   41.0510 C.2   143  GLN143      0.2608
     87  OE1       14.8530   15.7940   41.5790 O.2   143  GLN143     -0.2717
     88  NE2       13.8400   14.9490   39.7870 N.am  143  GLN143     -0.0878
     89  N          4.6590   -1.0340   42.3420 N.3   197  ASP197     -0.1239
     90  CA         3.6790   -0.3370   43.1630 C.3   197  ASP197      0.1674
     91  C          2.3880   -1.1680   43.3310 C.2   197  ASP197      0.2266
     92  O          2.2300   -2.2040   42.6670 O.2   197  ASP197     -0.2867
     93  CB         3.3640    1.0390   42.5480 C.3   197  ASP197      0.1410
     94  CG         2.8550    1.0020   41.1290 C.2   197  ASP197      0.3668
     95  OD1        1.8780    0.2800   40.8740 O.co2 197  ASP197     -0.2456
     96  OD2        3.4340    1.7210   40.2600 O.co2 197  ASP197     -0.2456
     97  N          1.2520   13.0110   47.2860 N.3   233  ASP233     -0.1239
     98  CA         0.9440   13.9810   46.2460 C.3   233  ASP233      0.1674
     99  C         -0.4640   13.6890   45.7940 C.2   233  ASP233      0.2266
    100  O         -0.7040   12.6300   45.2010 O.2   233  ASP233     -0.2867
    101  CB         1.9450   13.9320   45.0740 C.3   233  ASP233      0.1410
    102  CG         1.7360   14.9920   43.9900 C.2   233  ASP233      0.3668
    103  OD1        1.1480   16.0610   44.2960 O.co2 233  ASP233     -0.2456
    104  OD2        2.2070   14.7780   42.8540 O.co2 233  ASP233     -0.2456
    105  N         -3.5720   14.7170   43.4940 N.3   235  LEU235     -0.1245
    106  CA        -3.9910   15.4010   42.2940 C.3   235  LEU235      0.1561
    107  C         -5.5000   15.5000   42.3150 C.2   235  LEU235      0.2260
    108  O         -6.1900   14.4750   42.2970 O.2   235  LEU235     -0.2867
    109  CB        -3.5040   14.6810   41.0240 C.3   235  LEU235      0.0270
    110  CG        -2.0250   14.7400   40.6780 C.3   235  LEU235      0.0019
    111  CD1       -1.7920   14.1340   39.3100 C.3   235  LEU235      0.0001
    112  CD2       -1.4750   16.1760   40.7100 C.3   235  LEU235      0.0001
    113  N         -8.0020   13.6030   34.4430 N.3   245  HIS245     -0.1241
    114  CA        -8.0580   12.4010   35.2770 C.3   245  HIS245      0.1621
    115  C         -8.9460   12.4940   36.5310 C.2   245  HIS245      0.2264
    116  O         -9.2880   13.5770   37.0070 O.2   245  HIS245     -0.2867
    117  CB        -6.6340   11.9690   35.7460 C.3   245  HIS245      0.0745
    118  CG        -5.8620   13.0410   36.4670 C.ar  245  HIS245      0.0817
    119  ND1       -6.1860   13.4250   37.7590 N.ar  245  HIS245     -0.2268
    120  CD2       -4.8040   13.7750   36.0470 C.ar  245  HIS245      0.1154
    121  CE1       -5.3280   14.3810   38.0740 C.ar  245  HIS245      0.1986
    122  NE2       -4.4900   14.6370   37.0680 N.ar  245  HIS245     -0.2212
    123  N         -6.6950   11.4960   42.3650 N.3   248  LYS248     -0.1245
    124  CA        -5.7620   10.4190   42.6560 C.3   248  LYS248      0.1561
    125  C         -4.6220   10.8860   43.5050 C.2   248  LYS248      0.2260
    126  O         -4.3750   12.0860   43.6130 O.2   248  LYS248     -0.2867
    127  CB        -5.2020    9.8160   41.3500 C.3   248  LYS248      0.0271
    128  CG        -4.3910   10.7480   40.5190 C.3   248  LYS248      0.0035
    129  CD        -3.6750    9.9630   39.4160 C.3   248  LYS248      0.0206
    130  CE        -3.0540   10.9790   38.4960 C.3   248  LYS248      0.1093
    131  NZ        -2.1950   10.2450   37.5350 N.3   248  LYS248     -0.1314
    132  N         -0.4480    9.7350   44.6440 N.3   250  ALA250     -0.1245
    133  CA         0.7660    8.9450   44.5270 C.3   250  ALA250      0.1562
    134  C          1.4280    8.9780   45.8880 C.2   250  ALA250      0.2260
    135  O          1.7360   10.0520   46.3950 O.2   250  ALA250     -0.2867
    136  CB         1.6730    9.5040   43.4410 C.3   250  ALA250      0.0290
    137  N          5.3850    1.9200   47.3250 N.3   270  ARG270     -0.1245
    138  CA         4.6960    2.8410   46.4370 C.3   270  ARG270      0.1563
    139  C          3.2280    2.4080   46.2930 C.2   270  ARG270      0.2260
    140  O          2.9450    1.2340   46.0230 O.2   270  ARG270     -0.2867
    141  CB         5.4050    2.8840   45.0810 C.3   270  ARG270      0.0307
    142  CG         6.5440    3.8820   45.0270 C.3   270  ARG270      0.0489
    143  CD         5.9830    5.2640   44.7980 C.3   270  ARG270      0.2205
    144  NE         5.3210    5.3790   43.4890 N.pl3 270  ARG270     -0.0865
    145  CZ         4.0250    5.6240   43.3100 C.cat 270  ARG270      0.5346
    146  NH1        3.2180    5.7720   44.3540 N.pl3 270  ARG270      0.1354
    147  NH2        3.5250    5.7090   42.0860 N.pl3 270  ARG270      0.1354
    148  N         -0.7730    3.7920   44.8220 N.3   272  ASP272     -0.1239
    149  CA        -1.5810    4.7890   44.1230 C.3   272  ASP272      0.1674
    150  C         -3.0370    4.5460   44.3920 C.2   272  ASP272      0.2266
    151  O         -3.4890    3.4200   44.2670 O.2   272  ASP272     -0.2867
    152  CB        -1.3330    4.8070   42.6060 C.3   272  ASP272      0.1410
    153  CG         0.1000    5.0010   42.1800 C.2   272  ASP272      0.3668
    154  OD1        0.8220    5.7850   42.8430 O.co2 272  ASP272     -0.2456
    155  OD2        0.5040    4.3760   41.1840 O.co2 272  ASP272     -0.2456
    156  N         -7.5830    1.2750   34.7460 N.3   288  TRP288     -0.1241
    157  CA        -6.5540    1.0580   35.7460 C.3   288  TRP288      0.1605
    158  C         -6.0760   -0.3700   35.8650 C.2   288  TRP288      0.2264
    159  O         -5.0080   -0.5730   36.4440 O.2   288  TRP288     -0.2867
    160  CB        -7.0130    1.5870   37.0890 C.3   288  TRP288      0.0550
    161  CG        -6.8090    3.0660   37.1120 C.ar  288  TRP288      0.0003
    162  CD1       -7.6690    4.0170   36.6420 C.ar  288  TRP288      0.0946
    163  CD2       -5.5840    3.7500   37.4280 C.ar  288  TRP288      0.0152
    164  NE1       -7.0780    5.2610   36.7040 N.ar  288  TRP288     -0.2442
    165  CE2       -5.7980    5.1260   37.1880 C.ar  288  TRP288      0.0810
    166  CE3       -4.3580    3.3440   38.0010 C.ar  288  TRP288      0.0012
    167  CZ2       -4.8370    6.0990   37.5040 C.ar  288  TRP288      0.0191
    168  CZ3       -3.4110    4.3080   38.3140 C.ar  288  TRP288      0.0001
    169  CH2       -3.6570    5.6680   38.0780 C.ar  288  TRP288      0.0015
@<TRIPOS>BOND
     1    57    56    1
     2    48    46    1
     3    56    55    1
     4    46    47    1
     5    46    45    1
     6    55    54    1
     7    45    42    1
     8    54    53    1
     9    44    43    2
    10    42    43    1
    11    42    41    1
    12    43    49   am
    13    50    49    1
    14    50    53    1
    15    50    51    1
    16    52    51    2
    17    41    39   am
    18    51    58   am
    19    39    40    2
    20    39    38    1
    21    58    59    1
    22     7     5    1
    23     6     5    1
    24    60    61    2
    25    60    59    1
    26    38    37    1
    27   113   114    1
    28    59    62    1
    29     5     2    1
    30   156   157    1
    31   114   117    1
    32   114   115    1
    33    37    32   am
    34   117   118    1
    35   157   158    1
    36   157   160    1
    37   158   159    2
    38    62    63    1
    39    62    64    1
    40     1     2    1
    41   120   118   ar
    42   120   122   ar
    43     2     3    1
    44   118   119   ar
    45   115   116    2
    46    33    32    2
    47   162   164   ar
    48   162   161   ar
    49    32    31    1
    50   164   165   ar
    51     3     4    2
    52   122   121   ar
    53    35    34    1
    54   160   161    1
    55   161   163   ar
    56   165   163   ar
    57   165   167   ar
    58   163   166   ar
    59   167   169   ar
    60   131   130    1
    61   119   121   ar
    62    31    34    1
    63    31    30    1
    64   166   168   ar
    65   169   168   ar
    66    34    36    1
    67   130   129    1
    68    30    28   am
    69   111   110    1
    70    29    28    2
    71   129   128    1
    72    28    27    1
    73    88    86   am
    74    11    10    2
    75     8     9    1
    76    96    94   ar
    77   128   127    1
    78   110   112    1
    79   110   109    1
    80    27    26    1
    81    95    94   ar
    82    26    17   am
    83   109   106    1
    84    10     9    1
    85    10    15   am
    86    86    87    2
    87    86    85    1
    88    94    93    1
    89   155   153   ar
    90     9    12    1
    91   127   124    1
    92    12    14    1
    93    12    13    1
    94    71    69    1
    95    78    79    1
    96    78    77    1
    97    85    84    1
    98    17    16    1
    99    17    18    2
   100    16    15    1
   101    16    19    1
   102   147   145    1
   103   153   152    1
   104   153   154   ar
   105   106   107    1
   106   106   105    1
   107   108   107    2
   108    89    90    1
   109   123   124    1
   110    70    69    1
   111    93    90    1
   112   152   149    1
   113   124   125    1
   114    92    91    2
   115    69    66    1
   116    21    23   ar
   117    21    20   ar
   118   104   102   ar
   119    23    25   ar
   120    90    91    1
   121    77    76    1
   122    84    81    1
   123   145   144    2
   124   145   146    1
   125    19    20    1
   126   136   133    1
   127   144   143    1
   128    76    73    1
   129   125   126    2
   130    65    66    1
   131    20    22   ar
   132    66    67    1
   133   102   103   ar
   134   102   101    1
   135    81    80    1
   136    81    82    1
   137    25    24   ar
   138   149   150    1
   139   149   148    1
   140    80    74   am
   141   151   150    2
   142   133   132    1
   143   133   134    1
   144    22    24   ar
   145    74    73    1
   146    74    75    2
   147   143   142    1
   148    73    72    1
   149   142   141    1
   150   101    98    1
   151   141   138    1
   152    67    68    2
   153   100    99    2
   154    82    83    2
   155    99    98    1
   156   134   135    2
   157   140   139    2
   158    98    97    1
   159   139   138    1
   160   138   137    1
