@<TRIPOS>MOLECULE
tmp/4qzfA00.pdb
 158 152 0 0 0
SMALL
GASTEIGER

@<TRIPOS>ATOM
      1  N         -5.2700   -3.7670   38.2620 N.3   186  GLY186     -0.1210
      2  CA        -3.8990   -3.9640   37.8070 C.3   186  GLY186      0.1956
      3  C         -3.4860   -5.4220   37.6670 C.2   186  GLY186      0.2612
      4  O         -4.3380   -6.3060   37.5320 O.2   186  GLY186     -0.2717
      5  N         -2.1770   -5.6580   37.7190 N.am  187  GLY187     -0.1942
      6  CA        -1.5670   -6.9640   37.5420 C.3   187  GLY187      0.2014
      7  C         -2.1090   -8.0750   38.4180 C.2   187  GLY187      0.2638
      8  O         -2.2720   -9.2020   37.9570 O.2   187  GLY187     -0.2714
      9  N         -2.3740   -7.7770   39.6900 N.am  188  PHE188     -0.1973
     10  CA        -2.8670   -8.7530   40.6410 C.3   188  PHE188      0.1639
     11  C         -4.2630   -9.2820   40.2250 C.2   188  PHE188      0.2290
     12  O         -4.5250  -10.4900   40.3650 O.2   188  PHE188     -0.2864
     13  CB        -2.8380   -8.1870   42.0720 C.3   188  PHE188      0.0560
     14  CG        -1.4280   -8.0170   42.6240 C.ar  188  PHE188     -0.0200
     15  CD1       -0.6690   -9.1200   43.0020 C.ar  188  PHE188     -0.0042
     16  CD2       -0.8710   -6.7560   42.7860 C.ar  188  PHE188     -0.0042
     17  CE1        0.6450   -8.9620   43.4780 C.ar  188  PHE188     -0.0003
     18  CE2        0.4320   -6.6000   43.2840 C.ar  188  PHE188     -0.0003
     19  CZ         1.1920   -7.7050   43.5900 C.ar  188  PHE188     -0.0000
     20  N         -5.1050   -9.6090   37.1300 N.3   190  ARG190     -0.1245
     21  CA        -4.7720  -10.4090   35.9440 C.3   190  ARG190      0.1563
     22  C         -4.0250  -11.7100   36.3050 C.2   190  ARG190      0.2260
     23  O         -3.5920  -12.4390   35.4050 O.2   190  ARG190     -0.2867
     24  CB        -3.9330   -9.5950   34.9350 C.3   190  ARG190      0.0307
     25  CG        -4.6000   -8.3230   34.3860 C.3   190  ARG190      0.0489
     26  CD        -3.8610   -7.7560   33.1910 C.3   190  ARG190      0.2205
     27  NE        -2.4150   -7.6610   33.4030 N.pl3 190  ARG190     -0.0865
     28  CZ        -1.7950   -6.5890   33.8740 C.cat 190  ARG190      0.5346
     29  NH1       -0.4790   -6.5870   34.0180 N.pl3 190  ARG190      0.1354
     30  NH2       -2.4860   -5.5140   34.2170 N.pl3 190  ARG190      0.1354
     31  N         -1.1740  -12.0120   38.4060 N.3   192  LYS192     -0.1245
     32  CA         0.2560  -11.8760   38.6470 C.3   192  LYS192      0.1561
     33  C          0.6420  -12.2050   40.0650 C.2   192  LYS192      0.2260
     34  O         -0.1080  -11.9320   41.0060 O.2   192  LYS192     -0.2867
     35  CB         0.7320  -10.4580   38.3180 C.3   192  LYS192      0.0271
     36  CG         0.8350  -10.1750   36.8230 C.3   192  LYS192      0.0035
     37  CD         1.5100   -8.8260   36.5740 C.3   192  LYS192      0.0206
     38  CE         3.0120   -9.0030   36.4970 C.3   192  LYS192      0.1093
     39  NZ         3.7670   -7.7580   36.7960 N.3   192  LYS192     -0.1314
     40  N          3.5410  -10.9780   41.3230 N.3   194  THR194     -0.1203
     41  CA         4.2120   -9.7670   41.7980 C.3   194  THR194      0.1994
     42  C          3.7220   -8.5390   41.0400 C.2   194  THR194      0.2618
     43  O          3.0220   -8.6530   40.0410 O.2   194  THR194     -0.2717
     44  CB         5.7440   -9.8830   41.6900 C.3   194  THR194      0.1784
     45  OG1        6.1190  -10.0100   40.3240 O.3   194  THR194     -0.2211
     46  CG2        6.3300  -11.0260   42.5140 C.3   194  THR194      0.0376
     47  N          4.1160   -7.3760   41.5310 N.am  195  GLY195     -0.1942
     48  CA         3.8010   -6.0830   40.9450 C.3   195  GLY195      0.2014
     49  C          4.6760   -5.0030   41.5360 C.2   195  GLY195      0.2639
     50  O          5.2560   -5.2140   42.5990 O.2   195  GLY195     -0.2714
     51  N          4.8130   -3.8530   40.8560 N.am  196  HIS196     -0.1959
     52  CA         5.6200   -2.7240   41.3560 C.3   196  HIS196      0.1787
     53  C          4.7720   -1.8730   42.3290 C.2   196  HIS196      0.2620
     54  O          5.3120   -1.0260   43.0570 O.2   196  HIS196     -0.2715
     55  CB         6.1530   -1.8820   40.1710 C.3   196  HIS196      0.0785
     56  CG         5.1950   -0.8620   39.6210 C.ar  196  HIS196      0.0821
     57  ND1        4.1120   -1.2240   38.8430 N.ar  196  HIS196     -0.2267
     58  CD2        5.2160    0.4920   39.7240 C.ar  196  HIS196      0.1154
     59  CE1        3.5000   -0.0900   38.5160 C.ar  196  HIS196      0.1986
     60  NE2        4.1180    0.9650   39.0350 N.ar  196  HIS196     -0.2212
     61  N          3.4280   -2.0990   42.2970 N.am  197  ASP197     -0.1971
     62  CA         2.4180   -1.4150   43.0770 C.3   197  ASP197      0.1709
     63  C          1.1390   -2.2570   43.2260 C.2   197  ASP197      0.2293
     64  O          1.0200   -3.3260   42.6110 O.2   197  ASP197     -0.2864
     65  CB         2.1040   -0.0650   42.4090 C.3   197  ASP197      0.1436
     66  CG         1.3760   -0.1270   41.0750 C.2   197  ASP197      0.3671
     67  OD1        1.4300   -1.1700   40.4190 O.co2 197  ASP197     -0.2456
     68  OD2        0.6020    0.8040   40.7810 O.co2 197  ASP197     -0.2456
     69  N         -3.0620   -1.5910   43.0020 N.3   199  ASP199     -0.1239
     70  CA        -4.0580   -0.6200   42.5570 C.3   199  ASP199      0.1674
     71  C         -5.4540   -1.0430   42.9700 C.2   199  ASP199      0.2266
     72  O         -5.7600   -2.2350   43.0150 O.2   199  ASP199     -0.2867
     73  CB        -4.0130   -0.4590   41.0180 C.3   199  ASP199      0.1410
     74  CG        -2.6560   -0.1650   40.4100 C.2   199  ASP199      0.3668
     75  OD1       -1.9950   -1.1190   39.9570 O.co2 199  ASP199     -0.2456
     76  OD2       -2.3130    1.0250   40.2780 O.co2 199  ASP199     -0.2456
     77  N         -2.0460    2.7390   44.4940 N.3   260  ASP260     -0.1239
     78  CA        -2.8360    3.7090   43.7580 C.3   260  ASP260      0.1674
     79  C         -4.3100    3.4590   44.0010 C.2   260  ASP260      0.2266
     80  O         -4.7610    2.3160   43.9550 O.2   260  ASP260     -0.2867
     81  CB        -2.5320    3.6770   42.2520 C.3   260  ASP260      0.1410
     82  CG        -1.0810    3.8580   41.8720 C.2   260  ASP260      0.3668
     83  OD1       -0.3800    4.6370   42.5470 O.co2 260  ASP260     -0.2456
     84  OD2       -0.6560    3.2460   40.8890 O.co2 260  ASP260     -0.2456
     85  N        -10.4750   -0.1800   32.3650 N.3   275  GLY275     -0.1210
     86  CA        -9.3010    0.6430   32.1430 C.3   275  GLY275      0.1956
     87  C         -8.1900    0.3970   33.1240 C.2   275  GLY275      0.2612
     88  O         -7.0230    0.5040   32.7590 O.2   275  GLY275     -0.2717
     89  N         -8.5380    0.1030   34.3800 N.am  276  TRP276     -0.1962
     90  CA        -7.5290   -0.0560   35.4140 C.3   276  TRP276      0.1771
     91  C         -7.0630   -1.4790   35.5830 C.2   276  TRP276      0.2620
     92  O         -6.0510   -1.6840   36.2550 O.2   276  TRP276     -0.2715
     93  CB        -8.0090    0.5460   36.7480 C.3   276  TRP276      0.0590
     94  CG        -8.1820    2.0490   36.6380 C.ar  276  TRP276      0.0006
     95  CD1       -9.3530    2.7020   36.4020 C.ar  276  TRP276      0.0946
     96  CD2       -7.1510    3.0290   36.4680 C.ar  276  TRP276      0.0152
     97  NE1       -9.1320    4.0510   36.2630 N.ar  276  TRP276     -0.2442
     98  CE2       -7.7870    4.2800   36.2840 C.ar  276  TRP276      0.0810
     99  CE3       -5.7540    2.9900   36.5330 C.ar  276  TRP276      0.0012
    100  CZ2       -7.0780    5.4670   36.1170 C.ar  276  TRP276      0.0191
    101  CZ3       -5.0530    4.1800   36.4070 C.ar  276  TRP276      0.0001
    102  CH2       -5.7140    5.3990   36.2060 C.ar  276  TRP276      0.0015
    103  N         -7.7290   -2.4610   34.9440 N.am  277  THR277     -0.1937
    104  CA        -7.2760   -3.8640   35.0290 C.3   277  THR277      0.2028
    105  C         -6.0350   -4.0550   34.1390 C.2   277  THR277      0.2643
    106  O         -5.1220   -4.7880   34.4910 O.2   277  THR277     -0.2714
    107  CB        -8.4260   -4.8370   34.6800 C.3   277  THR277      0.1808
    108  OG1       -9.4240   -4.6950   35.6820 O.3   277  THR277     -0.2208
    109  CG2       -7.9890   -6.3090   34.6390 C.3   277  THR277      0.0379
    110  N         -6.0140   -3.3740   33.0080 N.am  278  GLY278     -0.1939
    111  CA        -4.9110   -3.4730   32.0740 C.3   278  GLY278      0.2014
    112  C         -4.9390   -4.7590   31.2710 C.2   278  GLY278      0.2640
    113  O         -6.0100   -5.3480   31.1150 O.2   278  GLY278     -0.2714
    114  N         -3.7730   -5.2310   30.7380 N.am  279  SER279     -0.1935
    115  CA        -2.4380   -4.6160   30.7930 C.3   279  SER279      0.2055
    116  C         -2.4250   -3.3210   29.9940 C.2   279  SER279      0.2642
    117  O         -3.4180   -3.0190   29.3340 O.2   279  SER279     -0.2714
    118  CB        -1.4050   -5.5820   30.2300 C.3   279  SER279      0.2130
    119  OG        -1.6010   -5.7460   28.8300 O.3   279  SER279     -0.2179
    120  N         -1.3080   -2.5570   30.0140 N.am  280  ARG280     -0.1977
    121  CA        -1.2220   -1.3050   29.2350 C.3   280  ARG280      0.1597
    122  C         -1.4520   -1.5870   27.7670 C.2   280  ARG280      0.2287
    123  O         -2.2230   -0.8690   27.1380 O.2   280  ARG280     -0.2864
    124  CB         0.1260   -0.6120   29.4480 C.3   280  ARG280      0.0334
    125  CG         0.3690    0.5940   28.5920 C.3   280  ARG280      0.0492
    126  CD         1.8400    0.8730   28.5970 C.3   280  ARG280      0.2205
    127  NE         2.1510    2.1200   27.9090 N.pl3 280  ARG280     -0.0865
    128  CZ         3.3730    2.4890   27.5470 C.cat 280  ARG280      0.5346
    129  NH1        4.4100    1.6900   27.7760 N.pl3 280  ARG280      0.1354
    130  NH2        3.5660    3.6460   26.9270 N.pl3 280  ARG280      0.1354
    131  N         -5.1490   -2.3110   26.9530 N.3   283  GLU283     -0.1245
    132  CA        -5.8960   -1.0480   26.9590 C.3   283  GLU283      0.1567
    133  C         -5.6950   -0.2380   25.6780 C.2   283  GLU283      0.2260
    134  O         -6.6710    0.2530   25.1150 O.2   283  GLU283     -0.2867
    135  CB        -5.4920   -0.1830   28.1520 C.3   283  GLU283      0.0388
    136  CG        -5.7950   -0.7770   29.5140 C.3   283  GLU283      0.1160
    137  CD        -7.2370   -1.1760   29.7320 C.2   283  GLU283      0.3649
    138  OE1       -7.4490   -2.3120   30.2080 O.co2 283  GLU283     -0.2457
    139  OE2       -8.1510   -0.3990   29.3650 O.co2 283  GLU283     -0.2457
    140  N         -8.7680    0.5470   22.8330 N.3   287  ARG287     -0.1245
    141  CA        -9.0810    1.9120   22.3640 C.3   287  ARG287      0.1563
    142  C         -8.8330    2.0480   20.8530 C.2   287  ARG287      0.2260
    143  O         -9.6460    2.6420   20.1530 O.2   287  ARG287     -0.2867
    144  CB        -8.2780    2.9660   23.1500 C.3   287  ARG287      0.0307
    145  CG        -8.6990    3.0400   24.6080 C.3   287  ARG287      0.0489
    146  CD        -8.0720    4.1660   25.3690 C.3   287  ARG287      0.2205
    147  NE        -7.4720    3.7150   26.6320 N.pl3 287  ARG287     -0.0865
    148  CZ        -8.1410    3.5110   27.7700 C.cat 287  ARG287      0.5346
    149  NH1       -7.4990    3.1170   28.8620 N.pl3 287  ARG287      0.1354
    150  NH2       -9.4530    3.6720   27.8160 N.pl3 287  ARG287      0.1354
    151  N        -11.5790    5.4240   30.2010 N.3   300  ASN300     -0.1240
    152  CA       -11.8940    4.8920   31.5280 C.3   300  ASN300      0.1653
    153  C        -13.2470    5.3420   32.0870 C.2   300  ASN300      0.2266
    154  O        -13.6600    4.8500   33.1310 O.2   300  ASN300     -0.2867
    155  CB       -10.8000    5.2970   32.4950 C.3   300  ASN300      0.1155
    156  CG        -9.4950    4.5570   32.2630 C.2   300  ASN300      0.2627
    157  OD1       -9.2890    3.8360   31.2740 O.2   300  ASN300     -0.2716
    158  ND2       -8.5820    4.7080   33.1830 N.am  300  ASN300     -0.0877
@<TRIPOS>BOND
     1   143   142    2
     2   142   141    1
     3   141   140    1
     4   141   144    1
     5   144   145    1
     6   145   146    1
     7   134   133    2
     8   146   147    1
     9   133   132    1
    10   147   148    2
    11   130   128    1
    12   131   132    1
    13   132   135    1
    14   123   122    2
    15   128   129    1
    16   128   127    2
    17   122   121    1
    18   148   150    1
    19   148   149    1
    20   127   126    1
    21   135   136    1
    22   125   126    1
    23   125   124    1
    24   119   118    1
    25   121   124    1
    26   121   120    1
    27   117   116    2
    28   139   137   ar
    29   136   137    1
    30   137   138   ar
    31   116   120   am
    32   116   115    1
    33   151   152    1
    34   118   115    1
    35   114   115    1
    36   114   112   am
    37   113   112    2
    38   112   111    1
    39   157   156    2
    40   152   153    1
    41   152   155    1
    42   111   110    1
    43   153   154    2
    44    86    85    1
    45    86    87    1
    46   156   155    1
    47   156   158   am
    48    88    87    2
    49   110   105   am
    50    87    89   am
    51    26    27    1
    52    26    25    1
    53    27    28    2
    54    28    29    1
    55    28    30    1
    56   105   106    2
    57   105   104    1
    58    89    90    1
    59    25    24    1
    60   109   107    1
    61   107   104    1
    62   107   108    1
    63    24    21    1
    64   103   104    1
    65   103    91   am
    66    23    22    2
    67    90    91    1
    68    90    93    1
    69    91    92    2
    70    21    22    1
    71    21    20    1
    72   100   102   ar
    73   100    98   ar
    74   102   101   ar
    75    97    98   ar
    76    97    95   ar
    77    98    96   ar
    78    95    94   ar
    79   101    99   ar
    80    96    99   ar
    81    96    94   ar
    82    38    37    1
    83    38    39    1
    84    37    36    1
    85    94    93    1
    86    36    35    1
    87     4     3    2
    88     6     5    1
    89     6     7    1
    90     3     5   am
    91     3     2    1
    92     2     1    1
    93     8     7    2
    94    35    32    1
    95    31    32    1
    96     7     9   am
    97    59    57   ar
    98    59    60   ar
    99    32    33    1
   100    57    56   ar
   101    60    58   ar
   102    56    58   ar
   103    56    55    1
   104     9    10    1
   105    75    74   ar
   106    43    42    2
   107    33    34    2
   108    55    52    1
   109    11    12    2
   110    11    10    1
   111    76    74   ar
   112    45    44    1
   113    74    73    1
   114    67    66   ar
   115    10    13    1
   116    68    66   ar
   117    51    52    1
   118    51    49   am
   119    84    82   ar
   120    48    47    1
   121    48    49    1
   122    73    70    1
   123    42    47   am
   124    42    41    1
   125    66    65    1
   126    40    41    1
   127    52    53    1
   128    49    50    2
   129    44    41    1
   130    44    46    1
   131    82    81    1
   132    82    83   ar
   133    13    14    1
   134    81    78    1
   135    61    53   am
   136    61    62    1
   137    53    54    2
   138    65    62    1
   139    70    71    1
   140    70    69    1
   141    64    63    2
   142    14    16   ar
   143    14    15   ar
   144    16    18   ar
   145    71    72    2
   146    15    17   ar
   147    62    63    1
   148    18    19   ar
   149    17    19   ar
   150    78    79    1
   151    78    77    1
   152    80    79    2
