@<TRIPOS>MOLECULE
tmp/4qziA00.pdb
 90 86 0 0 0
SMALL
GASTEIGER

@<TRIPOS>ATOM
      1  N         12.3370    4.3780   34.5600 N.3   185  GLY185     -0.1210
      2  CA        10.9010    4.4130   34.3460 C.3   185  GLY185      0.1956
      3  C         10.3480    5.7830   34.0100 C.2   185  GLY185      0.2612
      4  O         11.0870    6.6610   33.5480 O.2   185  GLY185     -0.2717
      5  N          9.0610    5.9670   34.3130 N.am  186  GLY186     -0.1942
      6  CA         8.3110    7.1870   34.0710 C.3   186  GLY186      0.2014
      7  C          8.9050    8.4380   34.6420 C.2   186  GLY186      0.2638
      8  O          8.9010    9.4690   33.9770 O.2   186  GLY186     -0.2714
      9  N          9.4290    8.3610   35.8710 N.am  187  PHE187     -0.1973
     10  CA        10.0310    9.5090   36.5640 C.3   187  PHE187      0.1639
     11  C         11.2540   10.0290   35.7910 C.2   187  PHE187      0.2290
     12  O         11.4130   11.2490   35.6770 O.2   187  PHE187     -0.2864
     13  CB        10.3400    9.1950   38.0320 C.3   187  PHE187      0.0560
     14  CG         9.1080    9.0230   38.9050 C.ar  187  PHE187     -0.0200
     15  CD1        8.3290   10.1160   39.2690 C.ar  187  PHE187     -0.0042
     16  CD2        8.7160    7.7640   39.3500 C.ar  187  PHE187     -0.0042
     17  CE1        7.1770    9.9490   40.0540 C.ar  187  PHE187     -0.0003
     18  CE2        7.5690    7.6030   40.1380 C.ar  187  PHE187     -0.0003
     19  CZ         6.8030    8.6950   40.4790 C.ar  187  PHE187     -0.0000
     20  N         11.4810    9.9050   32.5590 N.3   189  ARG189     -0.1245
     21  CA        10.8590   10.4980   31.3670 C.3   189  ARG189      0.1563
     22  C         10.0970   11.8070   31.6840 C.2   189  ARG189      0.2260
     23  O          9.4120   12.3480   30.8020 O.2   189  ARG189     -0.2867
     24  CB         9.8880    9.5020   30.6850 C.3   189  ARG189      0.0307
     25  CG        10.5370    8.2250   30.1720 C.3   189  ARG189      0.0489
     26  CD         9.6150    7.4510   29.2440 C.3   189  ARG189      0.2205
     27  NE         8.2480    7.3120   29.7500 N.pl3 189  ARG189     -0.0865
     28  CZ         7.8260    6.3070   30.5040 C.cat 189  ARG189      0.5346
     29  NH1        6.5750    6.2670   30.9160 N.pl3 189  ARG189      0.1354
     30  NH2        8.6600    5.3410   30.8650 N.pl3 189  ARG189      0.1354
     31  N          7.6860   12.2290   34.2380 N.3   191  LYS191     -0.1245
     32  CA         6.3600   12.0890   34.8210 C.3   191  LYS191      0.1561
     33  C          6.3150   12.5930   36.2670 C.2   191  LYS191      0.2260
     34  O          7.3000   12.4830   37.0060 O.2   191  LYS191     -0.2867
     35  CB         5.8990   10.6410   34.7650 C.3   191  LYS191      0.0271
     36  CG         5.4780   10.2090   33.3610 C.3   191  LYS191      0.0035
     37  CD         4.9260    8.7950   33.3640 C.3   191  LYS191      0.0206
     38  CE         3.4600    8.7930   33.7460 C.3   191  LYS191      0.1093
     39  NZ         3.0500    7.6100   34.5420 N.3   191  LYS191     -0.1314
     40  N          3.5380    7.9140   39.1680 N.3   194  GLY194     -0.1210
     41  CA         3.7740    6.5500   38.7070 C.3   194  GLY194      0.1956
     42  C          3.1440    5.5130   39.6070 C.2   194  GLY194      0.2612
     43  O          2.7240    5.8610   40.7080 O.2   194  GLY194     -0.2717
     44  N          3.0550    4.2470   39.1560 N.am  195  HIS195     -0.1961
     45  CA         2.4940    3.1370   39.9450 C.3   195  HIS195      0.1787
     46  C          3.5760    2.5850   40.9000 C.2   195  HIS195      0.2620
     47  O          3.2860    1.9570   41.9240 O.2   195  HIS195     -0.2715
     48  CB         1.9390    2.0330   39.0060 C.3   195  HIS195      0.0785
     49  CG         2.9220    0.9520   38.5820 C.ar  195  HIS195      0.0821
     50  ND1        3.6960    1.0670   37.4150 N.ar  195  HIS195     -0.2267
     51  CD2        3.1840   -0.2550   39.1490 C.ar  195  HIS195      0.1154
     52  CE1        4.4200   -0.0450   37.3420 C.ar  195  HIS195      0.1986
     53  NE2        4.1570   -0.8690   38.3660 N.ar  195  HIS195     -0.2212
     54  N          4.8400    2.8040   40.5130 N.am  196  ASP196     -0.1971
     55  CA         6.0070    2.3490   41.2380 C.3   196  ASP196      0.1709
     56  C          7.2020    3.2720   41.0320 C.2   196  ASP196      0.2293
     57  O          7.0850    4.2520   40.3160 O.2   196  ASP196     -0.2864
     58  CB         6.3270    0.9280   40.7970 C.3   196  ASP196      0.1436
     59  CG         6.9410    0.6480   39.4480 C.2   196  ASP196      0.3671
     60  OD1        7.1400    1.6070   38.6430 O.co2 196  ASP196     -0.2456
     61  OD2        7.3710   -0.4890   39.2480 O.co2 196  ASP196     -0.2456
     62  N         11.3160    2.8620   39.9880 N.3   198  ASP198     -0.1239
     63  CA        12.2990    1.9200   39.4540 C.3   198  ASP198      0.1674
     64  C         13.7160    2.4860   39.5200 C.2   198  ASP198      0.2266
     65  O         13.9220    3.6920   39.3310 O.2   198  ASP198     -0.2867
     66  CB        11.9530    1.5360   37.9990 C.3   198  ASP198      0.1410
     67  CG        10.5360    1.0520   37.8050 C.2   198  ASP198      0.3668
     68  OD1       10.0160    0.3680   38.7020 O.co2 198  ASP198     -0.2456
     69  OD2        9.9190    1.4340   36.8100 O.co2 198  ASP198     -0.2456
     70  N         12.0030    3.1520   29.3110 N.3   278  GLY278     -0.1210
     71  CA        10.7480    3.0820   28.5800 C.3   278  GLY278      0.1956
     72  C         10.5080    4.2600   27.6450 C.2   278  GLY278      0.2613
     73  O         11.4590    4.9040   27.2120 O.2   278  GLY278     -0.2717
     74  N          9.2540    4.5650   27.2770 N.am  279  SER279     -0.1938
     75  CA         8.0090    3.8860   27.6760 C.3   279  SER279      0.2055
     76  C          7.9340    2.4660   27.0650 C.2   279  SER279      0.2642
     77  O          8.7920    2.1130   26.2610 O.2   279  SER279     -0.2714
     78  CB         6.8240    4.7130   27.2100 C.3   279  SER279      0.2130
     79  OG         6.8030    4.6800   25.7960 O.3   279  SER279     -0.2179
     80  N          6.9050    1.6660   27.4300 N.am  280  ARG280     -0.1977
     81  CA         6.6800    0.3300   26.8870 C.3   280  ARG280      0.1597
     82  C          6.6310    0.4080   25.3450 C.2   280  ARG280      0.2287
     83  O          7.2590   -0.4180   24.6800 O.2   280  ARG280     -0.2864
     84  CB         5.3670   -0.2980   27.4840 C.3   280  ARG280      0.0334
     85  CG         4.5450   -1.1700   26.5280 C.3   280  ARG280      0.0492
     86  CD         4.0580   -2.4930   27.0370 C.3   280  ARG280      0.2205
     87  NE         2.6100   -2.4800   27.2260 N.pl3 280  ARG280     -0.0865
     88  CZ         1.7850   -3.4590   26.8700 C.cat 280  ARG280      0.5346
     89  NH1        2.2590   -4.5730   26.3190 N.pl3 280  ARG280      0.1354
     90  NH2        0.4820   -3.3390   27.0720 N.pl3 280  ARG280      0.1354
@<TRIPOS>BOND
     1    83    82    2
     2    82    81    1
     3    79    78    1
     4    77    76    2
     5    89    88    1
     6    85    86    1
     7    85    84    1
     8    88    90    1
     9    88    87    2
    10    81    80    1
    11    81    84    1
    12    86    87    1
    13    76    80   am
    14    76    75    1
    15    78    75    1
    16    73    72    2
    17    74    72   am
    18    74    75    1
    19    72    71    1
    20    71    70    1
    21    26    27    1
    22    26    25    1
    23    27    28    2
    24    25    24    1
    25    28    30    1
    26    28    29    1
    27    24    21    1
    28    23    22    2
    29    21    22    1
    30    21    20    1
    31    36    37    1
    32    36    35    1
    33    37    38    1
    34     4     3    2
    35    38    39    1
    36     8     7    2
    37     3     5   am
    38     3     2    1
    39     6     5    1
    40     6     7    1
    41    31    32    1
    42     2     1    1
    43     7     9   am
    44    35    32    1
    45    32    33    1
    46    12    11    2
    47    11    10    1
    48     9    10    1
    49    33    34    2
    50    10    13    1
    51    69    67   ar
    52    52    50   ar
    53    52    53   ar
    54    50    49   ar
    55    67    66    1
    56    67    68   ar
    57    66    63    1
    58    13    14    1
    59    53    51   ar
    60    49    48    1
    61    49    51   ar
    62    60    59   ar
    63    41    40    1
    64    41    42    1
    65    14    15   ar
    66    14    16   ar
    67    48    45    1
    68    44    42   am
    69    44    45    1
    70    61    59   ar
    71    15    17   ar
    72    65    64    2
    73    16    18   ar
    74    59    58    1
    75    63    64    1
    76    63    62    1
    77    42    43    2
    78    45    46    1
    79    17    19   ar
    80    18    19   ar
    81    57    56    2
    82    54    46   am
    83    54    55    1
    84    58    55    1
    85    46    47    2
    86    56    55    1
