@<TRIPOS>MOLECULE
tmp/4qzzH00.pdb
 96 87 0 0 0
SMALL
GASTEIGER

@<TRIPOS>ATOM
      1  N         64.7440 -139.6790   44.8910 N.3     1  THR1       -0.1218
      2  CA        65.0770 -138.4190   45.6110 C.3     1  THR1        0.1862
      3  C         65.1610 -138.7730   47.0790 C.2     1  THR1        0.2287
      4  O         64.2580 -139.4030   47.6270 O.2     1  THR1       -0.2866
      5  CB        64.0030 -137.3520   45.3990 C.3     1  THR1        0.1770
      6  OG1       64.0730 -136.9150   44.0400 O.3     1  THR1       -0.2211
      7  CG2       64.2050 -136.1460   46.3260 C.3     1  THR1        0.0375
      8  N         70.5960 -136.6170   42.1250 N.3    19  ARG19      -0.1231
      9  CA        70.0880 -137.3020   40.9290 C.3    19  ARG19       0.1694
     10  C         68.6580 -136.8790   40.6020 C.2    19  ARG19       0.2593
     11  O         67.7660 -136.9980   41.4430 O.2    19  ARG19      -0.2718
     12  CB        70.1320 -138.8240   41.1140 C.3    19  ARG19       0.0321
     13  CG        69.4800 -139.6050   39.9750 C.3    19  ARG19       0.0489
     14  CD        69.4500 -141.1030   40.2330 C.3    19  ARG19       0.2205
     15  NE        70.7700 -141.7170   40.1030 N.pl3  19  ARG19      -0.0865
     16  CZ        71.0180 -143.0210   40.2340 C.cat  19  ARG19       0.5346
     17  NH1       70.0380 -143.8790   40.5040 N.pl3  19  ARG19       0.1354
     18  NH2       72.2600 -143.4720   40.0960 N.pl3  19  ARG19       0.1354
     19  N         68.4470 -136.3960   39.3780 N.am   20  SER20      -0.1938
     20  CA        67.0990 -136.1500   38.8560 C.3    20  SER20       0.2055
     21  C         66.8090 -137.1380   37.7320 C.2    20  SER20       0.2643
     22  O         67.6520 -137.3590   36.8630 O.2    20  SER20      -0.2714
     23  CB        66.9540 -134.7150   38.3450 C.3    20  SER20       0.2130
     24  OG        67.6380 -134.5280   37.1200 O.3    20  SER20      -0.2179
     25  N         65.6130 -137.7210   37.7500 N.am   21  THR21      -0.1950
     26  CA        65.2680 -138.8020   36.8310 C.3    21  THR21       0.1897
     27  C         63.9790 -138.5400   36.0610 C.2    21  THR21       0.2313
     28  O         63.0060 -138.0310   36.6180 O.2    21  THR21      -0.2863
     29  CB        65.0940 -140.1340   37.5860 C.3    21  THR21       0.1794
     30  OG1       64.0780 -139.9910   38.5860 O.3    21  THR21      -0.2208
     31  CG2       66.3920 -140.5530   38.2490 C.3    21  THR21       0.0378
     32  N         61.5990 -141.0100   34.3960 N.3    23  GLY23      -0.1225
     33  CA        61.3340 -142.4430   34.2950 C.3    23  GLY23       0.1811
     34  C         62.5060 -143.2290   34.8630 C.2    23  GLY23       0.2280
     35  O         62.9320 -142.9720   35.9890 O.2    23  GLY23      -0.2866
     36  N         72.1930 -132.7170   40.0860 N.3    31  CYS31      -0.1235
     37  CA        71.0580 -131.8170   40.2760 C.3    31  CYS31       0.1677
     38  C         71.1240 -131.1420   41.6400 C.2    31  CYS31       0.2270
     39  O         71.5080 -131.7670   42.6270 O.2    31  CYS31      -0.2867
     40  CB        69.7510 -132.6050   40.1570 C.3    31  CYS31       0.0956
     41  SG        68.2490 -131.6030   40.2320 S.3    31  CYS31      -0.0801
     42  N         69.1130 -129.7850   44.6280 N.3    33  LYS33      -0.1245
     43  CA        67.7910 -129.9110   45.2540 C.3    33  LYS33       0.1561
     44  C         67.6030 -129.0340   46.4910 C.2    33  LYS33       0.2260
     45  O         66.4830 -128.8830   46.9720 O.2    33  LYS33      -0.2867
     46  CB        67.5320 -131.3680   45.6210 C.3    33  LYS33       0.0271
     47  CG        67.6600 -132.3010   44.4330 C.3    33  LYS33       0.0035
     48  CD        67.2540 -133.7190   44.7750 C.3    33  LYS33       0.0206
     49  CE        67.5860 -134.6520   43.6250 C.3    33  LYS33       0.1093
     50  NZ        67.0190 -136.0060   43.8450 N.3    33  LYS33      -0.1314
     51  N         63.6570 -130.1640   48.1740 N.3    45  GLY45      -0.1210
     52  CA        62.4280 -130.5020   47.4640 C.3    45  GLY45       0.1956
     53  C         62.4440 -131.8590   46.7910 C.2    45  GLY45       0.2612
     54  O         63.4530 -132.2680   46.2130 O.2    45  GLY45      -0.2717
     55  N         61.3060 -132.5470   46.8760 N.am   46  ALA46      -0.1965
     56  CA        61.0750 -133.8100   46.1820 C.3    46  ALA46       0.1728
     57  C         59.7500 -133.7280   45.4370 C.2    46  ALA46       0.2617
     58  O         58.9280 -132.8550   45.7180 O.2    46  ALA46      -0.2715
     59  CB        61.0450 -134.9580   47.1740 C.3    46  ALA46       0.0334
     60  N         59.5460 -134.6430   44.4950 N.am   47  GLY47      -0.1940
     61  CA        58.3430 -134.6520   43.6650 C.3    47  GLY47       0.2014
     62  C         58.5970 -133.9640   42.3380 C.2    47  GLY47       0.2640
     63  O         59.6920 -134.0660   41.7810 O.2    47  GLY47      -0.2714
     64  N         57.5870 -133.2650   41.8300 N.am   48  THR48      -0.1936
     65  CA        57.6980 -132.5630   40.5530 C.3    48  THR48       0.2028
     66  C         58.7270 -131.4390   40.6760 C.2    48  THR48       0.2642
     67  O         58.5060 -130.4590   41.3850 O.2    48  THR48      -0.2714
     68  CB        56.3390 -131.9930   40.1060 C.3    48  THR48       0.1808
     69  OG1       55.3280 -133.0010   40.2390 O.3    48  THR48      -0.2208
     70  CG2       56.3940 -131.5200   38.6560 C.3    48  THR48       0.0379
     71  N         59.8490 -131.6020   39.9790 N.am   49  ALA49      -0.1977
     72  CA        61.0250 -130.7370   40.1450 C.3    49  ALA49       0.1597
     73  C         60.7650 -129.2700   39.8170 C.2    49  ALA49       0.2287
     74  O         61.2880 -128.3800   40.4920 O.2    49  ALA49      -0.2864
     75  CB        62.1750 -131.2590   39.2970 C.3    49  ALA49       0.0319
     76  N         58.7380 -127.7040   42.7800 N.3    52  THR52      -0.1218
     77  CA        59.5520 -127.4210   43.9690 C.3    52  THR52       0.1862
     78  C         60.4140 -126.1780   43.7620 C.2    52  THR52       0.2287
     79  O         60.5440 -125.3590   44.6640 O.2    52  THR52      -0.2866
     80  CB        60.4710 -128.5980   44.3610 C.3    52  THR52       0.1770
     81  OG1       61.3600 -128.9010   43.2800 O.3    52  THR52      -0.2211
     82  CG2       59.6530 -129.8350   44.7190 C.3    52  THR52       0.0375
     83  N         60.8280 -138.1980   49.9160 N.3   128  GLY128     -0.1210
     84  CA        61.2120 -138.7220   48.6030 C.3   128  GLY128      0.1956
     85  C         61.2170 -140.2400   48.5320 C.2   128  GLY128      0.2612
     86  O         60.8930 -140.9170   49.5090 O.2   128  GLY128     -0.2717
     87  N         61.5950 -140.7710   47.3690 N.am  129  SER129     -0.1952
     88  CA        61.5990 -142.2220   47.1320 C.3   129  SER129      0.1924
     89  C         62.6130 -142.9630   48.0080 C.2   129  SER129      0.2314
     90  O         62.4380 -144.1460   48.2970 O.2   129  SER129     -0.2863
     91  CB        61.8640 -142.5360   45.6530 C.3   129  SER129      0.2116
     92  OG        63.1530 -142.1030   45.2580 O.3   129  SER129     -0.2180
     93  N         65.8860 -144.4040   42.7250 N.3   168  GLY168     -0.1225
     94  CA        65.4850 -143.0290   42.4520 C.3   168  GLY168      0.1811
     95  C         66.4970 -141.9910   42.9050 C.2   168  GLY168      0.2280
     96  O         66.4050 -140.8260   42.5110 O.2   168  GLY168     -0.2866
@<TRIPOS>BOND
     1    33    32    1
     2    33    34    1
     3    34    35    2
     4    27    28    2
     5    27    26    1
     6    26    29    1
     7    26    25    1
     8    22    21    2
     9    24    23    1
    10    29    31    1
    11    29    30    1
    12    21    25   am
    13    21    20    1
    14    23    20    1
    15    70    68    1
    16    20    19    1
    17    75    72    1
    18    19    10   am
    19    73    72    1
    20    73    74    2
    21    13    14    1
    22    13    12    1
    23    71    72    1
    24    71    66   am
    25    36    37    1
    26    18    16    1
    27    15    14    1
    28    15    16    2
    29    68    69    1
    30    68    65    1
    31    40    41    1
    32    40    37    1
    33    16    17    1
    34    37    38    1
    35    65    66    1
    36    65    64    1
    37    10     9    1
    38    10    11    2
    39    66    67    2
    40     9    12    1
    41     9     8    1
    42    38    39    2
    43    63    62    2
    44    64    62   am
    45    62    61    1
    46    94    93    1
    47    94    95    1
    48    96    95    2
    49    76    77    1
    50    81    80    1
    51    49    50    1
    52    49    48    1
    53    61    60    1
    54    78    77    1
    55    78    79    2
    56    77    80    1
    57     6     5    1
    58    80    82    1
    59    47    48    1
    60    47    46    1
    61    60    57   am
    62    42    43    1
    63     1     2    1
    64    43    46    1
    65    43    44    1
    66    92    91    1
    67     5     2    1
    68     5     7    1
    69    57    58    2
    70    57    56    1
    71     2     3    1
    72    91    88    1
    73    56    55    1
    74    56    59    1
    75    54    53    2
    76    44    45    2
    77    53    55   am
    78    53    52    1
    79     3     4    2
    80    88    87    1
    81    88    89    1
    82    87    85   am
    83    52    51    1
    84    89    90    2
    85    85    84    1
    86    85    86    2
    87    84    83    1
