@<TRIPOS>MOLECULE
tmp/4r00N00.pdb
 103 95 0 0 0
SMALL
GASTEIGER

@<TRIPOS>ATOM
      1  N         43.9200 -143.8410   63.0460 N.3     1  THR1       -0.1218
      2  CA        43.8670 -142.6200   63.9050 C.3     1  THR1        0.1862
      3  C         42.9550 -143.0000   65.0650 C.2     1  THR1        0.2287
      4  O         41.8530 -143.4820   64.8300 O.2     1  THR1       -0.2866
      5  CB        43.2950 -141.4260   63.1190 C.3     1  THR1        0.1770
      6  OG1       44.3210 -140.8800   62.2830 O.3     1  THR1       -0.2211
      7  CG2       42.7890 -140.3060   64.0370 C.3     1  THR1        0.0375
      8  N         50.3510 -141.6950   65.4960 N.3    19  ARG19      -0.1231
      9  CA        50.7440 -142.3500   64.2470 C.3    19  ARG19       0.1694
     10  C         50.1210 -141.6580   63.0290 C.2    19  ARG19       0.2593
     11  O         48.9310 -141.3440   63.0250 O.2    19  ARG19      -0.2718
     12  CB        50.3570 -143.8360   64.2810 C.3    19  ARG19       0.0321
     13  CG        50.8040 -144.6280   63.0600 C.3    19  ARG19       0.0489
     14  CD        50.6730 -146.1330   63.2570 C.3    19  ARG19       0.2205
     15  NE        51.6620 -146.6590   64.2010 N.pl3  19  ARG19      -0.0865
     16  CZ        51.8470 -147.9500   64.4670 C.cat  19  ARG19       0.5346
     17  NH1       51.1110 -148.8840   63.8660 N.pl3  19  ARG19       0.1354
     18  NH2       52.7810 -148.3130   65.3400 N.pl3  19  ARG19       0.1354
     19  N         50.9440 -141.4140   62.0100 N.am   20  THR20      -0.1939
     20  CA        50.4790 -140.9350   60.7040 C.3    20  THR20       0.2028
     21  C         50.9860 -141.8870   59.6310 C.2    20  THR20       0.2642
     22  O         52.1940 -142.0730   59.4900 O.2    20  THR20      -0.2714
     23  CB        51.0020 -139.5190   60.3930 C.3    20  THR20       0.1808
     24  OG1       50.6850 -138.6420   61.4790 O.3    20  THR20      -0.2208
     25  CG2       50.3780 -138.9740   59.1100 C.3    20  THR20       0.0379
     26  N         50.0660 -142.4820   58.8740 N.am   21  THR21      -0.1950
     27  CA        50.4250 -143.5090   57.8970 C.3    21  THR21       0.1897
     28  C         50.0920 -143.1190   56.4620 C.2    21  THR21       0.2313
     29  O         49.0280 -142.5660   56.1870 O.2    21  THR21      -0.2863
     30  CB        49.7050 -144.8380   58.1860 C.3    21  THR21       0.1794
     31  OG1       48.2980 -144.6030   58.3120 O.3    21  THR21      -0.2208
     32  CG2       50.2270 -145.4640   59.4620 C.3    21  THR21       0.0378
     33  N         53.3570 -137.8150   65.8250 N.3    31  THR31      -0.1218
     34  CA        52.4680 -136.7400   65.3770 C.3    31  THR31       0.1862
     35  C         51.6570 -136.1620   66.5350 C.2    31  THR31       0.2287
     36  O         51.2980 -136.8810   67.4710 O.2    31  THR31      -0.2866
     37  CB        51.4790 -137.2540   64.3060 C.3    31  THR31       0.1770
     38  OG1       52.1900 -138.0160   63.3260 O.3    31  THR31      -0.2211
     39  CG2       50.7530 -136.1000   63.6180 C.3    31  THR31       0.0375
     40  N         48.1510 -134.7200   67.1000 N.3    33  LYS33      -0.1245
     41  CA        46.8060 -134.5930   66.5350 C.3    33  LYS33       0.1561
     42  C         45.8880 -133.7410   67.4080 C.2    33  LYS33       0.2260
     43  O         44.7590 -133.4430   67.0170 O.2    33  LYS33      -0.2867
     44  CB        46.1920 -135.9780   66.3390 C.3    33  LYS33       0.0271
     45  CG        47.0300 -136.8850   65.4540 C.3    33  LYS33       0.0035
     46  CD        46.4160 -138.2620   65.3080 C.3    33  LYS33       0.0206
     47  CE        47.3550 -139.1750   64.5420 C.3    33  LYS33       0.1093
     48  NZ        46.7080 -140.4620   64.1810 N.3    33  LYS33      -0.1314
     49  N         41.9830 -134.2130   65.5030 N.3    45  ARG45      -0.1231
     50  CA        41.9020 -134.2980   64.0480 C.3    45  ARG45       0.1694
     51  C         41.9870 -135.7380   63.5440 C.2    45  ARG45       0.2593
     52  O         42.8410 -136.5110   63.9830 O.2    45  ARG45      -0.2718
     53  CB        43.0010 -133.4440   63.4140 C.3    45  ARG45       0.0321
     54  CG        42.8410 -131.9600   63.7070 C.3    45  ARG45       0.0489
     55  CD        43.9270 -131.1100   63.0680 C.3    45  ARG45       0.2205
     56  NE        45.2630 -131.4790   63.5320 N.pl3  45  ARG45      -0.0865
     57  CZ        46.1350 -132.2310   62.8590 C.cat  45  ARG45       0.5346
     58  NH1       45.8420 -132.7260   61.6560 N.pl3  45  ARG45       0.1354
     59  NH2       47.3200 -132.4930   63.4000 N.pl3  45  ARG45       0.1354
     60  N         41.0760 -136.0830   62.6320 N.am   46  SER46      -0.1938
     61  CA        41.0960 -137.3660   61.9250 C.3    46  SER46       0.2055
     62  C         40.6520 -137.1610   60.4810 C.2    46  SER46       0.2644
     63  O         39.8980 -136.2330   60.1830 O.2    46  SER46      -0.2714
     64  CB        40.1840 -138.3890   62.6050 C.3    46  SER46       0.2130
     65  OG        38.8160 -138.1300   62.3370 O.3    46  SER46      -0.2179
     66  N         41.1170 -138.0410   59.5980 N.am   47  GLY47      -0.1939
     67  CA        40.8580 -137.9290   58.1650 C.3    47  GLY47       0.2014
     68  C         42.0870 -137.4110   57.4470 C.2    47  GLY47       0.2640
     69  O         43.2090 -137.7860   57.7860 O.2    47  GLY47      -0.2714
     70  N         41.8780 -136.5520   56.4530 N.am   48  SER48      -0.1935
     71  CA        42.9840 -135.9450   55.7120 C.3    48  SER48       0.2055
     72  C         43.7640 -134.9790   56.6020 C.2    48  SER48       0.2642
     73  O         43.1880 -134.0620   57.1910 O.2    48  SER48      -0.2714
     74  CB        42.4680 -135.2130   54.4690 C.3    48  SER48       0.2130
     75  OG        43.4520 -134.3370   53.9420 O.3    48  SER48      -0.2179
     76  N         45.0740 -135.1950   56.6960 N.am   49  ALA49      -0.1977
     77  CA        45.9470 -134.3270   57.4860 C.3    49  ALA49       0.1597
     78  C         45.9860 -132.9210   56.9040 C.2    49  ALA49       0.2287
     79  O         45.9520 -131.9400   57.6400 O.2    49  ALA49      -0.2864
     80  CB        47.3510 -134.9050   57.5510 C.3    49  ALA49       0.0319
     81  N         42.3990 -131.2500   57.5730 N.3    52  THR52      -0.1218
     82  CA        42.1660 -130.9340   58.9870 C.3    52  THR52       0.1862
     83  C         43.0880 -129.8290   59.5080 C.2    52  THR52       0.2287
     84  O         42.6900 -129.0450   60.3690 O.2    52  THR52      -0.2866
     85  CB        42.3080 -132.1770   59.8860 C.3    52  THR52       0.1770
     86  OG1       43.5940 -132.7770   59.6830 O.3    52  THR52      -0.2211
     87  CG2       41.2110 -133.1850   59.5790 C.3    52  THR52       0.0375
     88  N         37.9710 -141.6470   64.4110 N.3   128  GLY128     -0.1210
     89  CA        39.1490 -142.2020   63.7570 C.3   128  GLY128      0.1956
     90  C         38.9830 -143.6910   63.5310 C.2   128  GLY128      0.2612
     91  O         38.1170 -144.3230   64.1350 O.2   128  GLY128     -0.2717
     92  N         39.8220 -144.2480   62.6610 N.am  129  SER129     -0.1952
     93  CA        39.7450 -145.6660   62.2910 C.3   129  SER129      0.1924
     94  C         39.7710 -146.5970   63.5050 C.2   129  SER129      0.2314
     95  O         39.0610 -147.6010   63.5390 O.2   129  SER129     -0.2863
     96  CB        40.8890 -146.0320   61.3400 C.3   129  SER129      0.2116
     97  OG        42.1480 -145.7360   61.9150 O.3   129  SER129     -0.2180
     98  N         46.4730 -148.5630   61.8090 N.3   168  SER168     -0.1217
     99  CA        46.5940 -147.1420   61.4780 C.3   168  SER168      0.1889
    100  C         46.8690 -146.2620   62.6990 C.2   168  SER168      0.2288
    101  O         47.2420 -145.0970   62.5480 O.2   168  SER168     -0.2866
    102  CB        45.3260 -146.6520   60.7760 C.3   168  SER168      0.2089
    103  OG        45.0270 -147.4520   59.6440 O.3   168  SER168     -0.2183
@<TRIPOS>BOND
     1    75    74    1
     2    74    71    1
     3    71    70    1
     4    71    72    1
     5    29    28    2
     6    70    68   am
     7    28    27    1
     8    72    76   am
     9    72    73    2
    10    76    77    1
    11    78    77    1
    12    78    79    2
    13    68    69    2
    14    68    67    1
    15    77    80    1
    16    81    82    1
    17    27    30    1
    18    27    26    1
    19    67    66    1
    20    30    31    1
    21    30    32    1
    22    26    21   am
    23    82    83    1
    24    82    85    1
    25    25    23    1
    26    22    21    2
    27    83    84    2
    28    87    85    1
    29    66    62   am
    30    21    20    1
    31   103   102    1
    32    86    85    1
    33    63    62    2
    34    23    20    1
    35    23    24    1
    36    62    61    1
    37    20    19    1
    38   102    99    1
    39    96    97    1
    40    96    93    1
    41    99    98    1
    42    99   100    1
    43    58    57    1
    44    61    64    1
    45    61    60    1
    46    19    10   am
    47     6     5    1
    48    93    92    1
    49    93    94    1
    50    65    64    1
    51   101   100    2
    52    60    51   am
    53    92    90   am
    54    57    59    1
    55    57    56    2
    56    11    10    2
    57    10     9    1
    58     1     2    1
    59    13    14    1
    60    13    12    1
    61    55    56    1
    62    55    54    1
    63     5     2    1
    64     5     7    1
    65    14    15    1
    66    38    37    1
    67    53    54    1
    68    53    50    1
    69    94    95    2
    70    90    89    1
    71    90    91    2
    72    51    52    2
    73    51    50    1
    74    39    37    1
    75    89    88    1
    76    17    16    1
    77     2     3    1
    78    50    49    1
    79    48    47    1
    80    15    16    2
    81     9    12    1
    82     9     8    1
    83    37    34    1
    84    16    18    1
    85    47    46    1
    86     4     3    2
    87    46    45    1
    88    34    33    1
    89    34    35    1
    90    45    44    1
    91    44    41    1
    92    35    36    2
    93    41    40    1
    94    41    42    1
    95    43    42    2
