@<TRIPOS>MOLECULE
tmp/4r02K00.pdb
 116 108 0 0 0
SMALL
GASTEIGER

@<TRIPOS>ATOM
      1  N         11.6060 -140.9260    9.6910 N.3     1  THR1       -0.1218
      2  CA        11.4440 -139.6880    8.8700 C.3     1  THR1        0.1862
      3  C         12.0610 -139.8140    7.4890 C.2     1  THR1        0.2287
      4  O         13.1460 -140.3740    7.3270 O.2     1  THR1       -0.2866
      5  CB        12.1000 -138.4740    9.5520 C.3     1  THR1        0.1770
      6  OG1       11.4710 -138.2430   10.8200 O.3     1  THR1       -0.2211
      7  CG2       11.9930 -137.2050    8.6920 C.3     1  THR1        0.0375
      8  N          5.5040 -139.0820   10.2580 N.3    19  ARG19      -0.1231
      9  CA         5.6290 -139.9410   11.4400 C.3    19  ARG19       0.1694
     10  C          6.6440 -139.4040   12.4470 C.2    19  ARG19       0.2592
     11  O          7.6740 -138.8430   12.0710 O.2    19  ARG19      -0.2718
     12  CB         6.0180 -141.3680   11.0400 C.3    19  ARG19       0.0321
     13  CG         6.2700 -142.2890   12.2300 C.3    19  ARG19       0.0489
     14  CD         6.3420 -143.7520   11.8300 C.3    19  ARG19       0.2205
     15  NE         5.0750 -144.2430   11.2940 N.pl3  19  ARG19      -0.0865
     16  CZ         4.8610 -145.4920   10.8870 C.cat  19  ARG19       0.5346
     17  NH1        5.8270 -146.4030   10.9540 N.pl3  19  ARG19       0.1354
     18  NH2        3.6700 -145.8340   10.4110 N.pl3  19  ARG19       0.1354
     19  N          6.3340 -139.5870   13.7290 N.am   20  ALA20      -0.1966
     20  CA         7.2740 -139.3270   14.8140 C.3    20  ALA20       0.1728
     21  C          7.2860 -140.5340   15.7470 C.2    20  ALA20       0.2617
     22  O          6.2350 -141.1110   16.0340 O.2    20  ALA20      -0.2715
     23  CB         6.8820 -138.0710   15.5720 C.3    20  ALA20       0.0334
     24  N          8.4760 -140.9130   16.2090 N.am   21  THR21      -0.1937
     25  CA         8.6410 -142.0810   17.0720 C.3    21  THR21       0.2028
     26  C          9.5280 -141.7830   18.2760 C.2    21  THR21       0.2642
     27  O         10.4100 -140.9230   18.2180 O.2    21  THR21      -0.2714
     28  CB         9.2700 -143.2620   16.3050 C.3    21  THR21       0.1808
     29  OG1       10.4650 -142.8250   15.6460 O.3    21  THR21      -0.2208
     30  CG2        8.3010 -143.8180   15.2740 C.3    21  THR21       0.0379
     31  N          9.2700 -142.4980   19.3680 N.am   22  ALA22      -0.1977
     32  CA        10.1630 -142.5380   20.5180 C.3    22  ALA22       0.1597
     33  C         10.5020 -144.0050   20.7550 C.2    22  ALA22       0.2287
     34  O          9.7080 -144.7490   21.3330 O.2    22  ALA22      -0.2864
     35  CB         9.4950 -141.9290   21.7390 C.3    22  ALA22       0.0319
     36  N          4.5830 -142.3860   18.1020 N.3    27  ALA27      -0.1231
     37  CA         4.0200 -141.3250   18.9310 C.3    27  ALA27       0.1694
     38  C          2.9640 -140.5170   18.1880 C.2    27  ALA27       0.2592
     39  O          1.9150 -140.2050   18.7490 O.2    27  ALA27      -0.2718
     40  CB         5.1290 -140.4080   19.4200 C.3    27  ALA27       0.0304
     41  N          3.2460 -140.1740   16.9340 N.am   28  SER28      -0.1952
     42  CA         2.3020 -139.4250   16.1030 C.3    28  SER28       0.1924
     43  C          2.4220 -139.8180   14.6360 C.2    28  SER28       0.2314
     44  O          3.5090 -140.1440   14.1610 O.2    28  SER28      -0.2863
     45  CB         2.5430 -137.9210   16.2480 C.3    28  SER28       0.2116
     46  OG         1.7480 -137.1820   15.3340 O.3    28  SER28      -0.2180
     47  N          2.4190 -135.3900   12.3260 N.3    31  VAL31      -0.1245
     48  CA         3.3800 -134.3030   12.5430 C.3    31  VAL31       0.1561
     49  C          3.6060 -133.4960   11.2620 C.2    31  VAL31       0.2260
     50  O          3.6530 -134.0570   10.1680 O.2    31  VAL31      -0.2867
     51  CB         4.7320 -134.8410   13.0720 C.3    31  VAL31       0.0252
     52  CG1        5.8200 -133.7720   13.0260 C.3    31  VAL31       0.0019
     53  CG2        4.5670 -135.3590   14.4920 C.3    31  VAL31       0.0019
     54  N          6.1440 -131.6130    9.1560 N.3    33  LYS33      -0.1245
     55  CA         7.5980 -131.5420    8.9880 C.3    33  LYS33       0.1561
     56  C          8.0560 -130.4630    8.0070 C.2    33  LYS33       0.2260
     57  O          9.2430 -130.3700    7.7000 O.2    33  LYS33      -0.2867
     58  CB         8.1410 -132.9060    8.5700 C.3    33  LYS33       0.0271
     59  CG         7.9310 -133.9580    9.6400 C.3    33  LYS33       0.0035
     60  CD         8.5720 -135.2770    9.2710 C.3    33  LYS33       0.0206
     61  CE         8.2640 -136.3260   10.3210 C.3    33  LYS33       0.1093
     62  NZ         8.4540 -137.6920    9.7790 N.3    33  LYS33      -0.1314
     63  N         12.0460 -130.6540    8.3080 N.3    45  MET45      -0.1230
     64  CA        12.5000 -131.0990    9.6220 C.3    45  MET45       0.1702
     65  C         12.8980 -132.5700    9.6550 C.2    45  MET45       0.2592
     66  O         12.1440 -133.4370    9.2120 O.2    45  MET45      -0.2718
     67  CB        11.4000 -130.8980   10.6520 C.3    45  MET45       0.0401
     68  CG        10.8400 -129.4950   10.7490 C.3    45  MET45       0.0596
     69  SD         9.9220 -129.4010   12.2970 S.3    45  MET45      -0.1393
     70  CE         8.7340 -128.1340   11.9250 C.3    45  MET45       0.0692
     71  N         14.0780 -132.8360   10.2100 N.am   46  ALA46      -0.1966
     72  CA        14.5280 -134.1970   10.4910 C.3    46  ALA46       0.1728
     73  C         15.4880 -134.1820   11.6780 C.2    46  ALA46       0.2617
     74  O         16.2790 -133.2530   11.8300 O.2    46  ALA46      -0.2715
     75  CB        15.1970 -134.8010    9.2680 C.3    46  ALA46       0.0334
     76  N         15.4130 -135.2170   12.5100 N.am   47  GLY47      -0.1940
     77  CA        16.2050 -135.2990   13.7360 C.3    47  GLY47       0.2014
     78  C         15.3330 -134.9760   14.9330 C.2    47  GLY47       0.2639
     79  O         14.2200 -135.4910   15.0500 O.2    47  GLY47      -0.2714
     80  N         15.8350 -134.1220   15.8210 N.am   48  GLY48      -0.1939
     81  CA        15.0660 -133.6730   16.9780 C.3    48  GLY48       0.2014
     82  C         13.8450 -132.8660   16.5710 C.2    48  GLY48       0.2638
     83  O         13.9560 -131.8880   15.8280 O.2    48  GLY48      -0.2714
     84  N         12.6770 -133.2840   17.0510 N.am   49  ALA49      -0.1977
     85  CA        11.4210 -132.6080   16.7310 C.3    49  ALA49       0.1597
     86  C         11.3940 -131.1890   17.2900 C.2    49  ALA49       0.2287
     87  O         11.0840 -130.2430   16.5700 O.2    49  ALA49      -0.2864
     88  CB        10.2410 -133.4060   17.2630 C.3    49  ALA49       0.0319
     89  N         20.1120 -131.7820   17.3440 N.3    96  SER96      -0.1217
     90  CA        19.9510 -132.8230   16.3380 C.3    96  SER96       0.1889
     91  C         19.0190 -132.3160   15.2470 C.2    96  SER96       0.2288
     92  O         17.8050 -132.2330   15.4400 O.2    96  SER96      -0.2866
     93  CB        19.4060 -134.0980   16.9790 C.3    96  SER96       0.2089
     94  OG        19.3420 -135.1560   16.0400 O.3    96  SER96      -0.2183
     95  N         16.8650 -137.9440    6.5470 N.3   130  GLY130     -0.1210
     96  CA        16.0990 -138.7260    7.5140 C.3   130  GLY130      0.1956
     97  C         16.4820 -140.1930    7.4900 C.2   130  GLY130      0.2612
     98  O         17.3020 -140.6190    6.6750 O.2   130  GLY130     -0.2717
     99  N         15.8730 -140.9660    8.3860 N.am  131  SER131     -0.1952
    100  CA        16.1280 -142.4040    8.4870 C.3   131  SER131      0.1924
    101  C         15.7870 -143.1690    7.2090 C.2   131  SER131      0.2314
    102  O         16.3410 -144.2400    6.9680 O.2   131  SER131     -0.2863
    103  CB        15.3450 -143.0020    9.6600 C.3   131  SER131      0.2116
    104  OG        13.9580 -142.7420    9.5350 O.3   131  SER131     -0.2180
    105  N         10.5210 -146.2850   10.5670 N.3   170  TYR170     -0.1241
    106  CA        10.3420 -145.0070   11.2670 C.3   170  TYR170      0.1605
    107  C          9.7980 -143.8770   10.3810 C.2   170  TYR170      0.2264
    108  O          9.7110 -142.7310   10.8250 O.2   170  TYR170     -0.2867
    109  CB        11.6540 -144.6000   11.9450 C.3   170  TYR170      0.0534
    110  CG        12.1610 -145.6830   12.8690 C.ar  170  TYR170     -0.0201
    111  CD1       11.4970 -145.9690   14.0570 C.ar  170  TYR170     -0.0009
    112  CD2       13.2760 -146.4470   12.5410 C.ar  170  TYR170     -0.0009
    113  CE1       11.9390 -146.9710   14.9020 C.ar  170  TYR170      0.0417
    114  CE2       13.7260 -147.4530   13.3820 C.ar  170  TYR170      0.0417
    115  CZ        13.0540 -147.7100   14.5600 C.ar  170  TYR170      0.1957
    116  OH        13.4930 -148.7050   15.4030 O.3   170  TYR170     -0.2866
@<TRIPOS>BOND
     1    95    96    1
     2    98    97    2
     3   102   101    2
     4   101   100    1
     5     4     3    2
     6     3     2    1
     7    97    96    1
     8    97    99   am
     9    57    56    2
    10    56    55    1
    11    63    64    1
    12    99   100    1
    13   100   103    1
    14    58    55    1
    15    58    59    1
    16     7     5    1
    17     2     5    1
    18     2     1    1
    19    55    54    1
    20    66    65    2
    21    75    72    1
    22    60    59    1
    23    60    61    1
    24   104   103    1
    25     5     6    1
    26    64    65    1
    27    64    67    1
    28    65    71   am
    29    62    61    1
    30    50    49    2
    31    71    72    1
    32     8     9    1
    33   107   108    2
    34   107   106    1
    35    18    16    1
    36    72    73    1
    37   105   106    1
    38    67    68    1
    39    68    69    1
    40    16    17    1
    41    16    15    2
    42    12     9    1
    43    12    13    1
    44    49    48    1
    45   106   109    1
    46    15    14    1
    47     9    10    1
    48    73    74    2
    49    73    76   am
    50    14    13    1
    51    70    69    1
    52   109   110    1
    53    11    10    2
    54    47    48    1
    55    10    19   am
    56    76    77    1
    57   112   110   ar
    58   112   114   ar
    59    48    51    1
    60   110   111   ar
    61    52    51    1
    62    51    53    1
    63   114   115   ar
    64    19    20    1
    65    77    78    1
    66   111   113   ar
    67    44    43    2
    68   115   113   ar
    69   115   116    1
    70    43    42    1
    71    20    23    1
    72    20    21    1
    73    78    79    2
    74    78    80   am
    75    91    92    2
    76    91    90    1
    77    30    28    1
    78    46    45    1
    79    29    28    1
    80    21    22    2
    81    21    24   am
    82    80    81    1
    83    83    82    2
    84    94    93    1
    85    42    45    1
    86    42    41    1
    87    24    25    1
    88    28    25    1
    89    90    93    1
    90    90    89    1
    91    87    86    2
    92    82    81    1
    93    82    84   am
    94    85    84    1
    95    85    88    1
    96    85    86    1
    97    41    38   am
    98    25    26    1
    99    36    37    1
   100    38    39    2
   101    38    37    1
   102    27    26    2
   103    26    31   am
   104    37    40    1
   105    31    32    1
   106    32    33    1
   107    32    35    1
   108    33    34    2
