@<TRIPOS>MOLECULE
tmp/4r06A00.pdb
 242 231 0 0 0
SMALL
GASTEIGER

@<TRIPOS>ATOM
      1  N         22.0030   38.0330    9.3780 N.3    58  ILE58      -0.1231
      2  CA        21.4880   36.6690    9.3910 C.3    58  ILE58       0.1692
      3  C         21.2860   36.1180   10.8180 C.2    58  ILE58       0.2592
      4  O         20.2250   35.5730   11.1380 O.2    58  ILE58      -0.2718
      5  CB        22.3950   35.7470    8.5520 C.3    58  ILE58       0.0266
      6  CG1       22.1850   36.0280    7.0570 C.3    58  ILE58       0.0019
      7  CG2       22.1160   34.2830    8.8540 C.3    58  ILE58       0.0020
      8  CD1       23.2790   35.4700    6.1820 C.3    58  ILE58       0.0001
      9  N         22.3030   36.2580   11.6590 N.am   59  PHE59      -0.1976
     10  CA        22.1970   35.8910   13.0740 C.3    59  PHE59       0.1639
     11  C         21.0130   36.5450   13.7850 C.2    59  PHE59       0.2290
     12  O         20.2830   35.8810   14.5160 O.2    59  PHE59      -0.2864
     13  CB        23.4850   36.2450   13.8090 C.3    59  PHE59       0.0560
     14  CG        23.6190   35.5890   15.1650 C.ar   59  PHE59      -0.0200
     15  CD1       23.9150   34.2360   15.2690 C.ar   59  PHE59      -0.0042
     16  CD2       23.4800   36.3310   16.3300 C.ar   59  PHE59      -0.0042
     17  CE1       24.0580   33.6290   16.5020 C.ar   59  PHE59      -0.0003
     18  CE2       23.6230   35.7300   17.5770 C.ar   59  PHE59      -0.0003
     19  CZ        23.9160   34.3760   17.6610 C.ar   59  PHE59      -0.0000
     20  N         18.2930   37.6560   12.4230 N.3    61  GLY61      -0.1210
     21  CA        17.1010   37.0560   11.8440 C.3    61  GLY61       0.1956
     22  C         16.8310   35.6970   12.4530 C.2    61  GLY61       0.2612
     23  O         15.6910   35.3230   12.7430 O.2    61  GLY61      -0.2717
     24  N         17.9080   34.9570   12.6500 N.am   62  CYS62      -0.1956
     25  CA        17.8410   33.6590   13.2930 C.3    62  CYS62       0.1843
     26  C         17.3260   33.7940   14.7280 C.2    62  CYS62       0.2625
     27  O         16.6320   32.9070   15.2400 O.2    62  CYS62      -0.2714
     28  CB        19.2210   33.0090   13.2860 C.3    62  CYS62       0.0997
     29  SG        19.2850   31.4370   14.1450 S.3    62  CYS62      -0.0797
     30  N         17.6730   34.9070   15.3770 N.am   63  GLN63      -0.1963
     31  CA        17.2340   35.1700   16.7460 C.3    63  GLN63       0.1733
     32  C         15.7330   35.3550   16.7970 C.2    63  GLN63       0.2616
     33  O         15.0650   34.7930   17.6710 O.2    63  GLN63      -0.2715
     34  CB        17.8920   36.4230   17.3120 C.3    63  GLN63       0.0408
     35  CG        19.2680   36.2170   17.8750 C.3    63  GLN63       0.0908
     36  CD        19.5380   37.1490   19.0430 C.2    63  GLN63       0.2608
     37  OE1       19.6030   36.7130   20.1930 O.2    63  GLN63      -0.2717
     38  NE2       19.6880   38.4390   18.7560 N.am   63  GLN63      -0.0878
     39  N         15.2130   36.1560   15.8680 N.am   64  PHE64      -0.1960
     40  CA        13.7850   36.4430   15.8270 C.3    64  PHE64       0.1771
     41  C         12.9650   35.1890   15.5770 C.2    64  PHE64       0.2619
     42  O         11.9040   35.0020   16.1810 O.2    64  PHE64      -0.2715
     43  CB        13.4370   37.4920   14.7690 C.3    64  PHE64       0.0574
     44  CG        11.9910   37.4450   14.3350 C.ar   64  PHE64      -0.0200
     45  CD1       10.9970   38.0070   15.1260 C.ar   64  PHE64      -0.0042
     46  CD2       11.6230   36.8090   13.1550 C.ar   64  PHE64      -0.0042
     47  CE1        9.6650   37.9520   14.7410 C.ar   64  PHE64      -0.0003
     48  CE2       10.2970   36.7460   12.7690 C.ar   64  PHE64      -0.0003
     49  CZ         9.3150   37.3210   13.5650 C.ar   64  PHE64      -0.0000
     50  N         13.4370   34.3370   14.6730 N.am   65  ARG65      -0.1963
     51  CA        12.7260   33.0880   14.4260 C.3    65  ARG65       0.1729
     52  C         12.7910   32.2200   15.6860 C.2    65  ARG65       0.2616
     53  O         11.8130   31.5740   16.0650 O.2    65  ARG65      -0.2715
     54  CB        13.2900   32.3370   13.2120 C.3    65  ARG65       0.0348
     55  CG        12.7680   30.9090   13.1070 C.3    65  ARG65       0.0492
     56  CD        11.2660   30.8880   12.8340 C.3    65  ARG65       0.2205
     57  NE        10.6600   29.6070   13.1840 N.pl3  65  ARG65      -0.0865
     58  CZ         9.4510   29.4750   13.7250 C.cat  65  ARG65       0.5346
     59  NH1        8.7070   30.5510   13.9730 N.pl3  65  ARG65       0.1354
     60  NH2        8.9790   28.2690   14.0220 N.pl3  65  ARG65       0.1354
     61  N         13.9480   32.2190   16.3370 N.am   66  SER66      -0.1950
     62  CA        14.1090   31.4670   17.5700 C.3    66  SER66       0.1924
     63  C         13.1090   31.9130   18.6330 C.2    66  SER66       0.2314
     64  O         12.5060   31.0910   19.3050 O.2    66  SER66      -0.2863
     65  CB        15.5400   31.5920   18.0890 C.3    66  SER66       0.2116
     66  OG        16.4370   30.9060   17.2380 O.3    66  SER66      -0.2180
     67  N         10.0300   29.6220   20.2700 N.3    70  VAL70      -0.1245
     68  CA         9.7650   29.4440   21.7010 C.3    70  VAL70       0.1561
     69  C          8.3240   29.8080   22.0430 C.2    70  VAL70       0.2260
     70  O          7.6600   29.1170   22.8140 O.2    70  VAL70      -0.2867
     71  CB        10.7230   30.2960   22.5580 C.3    70  VAL70       0.0252
     72  CG1       10.3850   30.1670   24.0570 C.3    70  VAL70       0.0019
     73  CG2       12.1660   29.8950   22.2810 C.3    70  VAL70       0.0019
     74  N         13.1340   23.6970   25.1340 N.3    99  VAL99      -0.1231
     75  CA        13.0080   24.5680   23.9740 C.3    99  VAL99       0.1692
     76  C         14.0550   24.3330   22.8420 C.2    99  VAL99       0.2592
     77  O         13.7080   24.3130   21.6660 O.2    99  VAL99      -0.2718
     78  CB        12.8690   26.0420   24.4620 C.3    99  VAL99       0.0266
     79  CG1       13.8610   26.9730   23.8160 C.3    99  VAL99       0.0020
     80  CG2       11.4310   26.5170   24.2860 C.3    99  VAL99       0.0020
     81  N         15.3150   24.1320   23.2110 N.am  100  HIS100     -0.1976
     82  CA        16.3630   23.8660   22.2310 C.3   100  HIS100      0.1656
     83  C         16.1750   22.5280   21.5360 C.2   100  HIS100      0.2291
     84  O         16.3240   22.4180   20.3130 O.2   100  HIS100     -0.2864
     85  CB        17.7310   23.8830   22.9050 C.3   100  HIS100      0.0771
     86  CG        18.0560   25.1820   23.5650 C.ar  100  HIS100      0.0820
     87  ND1       18.0250   25.3490   24.9330 N.ar  100  HIS100     -0.2267
     88  CD2       18.4030   26.3820   23.0450 C.ar  100  HIS100      0.1154
     89  CE1       18.3490   26.5950   25.2280 C.ar  100  HIS100      0.1986
     90  NE2       18.5750   27.2440   24.1000 N.ar  100  HIS100     -0.2212
     91  N         13.3530   22.8480   19.1470 N.3   103  ILE103     -0.1231
     92  CA        13.6860   23.6960   18.0290 C.3   103  ILE103      0.1692
     93  C         14.5060   22.9520   16.9740 C.2   103  ILE103      0.2592
     94  O         14.1930   23.0160   15.7850 O.2   103  ILE103     -0.2718
     95  CB        14.3820   24.9690   18.5090 C.3   103  ILE103      0.0266
     96  CG1       13.3130   25.9370   19.0190 C.3   103  ILE103      0.0019
     97  CG2       15.2130   25.5930   17.3840 C.3   103  ILE103      0.0020
     98  CD1       13.8460   27.1430   19.7590 C.3   103  ILE103      0.0001
     99  N         15.5080   22.1970   17.4070 N.am  104  TYR104     -0.1976
    100  CA        16.3820   21.4950   16.4470 C.3   104  TYR104      0.1639
    101  C         15.7210   20.2390   15.8650 C.2   104  TYR104      0.2290
    102  O         15.9730   19.8730   14.7110 O.2   104  TYR104     -0.2864
    103  CB        17.7390   21.1460   17.0790 C.3   104  TYR104      0.0560
    104  CG        18.4990   22.3440   17.6090 C.ar  104  TYR104     -0.0198
    105  CD1       18.5670   23.5360   16.8840 C.ar  104  TYR104     -0.0009
    106  CD2       19.1340   22.2940   18.8390 C.ar  104  TYR104     -0.0009
    107  CE1       19.2600   24.6420   17.3780 C.ar  104  TYR104      0.0417
    108  CE2       19.8240   23.3920   19.3470 C.ar  104  TYR104      0.0417
    109  CZ        19.8860   24.5600   18.6140 C.ar  104  TYR104      0.1957
    110  OH        20.5810   25.6390   19.1190 O.3   104  TYR104     -0.2866
    111  N         13.4200   21.7660   13.3380 N.3   107  LEU107     -0.1245
    112  CA        14.2570   22.3230   12.2940 C.3   107  LEU107      0.1561
    113  C         14.6500   21.2500   11.2650 C.2   107  LEU107      0.2260
    114  O         14.7350   21.5340   10.0640 O.2   107  LEU107     -0.2867
    115  CB        15.4780   22.9980   12.9090 C.3   107  LEU107      0.0270
    116  CG        16.4120   23.8050   12.0120 C.3   107  LEU107      0.0019
    117  CD1       15.6260   24.7970   11.1390 C.3   107  LEU107      0.0001
    118  CD2       17.4040   24.5130   12.9220 C.3   107  LEU107      0.0001
    119  N         12.5490   21.0190    8.2380 N.3   110  LEU110     -0.1245
    120  CA        12.6740   22.1360    7.3100 C.3   110  LEU110      0.1561
    121  C         13.9650   21.9780    6.5230 C.2   110  LEU110      0.2260
    122  O         14.3050   22.8270    5.6800 O.2   110  LEU110     -0.2867
    123  CB        12.7280   23.4690    8.0720 C.3   110  LEU110      0.0270
    124  CG        11.6800   23.8290    9.1340 C.3   110  LEU110      0.0019
    125  CD1       11.7360   25.3200    9.4590 C.3   110  LEU110      0.0001
    126  CD2       10.3030   23.4530    8.6640 C.3   110  LEU110      0.0001
    127  N         17.9770   24.8170    4.1750 N.3   116  VAL116     -0.1231
    128  CA        16.8770   24.9130    5.1370 C.3   116  VAL116      0.1692
    129  C         15.8250   25.9660    4.7440 C.2   116  VAL116      0.2592
    130  O         16.1700   27.0820    4.3660 O.2   116  VAL116     -0.2718
    131  CB        17.4160   25.2350    6.5560 C.3   116  VAL116      0.0266
    132  CG1       18.2330   26.5270    6.5450 C.3   116  VAL116      0.0020
    133  CG2       16.2700   25.3190    7.5850 C.3   116  VAL116      0.0020
    134  N         14.5430   25.6050    4.8260 N.am  117  LEU117     -0.1966
    135  CA        13.4550   26.5600    4.5660 C.3   117  LEU117      0.1728
    136  C         13.4420   27.6700    5.6080 C.2   117  LEU117      0.2616
    137  O         13.7260   27.4370    6.7950 O.2   117  LEU117     -0.2715
    138  CB        12.0960   25.8630    4.5590 C.3   117  LEU117      0.0311
    139  CG        11.8730   24.8500    3.4430 C.3   117  LEU117      0.0022
    140  CD1       10.5960   24.0750    3.6920 C.3   117  LEU117      0.0001
    141  CD2       11.8390   25.5640    2.0820 C.3   117  LEU117      0.0001
    142  N         13.1250   28.8800    5.1650 N.am  118  ILE118     -0.1963
    143  CA        13.0310   30.0110    6.0810 C.3   118  ILE118      0.1727
    144  C         11.8680   30.8950    5.6870 C.2   118  ILE118      0.2616
    145  O         11.2680   30.7180    4.6070 O.2   118  ILE118     -0.2715
    146  CB        14.2880   30.8750    6.0420 C.3   118  ILE118      0.0290
    147  CG1       14.4450   31.5010    4.6580 C.3   118  ILE118      0.0022
    148  CG2       15.5190   30.0670    6.4270 C.3   118  ILE118      0.0023
    149  CD1       15.4310   32.6290    4.6430 C.3   118  ILE118      0.0001
    150  N         11.5820   31.8720    6.5410 N.am  119  SER119     -0.1950
    151  CA        10.5070   32.8260    6.3040 C.3   119  SER119      0.1924
    152  C          9.2280   32.1250    5.8690 C.2   119  SER119      0.2314
    153  O          8.6850   32.4050    4.7820 O.2   119  SER119     -0.2863
    154  CB        10.9310   33.8670    5.2640 C.3   119  SER119      0.2116
    155  OG         9.9410   34.8730    5.1400 O.3   119  SER119     -0.2180
    156  N         17.6810   28.7520    2.3980 N.3   125  MET125     -0.1245
    157  CA        19.0600   29.1550    2.6020 C.3   125  MET125      0.1570
    158  C         19.9290   27.9190    2.5060 C.2   125  MET125      0.2261
    159  O         19.6790   26.9260    3.1970 O.2   125  MET125     -0.2867
    160  CB        19.2030   29.7910    3.9780 C.3   125  MET125      0.0387
    161  CG        20.4330   30.6450    4.1620 C.3   125  MET125      0.0595
    162  SD        20.1530   31.8470    5.4800 S.3   125  MET125     -0.1393
    163  CE        19.1080   33.0220    4.6200 C.3   125  MET125      0.0692
    164  N         25.5600   29.1910    4.4090 N.3   130  LEU130     -0.1245
    165  CA        25.6890   29.2880    5.8690 C.3   130  LEU130      0.1561
    166  C         27.0530   28.8010    6.3480 C.2   130  LEU130      0.2260
    167  O         27.5840   29.2900    7.3380 O.2   130  LEU130     -0.2867
    168  CB        24.5820   28.5110    6.5850 C.3   130  LEU130      0.0270
    169  CG        23.1490   29.0230    6.3910 C.3   130  LEU130      0.0019
    170  CD1       22.1380   27.9490    6.7900 C.3   130  LEU130      0.0001
    171  CD2       22.9230   30.2960    7.1840 C.3   130  LEU130      0.0001
    172  N         25.7660   26.2360   11.9720 N.3   141  MET141     -0.1245
    173  CA        24.7460   25.3910   11.3500 C.3   141  MET141      0.1570
    174  C         25.0790   23.9340   10.9760 C.2   141  MET141      0.2261
    175  O         24.1660   23.1130   10.8360 O.2   141  MET141     -0.2867
    176  CB        24.0700   26.1350   10.1950 C.3   141  MET141      0.0387
    177  CG        23.2830   27.3400   10.6900 C.3   141  MET141      0.0595
    178  SD        22.0930   26.8870   11.9950 S.3   141  MET141     -0.1393
    179  CE        21.0260   25.8050   11.0610 C.3   141  MET141      0.0692
    180  N         23.5660   20.9010   13.1180 N.3   144  LYS144     -0.1245
    181  CA        22.1180   20.8430   12.9560 C.3   144  LYS144      0.1561
    182  C         21.7990   20.1150   11.6640 C.2   144  LYS144      0.2260
    183  O         20.8910   19.2810   11.6090 O.2   144  LYS144     -0.2867
    184  CB        21.5220   22.2480   12.9200 C.3   144  LYS144      0.0271
    185  CG        21.4200   22.9280   14.2790 C.3   144  LYS144      0.0035
    186  CD        22.7190   23.5980   14.7180 C.3   144  LYS144      0.0206
    187  CE        22.5000   24.3510   16.0440 C.3   144  LYS144      0.1093
    188  NZ        23.7350   24.9970   16.5910 N.3   144  LYS144     -0.1314
    189  N         26.2890   24.5130   20.8510 N.3   226  HIS226     -0.1241
    190  CA        25.6860   25.7940   20.5340 C.3   226  HIS226      0.1621
    191  C         25.9660   26.8590   21.5980 C.2   226  HIS226      0.2264
    192  O         26.2790   28.0070   21.2650 O.2   226  HIS226     -0.2867
    193  CB        24.1800   25.6550   20.3080 C.3   226  HIS226      0.0745
    194  CG        23.5010   26.9580   20.0240 C.ar  226  HIS226      0.0817
    195  ND1       23.4130   27.4920   18.7550 N.ar  226  HIS226     -0.2268
    196  CD2       22.8950   27.8410   20.8500 C.ar  226  HIS226      0.1154
    197  CE1       22.7720   28.6470   18.8130 C.ar  226  HIS226      0.1986
    198  NE2       22.4440   28.8820   20.0700 N.ar  226  HIS226     -0.2212
    199  N         27.8750   30.5720   21.4900 N.3   230  LEU230     -0.1245
    200  CA        27.3040   31.7820   22.0870 C.3   230  LEU230      0.1561
    201  C         28.2820   32.4890   23.0340 C.2   230  LEU230      0.2260
    202  O         28.3570   33.7220   23.0660 O.2   230  LEU230     -0.2867
    203  CB        26.0050   31.4500   22.8290 C.3   230  LEU230      0.0270
    204  CG        24.6620   31.7460   22.1500 C.3   230  LEU230      0.0019
    205  CD1       24.7430   31.6660   20.6310 C.3   230  LEU230      0.0001
    206  CD2       23.6080   30.7790   22.6730 C.3   230  LEU230      0.0001
    207  N         21.7960   39.4800   22.8240 N.3   242  LEU242     -0.1245
    208  CA        20.8310   38.3950   22.7470 C.3   242  LEU242      0.1561
    209  C         19.4610   38.9080   23.1840 C.2   242  LEU242      0.2260
    210  O         19.3470   39.7980   24.0340 O.2   242  LEU242     -0.2867
    211  CB        21.2740   37.1910   23.5850 C.3   242  LEU242      0.0270
    212  CG        21.5820   35.8990   22.8170 C.3   242  LEU242      0.0019
    213  CD1       22.4420   36.1650   21.5750 C.3   242  LEU242      0.0001
    214  CD2       22.2570   34.8650   23.7130 C.3   242  LEU242      0.0001
    215  N         15.6750   34.8430   24.9300 N.3   246  LEU246     -0.1245
    216  CA        16.8000   33.9400   24.7170 C.3   246  LEU246      0.1561
    217  C         17.8270   34.0170   25.8520 C.2   246  LEU246      0.2260
    218  O         18.4200   33.0010   26.2400 O.2   246  LEU246     -0.2867
    219  CB        17.4570   34.2240   23.3670 C.3   246  LEU246      0.0270
    220  CG        16.9560   33.4600   22.1260 C.3   246  LEU246      0.0019
    221  CD1       15.5630   32.8510   22.2880 C.3   246  LEU246      0.0001
    222  CD2       17.0100   34.3640   20.8970 C.3   246  LEU246      0.0001
    223  N         16.5690   31.9710   28.7250 N.3   249  ILE249     -0.1231
    224  CA        16.6680   30.5610   28.3850 C.3   249  ILE249      0.1692
    225  C         18.0980   30.0260   28.5330 C.2   249  ILE249      0.2592
    226  O         18.2940   28.8450   28.8200 O.2   249  ILE249     -0.2718
    227  CB        16.1130   30.2870   26.9760 C.3   249  ILE249      0.0266
    228  CG1       14.6250   30.6200   26.9440 C.3   249  ILE249      0.0019
    229  CG2       16.2810   28.8450   26.6110 C.3   249  ILE249      0.0020
    230  CD1       14.0860   30.8460   25.5640 C.3   249  ILE249      0.0001
    231  N         19.1010   30.8840   28.3630 N.am  250  TYR250     -0.1976
    232  CA        20.4880   30.4250   28.5240 C.3   250  TYR250      0.1639
    233  C         21.0850   30.6420   29.9230 C.2   250  TYR250      0.2290
    234  O         22.1090   30.0480   30.2610 O.2   250  TYR250     -0.2864
    235  CB        21.4080   30.9870   27.4320 C.3   250  TYR250      0.0560
    236  CG        21.1970   30.3280   26.0830 C.ar  250  TYR250     -0.0198
    237  CD1       21.6360   29.0290   25.8460 C.ar  250  TYR250     -0.0009
    238  CD2       20.5490   30.9960   25.0480 C.ar  250  TYR250     -0.0009
    239  CE1       21.4370   28.4180   24.6160 C.ar  250  TYR250      0.0417
    240  CE2       20.3490   30.3910   23.8220 C.ar  250  TYR250      0.0417
    241  CZ        20.8050   29.1080   23.6090 C.ar  250  TYR250      0.1957
    242  OH        20.6000   28.4860   22.3980 O.3   250  TYR250     -0.2866
@<TRIPOS>BOND
     1   141   139    1
     2   156   157    1
     3   158   157    1
     4   158   159    2
     5   157   160    1
     6   139   140    1
     7   139   138    1
     8   160   161    1
     9   161   162    1
    10   127   128    1
    11   130   129    2
    12   164   165    1
    13   138   135    1
    14   135   134    1
    15   135   136    1
    16   145   144    2
    17   163   162    1
    18   149   147    1
    19   147   146    1
    20   129   134   am
    21   129   128    1
    22   153   152    2
    23   128   131    1
    24   155   154    1
    25   142   136   am
    26   142   143    1
    27   154   151    1
    28   136   137    2
    29   122   121    2
    30   144   143    1
    31   144   150   am
    32   165   166    1
    33   165   168    1
    34   152   151    1
    35   146   143    1
    36   146   148    1
    37     8     6    1
    38   151   150    1
    39   166   167    2
    40   169   168    1
    41   169   170    1
    42   169   171    1
    43   121   120    1
    44   132   131    1
    45   131   133    1
    46     6     5    1
    47   120   123    1
    48   120   119    1
    49   123   124    1
    50     5     7    1
    51     5     2    1
    52   126   124    1
    53   124   125    1
    54     1     2    1
    55     2     3    1
    56   114   113    2
    57   176   177    1
    58   176   173    1
    59   177   178    1
    60     3     4    2
    61     3     9   am
    62   175   174    2
    63   174   173    1
    64   179   178    1
    65   117   116    1
    66   113   112    1
    67   173   172    1
    68   183   182    2
    69     9    10    1
    70   182   181    1
    71    21    20    1
    72    21    22    1
    73   116   115    1
    74   116   118    1
    75   112   115    1
    76   112   111    1
    77    22    24   am
    78    22    23    2
    79    24    25    1
    80    48    46   ar
    81    48    49   ar
    82    56    55    1
    83    56    57    1
    84   184   181    1
    85   184   185    1
    86   181   180    1
    87    10    11    1
    88    10    13    1
    89    55    54    1
    90    46    44   ar
    91    57    58    2
    92    54    51    1
    93    28    25    1
    94    28    29    1
    95    25    26    1
    96    49    47   ar
    97    58    59    1
    98    58    60    1
    99    11    12    2
   100    13    14    1
   101   185   186    1
   102    44    43    1
   103    44    45   ar
   104    51    50    1
   105    51    52    1
   106    50    41   am
   107   102   101    2
   108   186   187    1
   109    26    27    2
   110    26    30   am
   111    47    45   ar
   112    43    40    1
   113    14    15   ar
   114    14    16   ar
   115    15    17   ar
   116    30    31    1
   117    41    40    1
   118    41    42    2
   119    52    53    2
   120    52    61   am
   121    94    93    2
   122    40    39    1
   123   101   100    1
   124    39    32   am
   125   187   188    1
   126    16    18   ar
   127    61    62    1
   128   100   103    1
   129   100    99    1
   130    17    19   ar
   131    31    32    1
   132    31    34    1
   133    32    33    2
   134   105   107   ar
   135   105   104   ar
   136    93    99   am
   137    93    92    1
   138   103   104    1
   139    66    65    1
   140    34    35    1
   141   107   109   ar
   142    97    95    1
   143    62    65    1
   144    62    63    1
   145    18    19   ar
   146   104   106   ar
   147    35    36    1
   148    92    95    1
   149    92    91    1
   150    95    96    1
   151   109   110    1
   152   109   108   ar
   153    63    64    2
   154   195   197   ar
   155   195   194   ar
   156    38    36   am
   157   197   198   ar
   158   106   108   ar
   159    96    98    1
   160    36    37    2
   161   194   193    1
   162   194   196   ar
   163   198   196   ar
   164    67    68    1
   165   193   190    1
   166    84    83    2
   167   190   189    1
   168   190   191    1
   169   205   204    1
   170   222   220    1
   171   192   191    2
   172   199   200    1
   173    83    82    1
   174   213   212    1
   175    77    76    2
   176    68    69    1
   177    68    71    1
   178    69    70    2
   179   200   203    1
   180   200   201    1
   181   220   221    1
   182   220   219    1
   183   204   206    1
   184   204   203    1
   185    82    85    1
   186    82    81    1
   187    73    71    1
   188   242   241    1
   189    71    72    1
   190   208   207    1
   191   208   209    1
   192   208   211    1
   193   212   211    1
   194   212   214    1
   195    76    81   am
   196    76    75    1
   197    85    86    1
   198   201   202    2
   199    88    86   ar
   200    88    90   ar
   201   209   210    2
   202   219   216    1
   203    86    87   ar
   204   241   240   ar
   205   241   239   ar
   206    79    78    1
   207   240   238   ar
   208    75    78    1
   209    75    74    1
   210    90    89   ar
   211    80    78    1
   212   239   237   ar
   213   216   215    1
   214   216   217    1
   215    87    89   ar
   216   238   236   ar
   217   230   228    1
   218   237   236   ar
   219   217   218    2
   220   236   235    1
   221   229   227    1
   222   228   227    1
   223   227   224    1
   224   235   232    1
   225   231   232    1
   226   231   225   am
   227   224   225    1
   228   224   223    1
   229   232   233    1
   230   225   226    2
   231   233   234    2
