@<TRIPOS>MOLECULE
tmp/4r07B04.pdb
 174 170 0 0 0
SMALL
GASTEIGER

@<TRIPOS>ATOM
      1  N         -4.2560   29.5380   95.7340 N.3   129  TYR129     -0.1241
      2  CA        -4.1010   28.6060   94.6260 C.3   129  TYR129      0.1605
      3  C         -4.2830   27.2090   95.1690 C.2   129  TYR129      0.2264
      4  O         -3.3990   26.6900   95.8500 O.2   129  TYR129     -0.2867
      5  CB        -2.6910   28.7060   93.9890 C.3   129  TYR129      0.0534
      6  CG        -2.4360   30.0100   93.2730 C.ar  129  TYR129     -0.0201
      7  CD1       -2.9500   30.2360   92.0130 C.ar  129  TYR129     -0.0009
      8  CD2       -1.7380   31.0510   93.9010 C.ar  129  TYR129     -0.0009
      9  CE1       -2.7550   31.4380   91.3790 C.ar  129  TYR129      0.0417
     10  CE2       -1.5480   32.2630   93.2780 C.ar  129  TYR129      0.0417
     11  CZ        -2.0440   32.4380   92.0190 C.ar  129  TYR129      0.1957
     12  OH        -1.8550   33.6310   91.3860 O.3   129  TYR129     -0.2866
     13  N         -9.1530   24.9120   90.1350 N.3   162  SER162     -0.1202
     14  CA        -9.2470   24.1380   88.8900 C.3   162  SER162      0.2020
     15  C         -8.6350   22.7620   89.0580 C.2   162  SER162      0.2618
     16  O         -7.7470   22.5670   89.8910 O.2   162  SER162     -0.2717
     17  CB        -8.5670   24.8860   87.7640 C.3   162  SER162      0.2103
     18  OG        -9.2520   26.0920   87.4860 O.3   162  SER162     -0.2182
     19  N         -9.1380   21.7900   88.2930 N.am  163  PHE163     -0.1975
     20  CA        -8.5750   20.4220   88.3410 C.3   163  PHE163      0.1639
     21  C         -8.6840   19.8280   89.7590 C.2   163  PHE163      0.2290
     22  O         -7.7470   19.3120   90.3460 O.2   163  PHE163     -0.2864
     23  CB        -7.1460   20.3840   87.7730 C.3   163  PHE163      0.0560
     24  CG        -7.0960   20.6770   86.2870 C.ar  163  PHE163     -0.0200
     25  CD1       -7.0320   21.9760   85.8320 C.ar  163  PHE163     -0.0042
     26  CD2       -7.2000   19.6580   85.3690 C.ar  163  PHE163     -0.0042
     27  CE1       -7.0370   22.2610   84.4860 C.ar  163  PHE163     -0.0003
     28  CE2       -7.2430   19.9220   84.0190 C.ar  163  PHE163     -0.0003
     29  CZ        -7.1550   21.2270   83.5660 C.ar  163  PHE163     -0.0000
     30  N        -10.9070   37.2780   90.2610 N.3   179  LYS179     -0.1245
     31  CA       -10.6190   36.1690   89.3670 C.3   179  LYS179      0.1561
     32  C        -11.0120   34.8700   90.0310 C.2   179  LYS179      0.2260
     33  O        -10.5090   34.5450   91.0920 O.2   179  LYS179     -0.2867
     34  CB        -9.1250   36.1500   89.0380 C.3   179  LYS179      0.0271
     35  CG        -8.7220   37.4080   88.2750 C.3   179  LYS179      0.0035
     36  CD        -7.3220   37.3390   87.7140 C.3   179  LYS179      0.0206
     37  CE        -7.0280   38.6350   86.9760 C.3   179  LYS179      0.1093
     38  NZ        -5.8470   38.5030   86.1030 N.3   179  LYS179     -0.1314
     39  N        -11.2320   30.8500   89.1870 N.3   181  PHE181     -0.1241
     40  CA       -10.8240   29.7980   88.2630 C.3   181  PHE181      0.1605
     41  C        -11.4670   28.4680   88.6650 C.2   181  PHE181      0.2264
     42  O        -11.0640   27.8750   89.6490 O.2   181  PHE181     -0.2867
     43  CB        -9.2960   29.6230   88.2640 C.3   181  PHE181      0.0534
     44  CG        -8.5250   30.8200   87.6950 C.ar  181  PHE181     -0.0203
     45  CD1       -8.3440   30.9640   86.3300 C.ar  181  PHE181     -0.0042
     46  CD2       -7.9080   31.7430   88.5400 C.ar  181  PHE181     -0.0042
     47  CE1       -7.6240   32.0380   85.8140 C.ar  181  PHE181     -0.0003
     48  CE2       -7.1800   32.8200   88.0290 C.ar  181  PHE181     -0.0003
     49  CZ        -7.0460   32.9710   86.6650 C.ar  181  PHE181     -0.0000
     50  N        -11.9010   25.6050   86.3760 N.3   183  SER183     -0.1217
     51  CA       -11.7580   24.7530   85.1800 C.3   183  SER183      0.1889
     52  C        -11.7000   23.3070   85.5760 C.2   183  SER183      0.2288
     53  O        -10.9800   22.9590   86.5400 O.2   183  SER183     -0.2866
     54  CB       -10.4440   25.0700   84.4550 C.3   183  SER183      0.2089
     55  OG       -10.3390   24.3450   83.2540 O.3   183  SER183     -0.2183
     56  N        -12.4820   38.1600   85.9200 N.3   203  LEU203     -0.1245
     57  CA       -12.2550   36.8900   85.2280 C.3   203  LEU203      0.1561
     58  C        -13.0710   35.7160   85.7870 C.2   203  LEU203      0.2260
     59  O        -13.1580   35.5210   86.9920 O.2   203  LEU203     -0.2867
     60  CB       -10.7820   36.5340   85.3140 C.3   203  LEU203      0.0270
     61  CG       -10.3680   35.2360   84.5930 C.3   203  LEU203      0.0019
     62  CD1       -8.9920   35.4200   83.9750 C.3   203  LEU203      0.0001
     63  CD2      -10.3820   34.0440   85.5520 C.3   203  LEU203      0.0001
     64  N        -13.2760   31.4620   84.8240 N.3   205  ASP205     -0.1239
     65  CA       -12.8510   30.2670   84.0900 C.3   205  ASP205      0.1674
     66  C        -13.7560   29.0630   84.4450 C.2   205  ASP205      0.2266
     67  O        -13.6490   28.5010   85.5200 O.2   205  ASP205     -0.2867
     68  CB       -11.3970   29.9470   84.4410 C.3   205  ASP205      0.1410
     69  CG       -10.8180   28.8390   83.5760 C.2   205  ASP205      0.3668
     70  OD1      -11.5390   28.3760   82.6630 O.co2 205  ASP205     -0.2456
     71  OD2       -9.6590   28.4170   83.8400 O.co2 205  ASP205     -0.2456
     72  N        -13.9610   26.5680   82.1360 N.3   207  SER207     -0.1217
     73  CA       -13.5330   25.6480   81.0950 C.3   207  SER207      0.1889
     74  C        -13.4960   24.1970   81.5770 C.2   207  SER207      0.2288
     75  O        -13.2310   23.9010   82.7340 O.2   207  SER207     -0.2866
     76  CB       -12.1860   26.0870   80.5360 C.3   207  SER207      0.2089
     77  OG       -11.1850   25.8700   81.4820 O.3   207  SER207     -0.2183
     78  N        -12.8470   38.7960   81.2710 N.3   244  TYR244     -0.1227
     79  CA       -12.2860   37.5430   80.7630 C.3   244  TYR244      0.1736
     80  C        -13.2300   36.3830   81.1160 C.2   244  TYR244      0.2595
     81  O        -13.4650   36.1190   82.2900 O.2   244  TYR244     -0.2718
     82  CB       -10.9390   37.2590   81.4370 C.3   244  TYR244      0.0548
     83  CG        -9.8210   38.2390   81.1270 C.ar  244  TYR244     -0.0200
     84  CD1       -9.5430   39.3120   81.9790 C.ar  244  TYR244     -0.0009
     85  CD2       -8.9460   37.9920   80.1010 C.ar  244  TYR244     -0.0009
     86  CE1       -8.4880   40.1710   81.7250 C.ar  244  TYR244      0.0417
     87  CE2       -7.8730   38.8270   79.8510 C.ar  244  TYR244      0.0417
     88  CZ        -7.6580   39.9200   80.6460 C.ar  244  TYR244      0.1957
     89  OH        -6.5930   40.7350   80.3470 O.3   244  TYR244     -0.2866
     90  N        -13.7090   35.6730   80.0990 N.am  245  LEU245     -0.1966
     91  CA       -14.6010   34.5150   80.2960 C.3   245  LEU245      0.1728
     92  C        -14.0770   33.3480   79.4860 C.2   245  LEU245      0.2616
     93  O        -13.9450   33.4440   78.2500 O.2   245  LEU245     -0.2715
     94  CB       -16.0250   34.8440   79.8430 C.3   245  LEU245      0.0311
     95  CG       -17.0820   33.7360   80.0380 C.3   245  LEU245      0.0022
     96  CD1      -17.2750   33.4080   81.4980 C.3   245  LEU245      0.0001
     97  CD2      -18.3680   34.1570   79.3460 C.3   245  LEU245      0.0001
     98  N        -13.7240   32.2830   80.2030 N.am  246  ASN246     -0.1972
     99  CA       -13.2640   31.0580   79.5900 C.3   246  ASN246      0.1688
    100  C        -14.2950   29.9050   79.6950 C.2   246  ASN246      0.2292
    101  O        -14.5140   29.3780   80.7620 O.2   246  ASN246     -0.2864
    102  CB       -11.9350   30.6400   80.1990 C.3   246  ASN246      0.1181
    103  CG       -11.2320   29.6150   79.3410 C.2   246  ASN246      0.2629
    104  OD1      -11.8540   29.0590   78.4230 O.2   246  ASN246     -0.2716
    105  ND2       -9.9580   29.3280   79.6380 N.am  246  ASN246     -0.0877
    106  N        -12.0390   39.3870   76.4930 N.3   268  VAL268     -0.1245
    107  CA       -11.4950   38.0840   76.0840 C.3   268  VAL268      0.1561
    108  C        -12.5010   36.9640   76.3070 C.2   268  VAL268      0.2260
    109  O        -12.9490   36.7500   77.4360 O.2   268  VAL268     -0.2867
    110  CB       -10.2400   37.7360   76.9010 C.3   268  VAL268      0.0252
    111  CG1       -9.7450   36.3410   76.5480 C.3   268  VAL268      0.0019
    112  CG2       -9.1480   38.7540   76.6240 C.3   268  VAL268      0.0019
    113  N        -13.0660   32.9540   75.3780 N.3   270  ASP270     -0.1239
    114  CA       -12.4930   31.6920   74.9510 C.3   270  ASP270      0.1674
    115  C        -13.5760   30.6130   74.8240 C.2   270  ASP270      0.2266
    116  O        -14.1960   30.2530   75.8110 O.2   270  ASP270     -0.2867
    117  CB       -11.4760   31.2410   75.9820 C.3   270  ASP270      0.1410
    118  CG       -10.3660   30.4230   75.3780 C.2   270  ASP270      0.3668
    119  OD1      -10.6180   29.7050   74.3620 O.co2 270  ASP270     -0.2456
    120  OD2       -9.2500   30.4590   75.9480 O.co2 270  ASP270     -0.2456
    121  N          0.9500   23.4930   85.4470 N.3   391  PRO391     -0.2102
    122  CA        -0.1800   24.0980   86.1430 C.3   391  PRO391      0.1504
    123  C         -0.2710   25.6000   85.9960 C.2   391  PRO391      0.2576
    124  O         -1.2810   26.1790   86.3470 O.2   391  PRO391     -0.2718
    125  CB         0.0530   23.7480   87.6120 C.3   391  PRO391      0.0282
    126  CG         1.0770   22.6890   87.6310 C.3   391  PRO391      0.0208
    127  CD         1.8590   22.7780   86.3680 C.3   391  PRO391      0.0893
    128  N          0.7560   26.2400   85.4720 N.am  392  HIS392     -0.1962
    129  CA         0.7040   27.6940   85.3500 C.3   392  HIS392      0.1787
    130  C          0.4900   28.1730   83.9540 C.2   392  HIS392      0.2621
    131  O          0.6420   29.3490   83.6900 O.2   392  HIS392     -0.2715
    132  CB         1.9690   28.3170   85.9320 C.3   392  HIS392      0.0785
    133  CG         2.1620   27.9910   87.3700 C.ar  392  HIS392      0.0821
    134  ND1        1.4740   28.6370   88.3710 N.ar  392  HIS392     -0.2267
    135  CD2        2.8720   27.0120   87.9730 C.ar  392  HIS392      0.1154
    136  CE1        1.7980   28.1120   89.5360 C.ar  392  HIS392      0.1986
    137  NE2        2.6510   27.1260   89.3230 N.ar  392  HIS392     -0.2212
    138  N          0.0690   27.2840   83.0650 N.am  393  SER393     -0.1936
    139  CA        -0.1080   27.6410   81.6850 C.3   393  SER393      0.2055
    140  C         -1.5440   27.4290   81.2880 C.2   393  SER393      0.2643
    141  O         -2.2620   26.7200   81.9380 O.2   393  SER393     -0.2714
    142  CB         0.7380   26.7190   80.8170 C.3   393  SER393      0.2130
    143  OG         2.0860   26.8430   81.1890 O.3   393  SER393     -0.2179
    144  N         -1.9280   28.0090   80.1710 N.am  394  ASN394     -0.1957
    145  CA        -3.1890   27.7100   79.5650 C.3   394  ASN394      0.1819
    146  C         -3.2250   26.2500   79.1550 C.2   394  ASN394      0.2621
    147  O         -2.2320   25.6900   78.7420 O.2   394  ASN394     -0.2715
    148  CB        -3.3900   28.5780   78.3500 C.3   394  ASN394      0.1195
    149  CG        -4.8340   28.7050   77.9750 C.2   394  ASN394      0.2630
    150  OD1       -5.3960   27.8270   77.3310 O.2   394  ASN394     -0.2716
    151  ND2       -5.4070   29.8610   78.2560 N.am  394  ASN394     -0.0877
    152  N         -4.3650   25.6240   79.3800 N.am  395  PHE395     -0.1960
    153  CA        -4.5150   24.2160   79.1490 C.3   395  PHE395      0.1771
    154  C         -4.9640   23.9390   77.7310 C.2   395  PHE395      0.2619
    155  O         -4.7810   22.8320   77.2480 O.2   395  PHE395     -0.2715
    156  CB        -5.5670   23.6750   80.0940 C.3   395  PHE395      0.0574
    157  CG        -5.7380   22.1990   80.0440 C.ar  395  PHE395     -0.0200
    158  CD1       -4.7870   21.3770   80.5610 C.ar  395  PHE395     -0.0042
    159  CD2       -6.9300   21.6500   79.6200 C.ar  395  PHE395     -0.0042
    160  CE1       -4.9420   20.0030   80.5350 C.ar  395  PHE395     -0.0003
    161  CE2       -7.1370   20.2910   79.6820 C.ar  395  PHE395     -0.0003
    162  CZ        -6.1300   19.4560   80.1320 C.ar  395  PHE395     -0.0000
    163  N         -5.6280   24.8840   77.0850 N.am  396  TYR396     -0.1974
    164  CA        -6.2420   24.5920   75.7810 C.3   396  TYR396      0.1639
    165  C         -5.4370   25.0940   74.5790 C.2   396  TYR396      0.2290
    166  O         -5.6550   24.6610   73.4380 O.2   396  TYR396     -0.2864
    167  CB        -7.6910   25.0960   75.7460 C.3   396  TYR396      0.0560
    168  CG        -8.5570   24.3590   76.7400 C.ar  396  TYR396     -0.0198
    169  CD1       -8.9840   23.0620   76.4830 C.ar  396  TYR396     -0.0009
    170  CD2       -8.8510   24.9040   77.9980 C.ar  396  TYR396     -0.0009
    171  CE1       -9.6770   22.3250   77.4300 C.ar  396  TYR396      0.0417
    172  CE2       -9.5450   24.1790   78.9400 C.ar  396  TYR396      0.0417
    173  CZ        -9.9950   22.8980   78.6440 C.ar  396  TYR396      0.1957
    174  OH       -10.6650   22.1430   79.6000 O.3   396  TYR396     -0.2866
@<TRIPOS>BOND
     1   166   165    2
     2   119   118   ar
     3   165   164    1
     4   115   114    1
     5   115   116    2
     6   114   113    1
     7   114   117    1
     8   118   120   ar
     9   118   117    1
    10   167   164    1
    11   167   168    1
    12   164   163    1
    13   107   108    1
    14   107   106    1
    15   107   110    1
    16   108   109    2
    17   169   168   ar
    18   169   171   ar
    19   111   110    1
    20   112   110    1
    21   168   170   ar
    22   163   154   am
    23   155   154    2
    24   150   149    2
    25   171   173   ar
    26   154   153    1
    27   149   151   am
    28   149   148    1
    29   170   172   ar
    30    93    92    2
    31   148   145    1
    32   104   103    2
    33   173   172   ar
    34   173   174    1
    35   147   146    2
    36   153   152    1
    37   153   156    1
    38   146   152   am
    39   146   145    1
    40   103   105   am
    41   103   102    1
    42    97    95    1
    43    92    98   am
    44    92    91    1
    45   145   144    1
    46    99   100    1
    47    99   102    1
    48    99    98    1
    49   159   161   ar
    50   159   157   ar
    51   161   162   ar
    52   100   101    2
    53    94    95    1
    54    94    91    1
    55    87    85   ar
    56    87    88   ar
    57    95    96    1
    58   157   156    1
    59   157   158   ar
    60    90    91    1
    61    90    80   am
    62    85    83   ar
    63   162   160   ar
    64   144   140   am
    65    89    88    1
    66   160   158   ar
    67    76    73    1
    68    76    77    1
    69    88    86   ar
    70    79    80    1
    71    79    78    1
    72    79    82    1
    73   142   143    1
    74   142   139    1
    75    73    74    1
    76    73    72    1
    77    80    81    2
    78    83    82    1
    79    83    84   ar
    80   140   139    1
    81   140   141    2
    82    74    75    2
    83   139   138    1
    84    86    84   ar
    85    70    69   ar
    86   138   130   am
    87    55    54    1
    88    29    28   ar
    89    29    27   ar
    90    69    71   ar
    91    69    68    1
    92   131   130    2
    93   130   129    1
    94    62    61    1
    95    28    26   ar
    96    65    68    1
    97    65    66    1
    98    65    64    1
    99    66    67    2
   100    54    51    1
   101    27    25   ar
   102    61    60    1
   103    61    63    1
   104    51    52    1
   105    51    50    1
   106    57    60    1
   107    57    58    1
   108    57    56    1
   109   129   128    1
   110   129   132    1
   111    26    24   ar
   112   121   122    1
   113   121   127    1
   114   128   123   am
   115    52    53    2
   116    58    59    2
   117    47    45   ar
   118    47    49   ar
   119    25    24   ar
   120   132   133    1
   121   123   122    1
   122   123   124    2
   123    38    37    1
   124   122   125    1
   125    24    23    1
   126    45    44   ar
   127   127   126    1
   128    49    48   ar
   129    37    36    1
   130   133   135   ar
   131   133   134   ar
   132    18    17    1
   133   125   126    1
   134    44    43    1
   135    44    46   ar
   136    36    35    1
   137    17    14    1
   138    23    20    1
   139   135   137   ar
   140    48    46   ar
   141    40    43    1
   142    40    41    1
   143    40    39    1
   144    35    34    1
   145    19    20    1
   146    19    15   am
   147    20    21    1
   148   134   136   ar
   149    41    42    2
   150    14    15    1
   151    14    13    1
   152    34    31    1
   153    15    16    2
   154   137   136   ar
   155    31    32    1
   156    31    30    1
   157    21    22    2
   158    32    33    2
   159     9     7   ar
   160     9    11   ar
   161    12    11    1
   162     7     6   ar
   163    11    10   ar
   164     6     8   ar
   165     6     5    1
   166    10     8   ar
   167     5     2    1
   168     2     3    1
   169     2     1    1
   170     3     4    2
