@<TRIPOS>MOLECULE
tmp/4r07B03.pdb
 206 196 0 0 0
SMALL
GASTEIGER

@<TRIPOS>ATOM
      1  N        -12.8470   38.7960   81.2710 N.3   244  TYR244     -0.1241
      2  CA       -12.2860   37.5430   80.7630 C.3   244  TYR244      0.1605
      3  C        -13.2300   36.3830   81.1160 C.2   244  TYR244      0.2264
      4  O        -13.4650   36.1190   82.2900 O.2   244  TYR244     -0.2867
      5  CB       -10.9390   37.2590   81.4370 C.3   244  TYR244      0.0534
      6  CG        -9.8210   38.2390   81.1270 C.ar  244  TYR244     -0.0201
      7  CD1       -9.5430   39.3120   81.9790 C.ar  244  TYR244     -0.0009
      8  CD2       -8.9460   37.9920   80.1010 C.ar  244  TYR244     -0.0009
      9  CE1       -8.4880   40.1710   81.7250 C.ar  244  TYR244      0.0417
     10  CE2       -7.8730   38.8270   79.8510 C.ar  244  TYR244      0.0417
     11  CZ        -7.6580   39.9200   80.6460 C.ar  244  TYR244      0.1957
     12  OH        -6.5930   40.7350   80.3470 O.3   244  TYR244     -0.2866
     13  N        -13.6770   41.5740   77.2290 N.3   267  LYS267     -0.1231
     14  CA       -12.5170   41.7790   76.3520 C.3   267  LYS267      0.1693
     15  C        -12.0510   40.4710   75.7040 C.2   267  LYS267      0.2591
     16  O        -11.6430   40.4770   74.5490 O.2   267  LYS267     -0.2718
     17  CB       -11.3640   42.3040   77.2010 C.3   267  LYS267      0.0285
     18  CG       -10.3950   43.2060   76.4630 C.3   267  LYS267      0.0035
     19  CD        -8.9470   42.9780   76.9010 C.3   267  LYS267      0.0206
     20  CE        -8.7510   43.0960   78.3960 C.3   267  LYS267      0.1093
     21  NZ        -7.3110   42.9560   78.7460 N.3   267  LYS267     -0.1314
     22  N        -12.0390   39.3870   76.4930 N.am  268  VAL268     -0.1980
     23  CA       -11.4950   38.0840   76.0840 C.3   268  VAL268      0.1595
     24  C        -12.5010   36.9640   76.3070 C.2   268  VAL268      0.2287
     25  O        -12.9490   36.7500   77.4360 O.2   268  VAL268     -0.2864
     26  CB       -10.2400   37.7360   76.9010 C.3   268  VAL268      0.0276
     27  CG1       -9.7450   36.3410   76.5480 C.3   268  VAL268      0.0022
     28  CG2       -9.1480   38.7540   76.6240 C.3   268  VAL268      0.0022
     29  N        -13.0660   32.9540   75.3780 N.3   270  ASP270     -0.1239
     30  CA       -12.4930   31.6920   74.9510 C.3   270  ASP270      0.1674
     31  C        -13.5760   30.6130   74.8240 C.2   270  ASP270      0.2266
     32  O        -14.1960   30.2530   75.8110 O.2   270  ASP270     -0.2867
     33  CB       -11.4760   31.2410   75.9820 C.3   270  ASP270      0.1410
     34  CG       -10.3660   30.4230   75.3780 C.2   270  ASP270      0.3668
     35  OD1      -10.6180   29.7050   74.3620 O.co2 270  ASP270     -0.2456
     36  OD2       -9.2500   30.4590   75.9480 O.co2 270  ASP270     -0.2456
     37  N        -13.0220   27.6140   72.8430 N.3   272  GLU272     -0.1245
     38  CA       -12.3440   26.5550   72.0980 C.3   272  GLU272      0.1567
     39  C        -12.9560   25.2310   72.4900 C.2   272  GLU272      0.2260
     40  O        -13.4770   25.1010   73.5870 O.2   272  GLU272     -0.2867
     41  CB       -10.8650   26.4710   72.4640 C.3   272  GLU272      0.0388
     42  CG       -10.0650   27.7120   72.2020 C.3   272  GLU272      0.1160
     43  CD        -8.7710   27.7060   72.9980 C.2   272  GLU272      0.3649
     44  OE1       -8.7880   28.0690   74.2160 O.co2 272  GLU272     -0.2457
     45  OE2       -7.7460   27.2810   72.3930 O.co2 272  GLU272     -0.2457
     46  N        -11.9700   42.0750   72.4520 N.3   293  GLU293     -0.1231
     47  CA       -10.6990   42.2130   71.7240 C.3   293  GLU293      0.1699
     48  C        -10.1250   40.8870   71.2030 C.2   293  GLU293      0.2592
     49  O         -9.4680   40.8410   70.1300 O.2   293  GLU293     -0.2718
     50  CB        -9.6750   42.9010   72.6420 C.3   293  GLU293      0.0402
     51  CG        -9.8830   44.4260   72.7730 C.3   293  GLU293      0.1161
     52  CD        -9.0950   45.0370   73.9410 C.2   293  GLU293      0.3649
     53  OE1       -7.8830   44.7530   74.0900 O.co2 293  GLU293     -0.2457
     54  OE2       -9.6900   45.7810   74.7430 O.co2 293  GLU293     -0.2457
     55  N        -10.3340   39.8280   71.9820 N.am  294  ILE294     -0.1980
     56  CA        -9.8450   38.4860   71.6350 C.3   294  ILE294      0.1595
     57  C        -11.0120   37.4870   71.6520 C.2   294  ILE294      0.2287
     58  O        -11.7290   37.3730   72.6720 O.2   294  ILE294     -0.2864
     59  CB        -8.7160   38.0980   72.5890 C.3   294  ILE294      0.0276
     60  CG1       -7.5470   39.0610   72.3440 C.3   294  ILE294      0.0022
     61  CG2       -8.2200   36.6860   72.3310 C.3   294  ILE294      0.0022
     62  CD1       -6.4440   38.9020   73.3320 C.3   294  ILE294      0.0001
     63  N        -11.5390   33.4740   70.7280 N.3   296  ASP296     -0.1239
     64  CA       -10.9720   32.1690   70.3720 C.3   296  ASP296      0.1674
     65  C        -12.0410   31.0820   70.1880 C.2   296  ASP296      0.2266
     66  O        -12.6600   30.6360   71.1530 O.2   296  ASP296     -0.2867
     67  CB        -9.9710   31.7120   71.4110 C.3   296  ASP296      0.1410
     68  CG        -9.0470   30.6210   70.8860 C.2   296  ASP296      0.3668
     69  OD1       -7.9690   30.3890   71.4760 O.co2 296  ASP296     -0.2456
     70  OD2       -9.4290   29.9510   69.9140 O.co2 296  ASP296     -0.2456
     71  N        -11.3410   28.1900   68.4280 N.3   298  SER298     -0.1217
     72  CA       -10.5300   27.0930   67.8930 C.3   298  SER298      0.1889
     73  C        -11.0680   25.7030   68.2520 C.2   298  SER298      0.2288
     74  O        -11.6210   25.4940   69.3180 O.2   298  SER298     -0.2866
     75  CB        -9.0940   27.2110   68.3980 C.3   298  SER298      0.2089
     76  OG        -8.4140   28.2850   67.7300 O.3   298  SER298     -0.2183
     77  N         -9.3390   42.5150   68.0850 N.3   323  ARG323     -0.1231
     78  CA        -7.9360   42.6440   67.7060 C.3   323  ARG323      0.1694
     79  C         -7.3390   41.3360   67.1870 C.2   323  ARG323      0.2591
     80  O         -6.5510   41.3650   66.2580 O.2   323  ARG323     -0.2718
     81  CB        -7.1560   43.1430   68.8960 C.3   323  ARG323      0.0321
     82  CG        -7.5680   44.5600   69.3070 C.3   323  ARG323      0.0489
     83  CD        -6.6850   45.0630   70.4310 C.3   323  ARG323      0.2205
     84  NE        -7.1290   46.3600   70.9490 N.pl3 323  ARG323     -0.0865
     85  CZ        -6.8040   47.5450   70.4250 C.cat 323  ARG323      0.5346
     86  NH1       -6.0530   47.6420   69.3210 N.pl3 323  ARG323      0.1354
     87  NH2       -7.2380   48.6540   71.0180 N.pl3 323  ARG323      0.1354
     88  N         -7.7900   40.2090   67.7280 N.am  324  ALA324     -0.1980
     89  CA        -7.3290   38.8640   67.3210 C.3   324  ALA324      0.1597
     90  C         -8.4760   37.8670   67.2870 C.2   324  ALA324      0.2287
     91  O         -9.2900   37.7810   68.2170 O.2   324  ALA324     -0.2864
     92  CB        -6.2330   38.3530   68.2460 C.3   324  ALA324      0.0319
     93  N         -8.9770   33.7870   66.7130 N.3   326  HIS326     -0.1241
     94  CA        -8.4080   32.4880   66.5800 C.3   326  HIS326      0.1621
     95  C         -9.4490   31.4630   66.0950 C.2   326  HIS326      0.2264
     96  O        -10.5070   31.2470   66.7060 O.2   326  HIS326     -0.2867
     97  CB        -7.7540   32.0990   67.8880 C.3   326  HIS326      0.0745
     98  CG        -6.7730   33.1190   68.4000 C.ar  326  HIS326      0.0817
     99  ND1       -5.4480   33.1310   68.0210 N.ar  326  HIS326     -0.2268
    100  CD2       -6.9080   34.1250   69.2980 C.ar  326  HIS326      0.1154
    101  CE1       -4.8120   34.0940   68.6660 C.ar  326  HIS326      0.1986
    102  NE2       -5.6760   34.7140   69.4410 N.ar  326  HIS326     -0.2212
    103  N         -8.3520   28.1360   64.7760 N.3   328  ARG328     -0.1245
    104  CA        -7.7120   26.8590   64.4870 C.3   328  ARG328      0.1563
    105  C         -8.7610   25.7650   64.4390 C.2   328  ARG328      0.2260
    106  O         -9.7710   25.8370   65.1490 O.2   328  ARG328     -0.2867
    107  CB        -6.7500   26.4920   65.5900 C.3   328  ARG328      0.0307
    108  CG        -5.6530   27.4900   65.8800 C.3   328  ARG328      0.0489
    109  CD        -4.8520   26.9350   67.0640 C.3   328  ARG328      0.2205
    110  NE        -3.6790   27.7000   67.4140 N.pl3 328  ARG328     -0.0865
    111  CZ        -2.4860   27.6390   66.8040 C.cat 328  ARG328      0.5346
    112  NH1       -2.2930   26.9050   65.7050 N.pl3 328  ARG328      0.1354
    113  NH2       -1.4850   28.3760   67.2800 N.pl3 328  ARG328      0.1354
    114  N         -4.7940   40.4150   64.0300 N.3   351  THR351     -0.1218
    115  CA        -4.3430   39.0290   64.0020 C.3   351  THR351      0.1862
    116  C         -5.4430   38.0580   63.5590 C.2   351  THR351      0.2287
    117  O         -6.5180   37.9730   64.1860 O.2   351  THR351     -0.2866
    118  CB        -3.8430   38.6100   65.3760 C.3   351  THR351      0.1770
    119  OG1       -2.6390   39.2990   65.6520 O.3   351  THR351     -0.2211
    120  CG2       -3.5450   37.1040   65.4460 C.3   351  THR351      0.0375
    121  N         -5.7520   33.9410   62.9250 N.3   353  ASN353     -0.1240
    122  CA        -5.0590   32.6770   63.1290 C.3   353  ASN353      0.1653
    123  C         -5.9020   31.5480   62.5610 C.2   353  ASN353      0.2266
    124  O         -6.9380   31.1910   63.1620 O.2   353  ASN353     -0.2867
    125  CB        -4.7920   32.5190   64.6190 C.3   353  ASN353      0.1155
    126  CG        -4.2910   31.1540   65.0110 C.2   353  ASN353      0.2627
    127  OD1       -3.9670   30.3010   64.1860 O.2   353  ASN353     -0.2716
    128  ND2       -4.2570   30.9280   66.3100 N.am  353  ASN353     -0.0877
    129  N         -0.8010   40.2590   61.2090 N.3   375  ILE375     -0.1245
    130  CA        -0.3980   38.8450   61.4250 C.3   375  ILE375      0.1561
    131  C         -1.3840   37.9290   60.7340 C.2   375  ILE375      0.2260
    132  O         -2.5330   37.8190   61.1570 O.2   375  ILE375     -0.2867
    133  CB        -0.3160   38.4800   62.9260 C.3   375  ILE375      0.0252
    134  CG1        0.7390   39.3660   63.5930 C.3   375  ILE375      0.0019
    135  CG2        0.0370   37.0140   63.0930 C.3   375  ILE375      0.0019
    136  CD1        0.9540   39.0890   65.0500 C.3   375  ILE375      0.0001
    137  N         -1.9280   28.0090   80.1710 N.3   394  ASN394     -0.1240
    138  CA        -3.1890   27.7100   79.5650 C.3   394  ASN394      0.1653
    139  C         -3.2250   26.2500   79.1550 C.2   394  ASN394      0.2266
    140  O         -2.2320   25.6900   78.7420 O.2   394  ASN394     -0.2867
    141  CB        -3.3900   28.5780   78.3500 C.3   394  ASN394      0.1155
    142  CG        -4.8340   28.7050   77.9750 C.2   394  ASN394      0.2627
    143  OD1       -5.3960   27.8270   77.3310 O.2   394  ASN394     -0.2716
    144  ND2       -5.4070   29.8610   78.2560 N.am  394  ASN394     -0.0877
    145  N         -4.4850   25.9830   74.8180 N.3   397  HIS397     -0.1226
    146  CA        -3.6740   26.4770   73.7170 C.3   397  HIS397      0.1752
    147  C         -2.3880   27.0070   74.2560 C.2   397  HIS397      0.2596
    148  O         -2.3150   27.3410   75.4090 O.2   397  HIS397     -0.2718
    149  CB        -4.4100   27.5610   72.9200 C.3   397  HIS397      0.0759
    150  CG        -4.7050   28.8050   73.6980 C.ar  397  HIS397      0.0818
    151  ND1       -5.9610   29.1050   74.1700 N.ar  397  HIS397     -0.2268
    152  CD2       -3.9140   29.8550   74.0460 C.ar  397  HIS397      0.1154
    153  CE1       -5.9440   30.2910   74.7590 C.ar  397  HIS397      0.1986
    154  NE2       -4.7060   30.7590   74.7120 N.ar  397  HIS397     -0.2212
    155  N         -1.3620   26.9750   73.4230 N.am  398  PHE398     -0.1962
    156  CA        -0.0620   27.5770   73.7170 C.3   398  PHE398      0.1771
    157  C         -0.1740   29.0860   73.6990 C.2   398  PHE398      0.2620
    158  O         -1.0090   29.6660   72.9900 O.2   398  PHE398     -0.2715
    159  CB         0.9600   27.1030   72.6650 C.3   398  PHE398      0.0574
    160  CG         1.1590   25.6010   72.6530 C.ar  398  PHE398     -0.0200
    161  CD1        1.6130   24.9330   73.7910 C.ar  398  PHE398     -0.0042
    162  CD2        0.8360   24.8480   71.5310 C.ar  398  PHE398     -0.0042
    163  CE1        1.7890   23.5490   73.7960 C.ar  398  PHE398     -0.0003
    164  CE2        1.0100   23.4660   71.5300 C.ar  398  PHE398     -0.0003
    165  CZ         1.4870   22.8150   72.6620 C.ar  398  PHE398     -0.0000
    166  N          0.6400   29.7370   74.5120 N.am  399  THR399     -0.1937
    167  CA         0.5480   31.1950   74.6280 C.3   399  THR399      0.2028
    168  C          1.8080   31.9040   74.1130 C.2   399  THR399      0.2642
    169  O          1.9110   33.0860   74.2420 O.2   399  THR399     -0.2714
    170  CB         0.3110   31.6040   76.0980 C.3   399  THR399      0.1808
    171  OG1        1.2380   30.9100   76.8830 O.3   399  THR399     -0.2208
    172  CG2       -1.0770   31.1770   76.5700 C.3   399  THR399      0.0379
    173  N          2.7120   31.2020   73.4450 N.am  400  ARG400     -0.1963
    174  CA         3.8410   31.8770   72.8180 C.3   400  ARG400      0.1714
    175  C          3.3620   32.7140   71.6490 C.2   400  ARG400      0.2458
    176  O          2.2760   32.4810   71.1120 O.2   400  ARG400     -0.2730
    177  CB         4.8950   30.8660   72.3810 C.3   400  ARG400      0.0347
    178  CG         4.6060   30.1720   71.0650 C.3   400  ARG400      0.0492
    179  CD         5.7330   29.2010   70.7190 C.3   400  ARG400      0.2205
    180  NE         5.4640   28.4060   69.5190 N.pl3 400  ARG400     -0.0865
    181  CZ         4.9150   27.1900   69.5120 C.cat 400  ARG400      0.5346
    182  NH1        4.7640   26.5480   68.3590 N.pl3 400  ARG400      0.1354
    183  NH2        4.5130   26.6080   70.6380 N.pl3 400  ARG400      0.1354
    184  N          4.1380   33.7390   71.2670 N.am  401  PRO401     -0.2716
    185  CA         3.6710   34.5600   70.1520 C.3   401  PRO401      0.1536
    186  C          3.5080   33.7120   68.9120 C.2   401  PRO401      0.2598
    187  O          4.2370   32.7400   68.7370 O.2   401  PRO401     -0.2715
    188  CB         4.7920   35.5860   69.9690 C.3   401  PRO401      0.0310
    189  CG         5.4170   35.6920   71.3040 C.3   401  PRO401      0.0237
    190  CD         5.2550   34.3630   71.9950 C.3   401  PRO401      0.0939
    191  N          2.5240   34.0360   68.1000 N.am  402  LEU402     -0.1964
    192  CA         2.3040   33.3410   66.8620 C.3   402  LEU402      0.1728
    193  C          3.5360   33.4710   65.9640 C.2   402  LEU402      0.2616
    194  O          3.9540   32.4760   65.3910 O.2   402  LEU402     -0.2715
    195  CB         1.0690   33.8800   66.1330 C.3   402  LEU402      0.0311
    196  CG        -0.2670   33.4270   66.7150 C.3   402  LEU402      0.0022
    197  CD1       -1.3990   34.1390   66.0560 C.3   402  LEU402      0.0001
    198  CD2       -0.4360   31.9310   66.5670 C.3   402  LEU402      0.0001
    199  N          4.0870   34.6860   65.8580 N.am  403  ILE403     -0.1977
    200  CA         5.2810   34.9870   65.0530 C.3   403  ILE403      0.1596
    201  C          6.4550   35.3950   65.9580 C.2   403  ILE403      0.2287
    202  O          6.2590   36.0800   66.9590 O.2   403  ILE403     -0.2864
    203  CB         5.0260   36.1760   64.1290 C.3   403  ILE403      0.0276
    204  CG1        3.6730   36.0590   63.4490 C.3   403  ILE403      0.0022
    205  CG2        6.0920   36.2760   63.0720 C.3   403  ILE403      0.0022
    206  CD1        3.5700   34.9520   62.4270 C.3   403  ILE403      0.0001
@<TRIPOS>BOND
     1   131   132    2
     2   131   130    1
     3   129   130    1
     4   130   133    1
     5   206   204    1
     6   123   122    1
     7   123   124    2
     8   121   122    1
     9   133   135    1
    10   133   134    1
    11   205   203    1
    12   122   125    1
    13   204   203    1
    14   116   115    1
    15   116   117    2
    16   134   136    1
    17   115   114    1
    18   115   118    1
    19   203   200    1
    20   127   126    2
    21   105   104    1
    22   105   106    2
    23   104   103    1
    24   104   107    1
    25   125   126    1
    26   126   128   am
    27   200   199    1
    28   200   201    1
    29   118   120    1
    30   118   119    1
    31   194   193    2
    32   107   108    1
    33   112   111    1
    34   199   193   am
    35   108   109    1
    36   201   202    2
    37   193   192    1
    38   197   196    1
    39    95    94    1
    40    95    96    2
    41   195   196    1
    42   195   192    1
    43    80    79    2
    44   198   196    1
    45    94    93    1
    46    94    97    1
    47   111   113    1
    48   111   110    2
    49   192   191    1
    50   109   110    1
    51    79    78    1
    52    79    88   am
    53    90    89    1
    54    90    91    2
    55    89    88    1
    56    89    92    1
    57    78    77    1
    58    78    81    1
    59    76    75    1
    60    97    98    1
    61    72    73    1
    62    72    75    1
    63    72    71    1
    64    99    98   ar
    65    99   101   ar
    66   191   186   am
    67    73    74    2
    68   182   181    1
    69    98   100   ar
    70   101   102   ar
    71   187   186    2
    72    81    82    1
    73   186   185    1
    74   100   102   ar
    75    82    83    1
    76    86    85    1
    77   181   180    2
    78   181   183    1
    79   180   179    1
    80    70    68   ar
    81   188   185    1
    82   188   189    1
    83    49    48    2
    84   185   184    1
    85    65    64    1
    86    65    66    2
    87    64    63    1
    88    64    67    1
    89    85    84    2
    90    85    87    1
    91    83    84    1
    92   179   178    1
    93    68    67    1
    94    68    69   ar
    95   178   177    1
    96   176   175    2
    97    48    47    1
    98    48    55   am
    99   184   175   am
   100   184   190    1
   101   189   190    1
   102   164   162   ar
   103   164   165   ar
   104   162   160   ar
   105    56    57    1
   106    56    55    1
   107    56    59    1
   108   175   174    1
   109    57    58    2
   110    47    46    1
   111    47    50    1
   112    38    41    1
   113    38    39    1
   114    38    37    1
   115    42    41    1
   116    42    43    1
   117    61    59    1
   118    60    59    1
   119    60    62    1
   120   177   174    1
   121    45    43   ar
   122    39    40    2
   123    50    51    1
   124   160   159    1
   125   160   161   ar
   126   165   163   ar
   127   159   156    1
   128    51    52    1
   129   174   173    1
   130   149   150    1
   131   149   146    1
   132   158   157    2
   133    43    44   ar
   134   155   156    1
   135   155   147   am
   136   173   168   am
   137   150   152   ar
   138   150   151   ar
   139   157   156    1
   140   157   166   am
   141   146   147    1
   142   146   145    1
   143   161   163   ar
   144    52    53   ar
   145    52    54   ar
   146   152   154   ar
   147   168   169    2
   148   168   167    1
   149   151   153   ar
   150   147   148    2
   151    35    34   ar
   152   166   167    1
   153    16    15    2
   154   167   170    1
   155   154   153   ar
   156    31    30    1
   157    31    32    2
   158    30    29    1
   159    30    33    1
   160    34    36   ar
   161    34    33    1
   162    15    14    1
   163    15    22   am
   164    23    24    1
   165    23    22    1
   166    23    26    1
   167   170   172    1
   168   170   171    1
   169    24    25    2
   170    14    17    1
   171    14    13    1
   172    18    19    1
   173    18    17    1
   174    27    26    1
   175    28    26    1
   176    19    20    1
   177   143   142    2
   178   142   144   am
   179   142   141    1
   180   141   138    1
   181    20    21    1
   182   140   139    2
   183   139   138    1
   184   138   137    1
   185    10     8   ar
   186    10    11   ar
   187     8     6   ar
   188    12    11    1
   189    11     9   ar
   190     2     3    1
   191     2     1    1
   192     2     5    1
   193     3     4    2
   194     6     5    1
   195     6     7   ar
   196     9     7   ar
