@<TRIPOS>MOLECULE
tmp/4r07C02.pdb
 174 170 0 0 0
SMALL
GASTEIGER

@<TRIPOS>ATOM
      1  N         20.8450  -25.4340  -24.2170 N.3   128  TYR128     -0.1241
      2  CA        20.9130  -24.0230  -24.5180 C.3   128  TYR128      0.1605
      3  C         20.7950  -23.8300  -26.0200 C.2   128  TYR128      0.2264
      4  O         21.6690  -24.2790  -26.7810 O.2   128  TYR128     -0.2867
      5  CB        22.2280  -23.4280  -24.0210 C.3   128  TYR128      0.0534
      6  CG        22.5130  -23.6850  -22.5580 C.ar  128  TYR128     -0.0201
      7  CD1       22.0480  -22.8170  -21.5750 C.ar  128  TYR128     -0.0009
      8  CD2       23.2360  -24.8080  -22.1610 C.ar  128  TYR128     -0.0009
      9  CE1       22.3310  -23.0450  -20.2370 C.ar  128  TYR128      0.0417
     10  CE2       23.5120  -25.0530  -20.8300 C.ar  128  TYR128      0.0417
     11  CZ        23.0600  -24.1690  -19.8750 C.ar  128  TYR128      0.1957
     12  OH        23.3360  -24.4090  -18.5640 O.3   128  TYR128     -0.2866
     13  N         15.6990  -18.4690  -25.5660 N.3   161  SER161     -0.1202
     14  CA        15.5010  -17.0310  -25.6080 C.3   161  SER161      0.2020
     15  C         16.0990  -16.4500  -26.8730 C.2   161  SER161      0.2618
     16  O         16.9910  -17.0430  -27.5010 O.2   161  SER161     -0.2717
     17  CB        16.1430  -16.3880  -24.3740 C.3   161  SER161      0.2103
     18  OG        15.4440  -16.7230  -23.1700 O.3   161  SER161     -0.2182
     19  N         15.5990  -15.2880  -27.2680 N.am  162  PHE162     -0.1975
     20  CA        16.1480  -14.5980  -28.4200 C.3   162  PHE162      0.1639
     21  C         16.0670  -15.4770  -29.6790 C.2   162  PHE162      0.2290
     22  O         17.0370  -15.6450  -30.4520 O.2   162  PHE162     -0.2864
     23  CB        17.5730  -14.1090  -28.0910 C.3   162  PHE162      0.0560
     24  CG        17.5860  -12.9530  -27.1200 C.ar  162  PHE162     -0.0200
     25  CD1       17.6660  -13.1760  -25.7660 C.ar  162  PHE162     -0.0042
     26  CD2       17.3930  -11.6530  -27.5720 C.ar  162  PHE162     -0.0042
     27  CE1       17.5840  -12.1260  -24.8660 C.ar  162  PHE162     -0.0003
     28  CE2       17.2990  -10.6020  -26.6870 C.ar  162  PHE162     -0.0003
     29  CZ        17.4060  -10.8420  -25.3290 C.ar  162  PHE162     -0.0000
     30  N         14.1850  -24.7890  -14.8850 N.3   178  LYS178     -0.1245
     31  CA        14.3920  -23.4530  -15.4040 C.3   178  LYS178      0.1561
     32  C         14.0280  -23.3970  -16.8660 C.2   178  LYS178      0.2260
     33  O         14.5350  -24.1730  -17.6780 O.2   178  LYS178     -0.2867
     34  CB        15.8480  -23.0320  -15.2090 C.3   178  LYS178      0.0271
     35  CG        16.2340  -23.0370  -13.7390 C.3   178  LYS178      0.0035
     36  CD        17.6030  -22.4690  -13.4460 C.3   178  LYS178      0.0206
     37  CE        17.9220  -22.6810  -11.9680 C.3   178  LYS178      0.1093
     38  NZ        18.8200  -21.6380  -11.4160 N.3   178  LYS178     -0.1314
     39  N         13.6960  -20.6640  -19.9950 N.3   180  PHE180     -0.1241
     40  CA        14.0240  -19.3450  -20.4640 C.3   180  PHE180      0.1605
     41  C         13.4040  -19.1070  -21.8460 C.2   180  PHE180      0.2264
     42  O         13.8200  -19.7030  -22.8600 O.2   180  PHE180     -0.2867
     43  CB        15.5470  -19.1670  -20.5220 C.3   180  PHE180      0.0534
     44  CG        16.2290  -19.2460  -19.1850 C.ar  180  PHE180     -0.0203
     45  CD1       16.4860  -18.0950  -18.4440 C.ar  180  PHE180     -0.0042
     46  CD2       16.7040  -20.4540  -18.7030 C.ar  180  PHE180     -0.0042
     47  CE1       17.1730  -18.1560  -17.2310 C.ar  180  PHE180     -0.0003
     48  CE2       17.3980  -20.5180  -17.4970 C.ar  180  PHE180     -0.0003
     49  CZ        17.6050  -19.3700  -16.7470 C.ar  180  PHE180     -0.0000
     50  N         12.9330  -15.7030  -23.1460 N.3   182  SER182     -0.1217
     51  CA        13.0130  -14.2830  -23.2830 C.3   182  SER182      0.1889
     52  C         12.9950  -13.9240  -24.7370 C.2   182  SER182      0.2288
     53  O         13.6510  -14.5840  -25.5530 O.2   182  SER182     -0.2866
     54  CB        14.3070  -13.7470  -22.6410 C.3   182  SER182      0.2089
     55  OG        14.3010  -12.3250  -22.5720 O.3   182  SER182     -0.2183
     56  N         12.3320  -21.5130  -12.0820 N.3   202  LEU202     -0.1245
     57  CA        12.5500  -20.2810  -12.8020 C.3   202  LEU202      0.1561
     58  C         11.7140  -20.2610  -14.0690 C.2   202  LEU202      0.2260
     59  O         11.7450  -21.2220  -14.8740 O.2   202  LEU202     -0.2867
     60  CB        14.0270  -20.1110  -13.1640 C.3   202  LEU202      0.0270
     61  CG        14.3490  -18.8160  -13.9040 C.3   202  LEU202      0.0019
     62  CD1       15.6580  -18.2280  -13.3990 C.3   202  LEU202      0.0001
     63  CD2       14.4170  -19.0240  -15.4150 C.3   202  LEU202      0.0001
     64  N         11.3830  -17.3070  -17.1500 N.3   204  ASP204     -0.1239
     65  CA        11.7900  -16.0450  -17.7460 C.3   204  ASP204      0.1674
     66  C         10.9380  -15.8100  -19.0000 C.2   204  ASP204      0.2266
     67  O         11.1680  -16.4430  -20.0440 O.2   204  ASP204     -0.2867
     68  CB        13.2890  -16.0960  -18.1320 C.3   204  ASP204      0.1410
     69  CG        13.7580  -14.8240  -18.8430 C.2   204  ASP204      0.3668
     70  OD1       12.9870  -13.8280  -18.7950 O.co2 204  ASP204     -0.2456
     71  OD2       14.8840  -14.8250  -19.4210 O.co2 204  ASP204     -0.2456
     72  N         10.6830  -12.5250  -20.1310 N.3   206  SER206     -0.1217
     73  CA        11.0100  -11.1330  -20.3790 C.3   206  SER206      0.1889
     74  C         10.9770  -10.8440  -21.8610 C.2   206  SER206      0.2288
     75  O         11.2930  -11.7200  -22.6640 O.2   206  SER206     -0.2866
     76  CB        12.4080  -10.8270  -19.8420 C.3   206  SER206      0.2089
     77  OG        13.3760  -11.6740  -20.4340 O.3   206  SER206     -0.2183
     78  N         11.8620  -17.8120   -9.1740 N.3   243  TYR243     -0.1227
     79  CA        12.3180  -16.7230  -10.0450 C.3   243  TYR243      0.1736
     80  C         11.3320  -16.4840  -11.1710 C.2   243  TYR243      0.2595
     81  O         11.0720  -17.3760  -12.0100 O.2   243  TYR243     -0.2718
     82  CB        13.6800  -17.0540  -10.6660 C.3   243  TYR243      0.0548
     83  CG        14.7490  -17.3320   -9.6360 C.ar  243  TYR243     -0.0200
     84  CD1       14.9090  -18.6010   -9.1110 C.ar  243  TYR243     -0.0009
     85  CD2       15.6150  -16.3240   -9.1970 C.ar  243  TYR243     -0.0009
     86  CE1       15.8810  -18.8640   -8.1750 C.ar  243  TYR243      0.0417
     87  CE2       16.6110  -16.5920   -8.2740 C.ar  243  TYR243      0.0417
     88  CZ        16.7200  -17.8620   -7.7550 C.ar  243  TYR243      0.1957
     89  OH        17.6780  -18.1560   -6.8140 O.3   243  TYR243     -0.2866
     90  N         10.8110  -15.2610  -11.1960 N.am  244  LEU244     -0.1966
     91  CA         9.9410  -14.8060  -12.2660 C.3   244  LEU244      0.1728
     92  C         10.4140  -13.5050  -12.8880 C.2   244  LEU244      0.2616
     93  O         10.3580  -12.4290  -12.2640 O.2   244  LEU244     -0.2715
     94  CB         8.5280  -14.6050  -11.7470 C.3   244  LEU244      0.0311
     95  CG         7.5560  -14.3020  -12.9090 C.3   244  LEU244      0.0022
     96  CD1        7.6900  -15.3020  -14.0440 C.3   244  LEU244      0.0001
     97  CD2        6.1280  -14.2770  -12.3770 C.3   244  LEU244      0.0001
     98  N         10.7900  -13.5940  -14.1530 N.am  245  ASN245     -0.1972
     99  CA        11.2130  -12.4420  -14.8920 C.3   245  ASN245      0.1688
    100  C         10.1530  -12.0030  -15.9120 C.2   245  ASN245      0.2292
    101  O          9.9500  -12.6550  -16.9420 O.2   245  ASN245     -0.2864
    102  CB        12.5540  -12.7580  -15.5760 C.3   245  ASN245      0.1181
    103  CG        13.2750  -11.5140  -16.0260 C.2   245  ASN245      0.2629
    104  OD1       12.6580  -10.4380  -16.0540 O.2   245  ASN245     -0.2716
    105  ND2       14.5820  -11.6280  -16.3690 N.am  245  ASN245     -0.0877
    106  N         12.3240  -13.7910   -6.1780 N.3   267  VAL267     -0.1245
    107  CA        12.8570  -12.7530   -7.0560 C.3   267  VAL267      0.1561
    108  C         11.8070  -12.3920   -8.1150 C.2   267  VAL267      0.2260
    109  O         11.4140  -13.2380   -8.9350 O.2   267  VAL267     -0.2867
    110  CB        14.1490  -13.2720   -7.7230 C.3   267  VAL267      0.0252
    111  CG1       14.6730  -12.2860   -8.7630 C.3   267  VAL267      0.0019
    112  CG2       15.2150  -13.4990   -6.6560 C.3   267  VAL267      0.0019
    113  N         11.1130   -9.8370  -11.1720 N.3   269  ASP269     -0.1239
    114  CA        11.7300   -8.8530  -12.0050 C.3   269  ASP269      0.1674
    115  C         10.6770   -8.2020  -12.9140 C.2   269  ASP269      0.2266
    116  O         10.1030   -8.8450  -13.7880 O.2   269  ASP269     -0.2867
    117  CB        12.8230   -9.5240  -12.8260 C.3   269  ASP269      0.1410
    118  CG        13.9740   -8.5960  -13.1490 C.2   269  ASP269      0.3668
    119  OD1       13.7740   -7.3670  -13.2530 O.co2 269  ASP269     -0.2456
    120  OD2       15.0960   -9.1020  -13.3140 O.co2 269  ASP269     -0.2456
    121  N         25.4290  -13.3120  -24.2210 N.3   390  PRO390     -0.2102
    122  CA        24.2840  -14.2110  -24.0800 C.3   390  PRO390      0.1504
    123  C         24.2230  -14.8860  -22.7430 C.2   390  PRO390      0.2576
    124  O         23.2220  -15.5070  -22.4150 O.2   390  PRO390     -0.2718
    125  CB        24.5230  -15.2570  -25.1500 C.3   390  PRO390      0.0282
    126  CG        25.9740  -15.1980  -25.4420 C.3   390  PRO390      0.0208
    127  CD        26.3680  -13.7750  -25.2490 C.3   390  PRO390      0.0893
    128  N         25.2930  -14.7530  -21.9590 N.am  391  HIS391     -0.1962
    129  CA        25.3800  -15.3850  -20.6470 C.3   391  HIS391      0.1787
    130  C         25.1500  -14.4120  -19.5230 C.2   391  HIS391      0.2621
    131  O         25.3180  -14.7640  -18.3730 O.2   391  HIS391     -0.2715
    132  CB        26.7480  -16.0270  -20.4960 C.3   391  HIS391      0.0785
    133  CG        26.9820  -17.1170  -21.4800 C.ar  391  HIS391      0.0821
    134  ND1       26.2180  -18.2650  -21.4970 N.ar  391  HIS391     -0.2267
    135  CD2       27.7950  -17.1860  -22.5560 C.ar  391  HIS391      0.1154
    136  CE1       26.5970  -19.0230  -22.5050 C.ar  391  HIS391      0.1986
    137  NE2       27.5560  -18.3930  -23.1610 N.ar  391  HIS391     -0.2212
    138  N         24.7110  -13.2080  -19.8640 N.am  392  SER392     -0.1936
    139  CA        24.4190  -12.1760  -18.8780 C.3   392  SER392      0.2055
    140  C         22.9470  -11.7890  -18.8780 C.2   392  SER392      0.2643
    141  O         22.2290  -12.0310  -19.8310 O.2   392  SER392     -0.2714
    142  CB        25.2260  -10.9210  -19.1880 C.3   392  SER392      0.2130
    143  OG        26.4550  -11.2630  -19.7870 O.3   392  SER392     -0.2179
    144  N         22.5320  -11.1240  -17.8120 N.am  393  ASN393     -0.1957
    145  CA        21.2120  -10.5200  -17.7450 C.3   393  ASN393      0.1819
    146  C         21.1230   -9.4430  -18.8200 C.2   393  ASN393      0.2621
    147  O         22.1350   -8.8280  -19.1910 O.2   393  ASN393     -0.2715
    148  CB        20.9720   -9.9490  -16.3510 C.3   393  ASN393      0.1195
    149  CG        19.5290   -9.6190  -16.1030 C.2   393  ASN393      0.2630
    150  OD1       18.9590   -8.7550  -16.7510 O.2   393  ASN393     -0.2716
    151  ND2       18.9260  -10.3120  -15.1610 N.am  393  ASN393     -0.0877
    152  N         19.9650   -9.3570  -19.4640 N.am  394  PHE394     -0.1960
    153  CA        19.7900   -8.4280  -20.5820 C.3   394  PHE394      0.1771
    154  C         19.3000   -7.0590  -20.0770 C.2   394  PHE394      0.2619
    155  O         19.4800   -6.0350  -20.7210 O.2   394  PHE394     -0.2715
    156  CB        18.7920   -9.0510  -21.5880 C.3   394  PHE394      0.0574
    157  CG        18.6520   -8.2860  -22.8670 C.ar  394  PHE394     -0.0200
    158  CD1       19.6540   -8.2960  -23.8090 C.ar  394  PHE394     -0.0042
    159  CD2       17.4740   -7.6280  -23.1620 C.ar  394  PHE394     -0.0042
    160  CE1       19.5310   -7.5780  -24.9890 C.ar  394  PHE394     -0.0003
    161  CE2       17.3170   -6.9480  -24.3570 C.ar  394  PHE394     -0.0003
    162  CZ        18.3520   -6.9190  -25.2690 C.ar  394  PHE394     -0.0000
    163  N         18.6650   -7.0250  -18.9180 N.am  395  TYR395     -0.1974
    164  CA        17.9990   -5.7970  -18.5210 C.3   395  TYR395      0.1639
    165  C         18.7160   -4.9840  -17.4420 C.2   395  TYR395      0.2290
    166  O         18.4340   -3.8030  -17.2960 O.2   395  TYR395     -0.2864
    167  CB        16.5520   -6.0790  -18.1340 C.3   395  TYR395      0.0560
    168  CG        15.7370   -6.5430  -19.3310 C.ar  395  TYR395     -0.0198
    169  CD1       15.3200   -5.6390  -20.3160 C.ar  395  TYR395     -0.0009
    170  CD2       15.4700   -7.8920  -19.5240 C.ar  395  TYR395     -0.0009
    171  CE1       14.6200   -6.0710  -21.4330 C.ar  395  TYR395      0.0417
    172  CE2       14.7880   -8.3400  -20.6350 C.ar  395  TYR395      0.0417
    173  CZ        14.3380   -7.4300  -21.5710 C.ar  395  TYR395      0.1957
    174  OH        13.7080   -7.8960  -22.6910 O.3   395  TYR395     -0.2866
@<TRIPOS>BOND
     1    22    21    2
     2    21    20    1
     3    20    23    1
     4    20    19    1
     5    23    24    1
     6    26    24   ar
     7    26    28   ar
     8    16    15    2
     9    19    15   am
    10    24    25   ar
    11    15    14    1
    12     4     3    2
    13    28    29   ar
    14     3     2    1
    15    25    27   ar
    16    14    13    1
    17    14    17    1
    18    53    52    2
    19   126   127    1
    20   126   125    1
    21    29    27   ar
    22   162   160   ar
    23   162   161   ar
    24   127   121    1
    25   125   122    1
    26   160   158   ar
    27    52    51    1
    28     2     1    1
    29     2     5    1
    30    17    18    1
    31   161   159   ar
    32   121   122    1
    33   122   123    1
    34     5     6    1
    35   158   157   ar
    36    51    50    1
    37    51    54    1
    38   159   157   ar
    39   137   135   ar
    40   137   136   ar
    41   157   156    1
    42    42    41    2
    43   123   124    2
    44   123   128   am
    45   174   173    1
    46    75    74    2
    47    54    55    1
    48     6     8   ar
    49     6     7   ar
    50   135   133   ar
    51   136   134   ar
    52     8    10   ar
    53   128   129    1
    54    74    73    1
    55    41    40    1
    56   156   153    1
    57     7     9   ar
    58   173   171   ar
    59   173   172   ar
    60   134   133   ar
    61   133   132    1
    62   171   169   ar
    63    10    11   ar
    64   155   154    2
    65   129   132    1
    66   129   130    1
    67   172   170   ar
    68   153   154    1
    69   153   152    1
    70    43    40    1
    71    43    44    1
    72    40    39    1
    73    77    76    1
    74    73    72    1
    75    73    76    1
    76   169   168   ar
    77     9    11   ar
    78   154   163   am
    79    67    66    2
    80    11    12    1
    81   138   130   am
    82   138   139    1
    83   141   140    2
    84   143   142    1
    85   170   168   ar
    86   130   131    2
    87   152   146   am
    88    71    69   ar
    89   168   167    1
    90   147   146    2
    91   142   139    1
    92    44    46   ar
    93    44    45   ar
    94    66    65    1
    95   163   164    1
    96   140   139    1
    97   140   144   am
    98    69    70   ar
    99    69    68    1
   100   146   145    1
   101    46    48   ar
   102   164   167    1
   103   164   165    1
   104    45    47   ar
   105    68    65    1
   106   144   145    1
   107    65    64    1
   108   145   148    1
   109    33    32    2
   110    48    49   ar
   111   165   166    2
   112    47    49   ar
   113   101   100    2
   114    32    31    1
   115   150   149    2
   116   105   103   am
   117   148   149    1
   118   149   151   am
   119   104   103    2
   120   103   102    1
   121   100    99    1
   122   102    99    1
   123    63    61    1
   124    31    34    1
   125    31    30    1
   126    34    35    1
   127    99    98    1
   128    59    58    2
   129    98    92   am
   130    58    57    1
   131    96    95    1
   132    61    62    1
   133    61    60    1
   134   116   115    2
   135    35    36    1
   136    36    37    1
   137   120   118   ar
   138   119   118   ar
   139    60    57    1
   140   118   117    1
   141   115   114    1
   142    95    97    1
   143    95    94    1
   144    92    91    1
   145    92    93    2
   146   117   114    1
   147    57    56    1
   148    91    94    1
   149    91    90    1
   150    81    80    2
   151   114   113    1
   152    37    38    1
   153    90    80   am
   154    80    79    1
   155    82    79    1
   156    82    83    1
   157    79    78    1
   158    83    85   ar
   159    83    84   ar
   160    85    87   ar
   161    84    86   ar
   162   109   108    2
   163   111   110    1
   164    87    88   ar
   165    86    88   ar
   166   108   107    1
   167    88    89    1
   168   110   107    1
   169   110   112    1
   170   107   106    1
