@<TRIPOS>MOLECULE
tmp/4r08A08.pdb
 185 176 0 0 0
SMALL
GASTEIGER

@<TRIPOS>ATOM
      1  N         37.4400   -5.2240   33.9660 N.3   246  TYR246     -0.1241
      2  CA        36.9930   -3.9730   34.5790 C.3   246  TYR246      0.1605
      3  C         37.8090   -2.8130   34.0680 C.2   246  TYR246      0.2264
      4  O         39.0030   -2.8400   34.1760 O.2   246  TYR246     -0.2867
      5  CB        37.1760   -4.0200   36.1090 C.3   246  TYR246      0.0534
      6  CG        36.5390   -5.2160   36.7620 C.ar  246  TYR246     -0.0201
      7  CD1       37.2190   -6.4020   36.8350 C.ar  246  TYR246     -0.0009
      8  CD2       35.2710   -5.1430   37.3340 C.ar  246  TYR246     -0.0009
      9  CE1       36.6690   -7.4990   37.4350 C.ar  246  TYR246      0.0417
     10  CE2       34.7020   -6.2550   37.9460 C.ar  246  TYR246      0.0417
     11  CZ        35.4160   -7.4300   37.9690 C.ar  246  TYR246      0.1957
     12  OH        34.9190   -8.5650   38.5560 O.3   246  TYR246     -0.2866
     13  N         33.4280   -6.8180   31.4160 N.3   269  LYS269     -0.1231
     14  CA        32.2680   -6.9750   32.2910 C.3   269  LYS269      0.1693
     15  C         31.7610   -5.6310   32.8760 C.2   269  LYS269      0.2591
     16  O         30.5960   -5.4690   33.1290 O.2   269  LYS269     -0.2718
     17  CB        32.6950   -7.8550   33.4640 C.3   269  LYS269      0.0285
     18  CG        32.0010   -9.1920   33.5510 C.3   269  LYS269      0.0035
     19  CD        32.0750   -9.7210   34.9830 C.3   269  LYS269      0.0206
     20  CE        33.0840  -10.8490   35.0820 C.3   269  LYS269      0.1093
     21  NZ        33.5610  -10.9910   36.4870 N.3   269  LYS269     -0.1314
     22  N         32.6600   -4.7010   33.1420 N.am  270  VAL270     -0.1980
     23  CA        32.2910   -3.4740   33.8230 C.3   270  VAL270      0.1595
     24  C         32.9880   -2.3240   33.1320 C.2   270  VAL270      0.2287
     25  O         34.2010   -2.2920   33.0150 O.2   270  VAL270     -0.2864
     26  CB        32.7010   -3.5210   35.3140 C.3   270  VAL270      0.0276
     27  CG1       32.3810   -2.2130   36.0240 C.3   270  VAL270      0.0022
     28  CG2       32.0020   -4.6700   36.0260 C.3   270  VAL270      0.0022
     29  N         31.7510    7.4210   34.5020 N.3   274  GLU274     -0.1245
     30  CA        31.1530    8.4950   35.2680 C.3   274  GLU274      0.1567
     31  C         31.8870    9.7710   35.0440 C.2   274  GLU274      0.2260
     32  O         33.0550    9.7550   34.7730 O.2   274  GLU274     -0.2867
     33  CB        31.2370    8.1570   36.7320 C.3   274  GLU274      0.0388
     34  CG        30.4420    6.9160   37.0940 C.3   274  GLU274      0.1160
     35  CD        30.8060    6.3800   38.4520 C.2   274  GLU274      0.3649
     36  OE1       31.7400    5.5450   38.5270 O.co2 274  GLU274     -0.2457
     37  OE2       30.1700    6.8360   39.4350 O.co2 274  GLU274     -0.2457
     38  N         28.2710   -6.3840   31.6150 N.3   295  GLU295     -0.1231
     39  CA        27.2170   -6.5160   32.6270 C.3   295  GLU295      0.1699
     40  C         26.8610   -5.2000   33.3240 C.2   295  GLU295      0.2592
     41  O         25.7320   -5.0230   33.7590 O.2   295  GLU295     -0.2718
     42  CB        27.6310   -7.5050   33.6960 C.3   295  GLU295      0.0402
     43  CG        27.6950   -8.9320   33.2010 C.3   295  GLU295      0.1161
     44  CD        28.3990   -9.8800   34.1700 C.2   295  GLU295      0.3649
     45  OE1       28.9280   -9.4110   35.2030 O.co2 295  GLU295     -0.2457
     46  OE2       28.4510  -11.0950   33.8710 O.co2 295  GLU295     -0.2457
     47  N         27.8260   -4.3020   33.4730 N.am  296  ILE296     -0.1980
     48  CA        27.6070   -3.0800   34.1940 C.3   296  ILE296      0.1595
     49  C         28.1650   -1.8860   33.4670 C.2   296  ILE296      0.2287
     50  O         29.3340   -1.8500   33.0890 O.2   296  ILE296     -0.2864
     51  CB        28.2410   -3.2040   35.5760 C.3   296  ILE296      0.0276
     52  CG1       27.4540   -4.2860   36.3230 C.3   296  ILE296      0.0022
     53  CG2       28.2080   -1.8700   36.3250 C.3   296  ILE296      0.0022
     54  CD1       27.9140   -4.4750   37.7260 C.3   296  ILE296      0.0001
     55  N         28.2040    2.2650   33.7920 N.3   298  ASP298     -0.1239
     56  CA        27.9230    3.4160   34.5940 C.3   298  ASP298      0.1674
     57  C         28.2010    4.6530   33.7850 C.2   298  ASP298      0.2266
     58  O         29.3420    4.9170   33.4440 O.2   298  ASP298     -0.2867
     59  CB        28.7650    3.4050   35.8720 C.3   298  ASP298      0.1410
     60  CG        28.2580    4.4160   36.8920 C.2   298  ASP298      0.3668
     61  OD1       28.4420    4.2090   38.1190 O.co2 298  ASP298     -0.2456
     62  OD2       27.6150    5.4020   36.4540 O.co2 298  ASP298     -0.2456
     63  N         26.9170    7.7050   34.8130 N.3   300  SER300     -0.1217
     64  CA        26.4230    8.6980   35.7170 C.3   300  SER300      0.1889
     65  C         27.1890   10.0250   35.6380 C.2   300  SER300      0.2288
     66  O         28.3410   10.0780   35.2500 O.2   300  SER300     -0.2866
     67  CB        26.4320    8.1260   37.1250 C.3   300  SER300      0.2089
     68  OG        25.6250    6.9580   37.1800 O.3   300  SER300     -0.2183
     69  N         23.4020   -6.2770   32.9080 N.3   325  ARG325     -0.1245
     70  CA        22.6320   -6.5070   34.1450 C.3   325  ARG325      0.1563
     71  C         22.1950   -5.1900   34.8200 C.2   325  ARG325      0.2260
     72  O         21.0360   -5.0430   35.1990 O.2   325  ARG325     -0.2867
     73  CB        23.4180   -7.3790   35.1280 C.3   325  ARG325      0.0307
     74  CG        23.9140   -8.6840   34.5260 C.3   325  ARG325      0.0489
     75  CD        23.8400   -9.8810   35.4670 C.3   325  ARG325      0.2205
     76  NE        24.4300  -11.0650   34.8270 N.pl3 325  ARG325     -0.0865
     77  CZ        25.0780  -12.0560   35.4560 C.cat 325  ARG325      0.5346
     78  NH1       25.2130  -12.0640   36.7800 N.pl3 325  ARG325      0.1354
     79  NH2       25.6050  -13.0560   34.7520 N.pl3 325  ARG325      0.1354
     80  N         23.5300    2.3450   35.1190 N.3   328  HIS328     -0.1241
     81  CA        23.5150    3.5150   35.9710 C.3   328  HIS328      0.1621
     82  C         23.5930    4.7850   35.1530 C.2   328  HIS328      0.2264
     83  O         24.5650    4.9930   34.4530 O.2   328  HIS328     -0.2867
     84  CB        24.6870    3.4680   36.9340 C.3   328  HIS328      0.0745
     85  CG        24.7340    2.2190   37.7600 C.ar  328  HIS328      0.0817
     86  ND1       23.9290    2.0270   38.8610 N.ar  328  HIS328     -0.2268
     87  CD2       25.5380    1.1280   37.6820 C.ar  328  HIS328      0.1154
     88  CE1       24.2150    0.8600   39.4100 C.ar  328  HIS328      0.1986
     89  NE2       25.1780    0.2860   38.7040 N.ar  328  HIS328     -0.2212
     90  N         22.6770    8.1080   36.7130 N.3   330  ARG330     -0.1245
     91  CA        22.4310    9.2400   37.5620 C.3   330  ARG330      0.1563
     92  C         22.9120   10.4360   36.7960 C.2   330  ARG330      0.2260
     93  O         23.8360   10.3190   35.9970 O.2   330  ARG330     -0.2867
     94  CB        23.2310    9.1690   38.8370 C.3   330  ARG330      0.0307
     95  CG        22.9150    8.0090   39.7520 C.3   330  ARG330      0.0489
     96  CD        24.0240    7.9500   40.7840 C.3   330  ARG330      0.2205
     97  NE        23.8420    6.8590   41.7250 N.pl3 330  ARG330     -0.0865
     98  CZ        23.0410    6.9040   42.7830 C.cat 330  ARG330      0.5346
     99  NH1       22.2640    7.9580   43.0040 N.pl3 330  ARG330      0.1354
    100  NH2       22.9600    5.8510   43.5720 N.pl3 330  ARG330      0.1354
    101  N         18.5680   -4.0860   36.8020 N.3   353  THR353     -0.1218
    102  CA        18.6000   -2.8540   37.5570 C.3   353  THR353      0.1862
    103  C         18.7310   -1.6380   36.6480 C.2   353  THR353      0.2287
    104  O         19.6560   -1.5740   35.8260 O.2   353  THR353     -0.2866
    105  CB        19.8250   -2.8270   38.4490 C.3   353  THR353      0.1770
    106  OG1       19.7160   -3.8530   39.4480 O.3   353  THR353     -0.2211
    107  CG2       19.9810   -1.4580   39.0740 C.3   353  THR353      0.0375
    108  N         18.9950    2.6340   37.1340 N.3   355  ASN355     -0.1240
    109  CA        19.2470    3.6240   38.1810 C.3   355  ASN355      0.1653
    110  C         19.2470    4.9980   37.5450 C.2   355  ASN355      0.2266
    111  O         20.1420    5.3520   36.7690 O.2   355  ASN355     -0.2867
    112  CB        20.6050    3.3170   38.8550 C.3   355  ASN355      0.1155
    113  CG        21.1260    4.4360   39.7370 C.2   355  ASN355      0.2627
    114  OD1       20.4610    5.4400   40.0440 O.2   355  ASN355     -0.2716
    115  ND2       22.3550    4.2560   40.1640 N.am  355  ASN355     -0.0877
    116  N         14.8740   -4.1000   39.9070 N.3   377  ILE377     -0.1245
    117  CA        15.1170   -2.8580   40.6340 C.3   377  ILE377      0.1561
    118  C         14.9170   -1.6390   39.7350 C.2   377  ILE377      0.2260
    119  O         15.6600   -1.4530   38.7810 O.2   377  ILE377     -0.2867
    120  CB        16.5380   -2.8110   41.1740 C.3   377  ILE377      0.0252
    121  CG1       16.6910   -3.8640   42.2670 C.3   377  ILE377      0.0019
    122  CG2       16.8430   -1.4340   41.7160 C.3   377  ILE377      0.0019
    123  CD1       18.0930   -4.0190   42.7720 C.3   377  ILE377      0.0001
    124  N         35.4020    3.0860   46.3940 N.3   396  ASN396     -0.1240
    125  CA        35.1980    3.7520   45.1320 C.3   396  ASN396      0.1653
    126  C         35.0260    5.2480   45.3690 C.2   396  ASN396      0.2266
    127  O         34.2190    5.6570   46.1880 O.2   396  ASN396     -0.2867
    128  CB        33.9520    3.1770   44.4490 C.3   396  ASN396      0.1155
    129  CG        33.8460    3.5670   42.9940 C.2   396  ASN396      0.2627
    130  OD1       33.6940    4.7410   42.6560 O.2   396  ASN396     -0.2716
    131  ND2       33.8430    2.5770   42.1240 N.am  396  ASN396     -0.0877
    132  N         31.4030    6.7070   43.0670 N.3   399  HIS399     -0.1226
    133  CA        30.0970    6.4470   43.6840 C.3   399  HIS399      0.1752
    134  C         30.1840    5.7280   45.0250 C.2   399  HIS399      0.2596
    135  O         31.2620    5.2500   45.4370 O.2   399  HIS399     -0.2718
    136  CB        29.1970    5.6500   42.7340 C.3   399  HIS399      0.0759
    137  CG        29.8090    4.3830   42.2460 C.ar  399  HIS399      0.0818
    138  ND1       30.5780    4.3240   41.1100 N.ar  399  HIS399     -0.2268
    139  CD2       29.7910    3.1270   42.7500 C.ar  399  HIS399      0.1154
    140  CE1       30.9940    3.0820   40.9240 C.ar  399  HIS399      0.1986
    141  NE2       30.5190    2.3330   41.8980 N.ar  399  HIS399     -0.2212
    142  N         29.0380    5.6870   45.7090 N.am  400  PHE400     -0.1962
    143  CA        28.8370    4.8280   46.8820 C.3   400  PHE400      0.1771
    144  C         28.4900    3.4240   46.4280 C.2   400  PHE400      0.2620
    145  O         27.9370    3.2380   45.3690 O.2   400  PHE400     -0.2715
    146  CB        27.7370    5.3800   47.7980 C.3   400  PHE400      0.0574
    147  CG        28.1010    6.6830   48.4540 C.ar  400  PHE400     -0.0200
    148  CD1       29.1930    6.7570   49.3310 C.ar  400  PHE400     -0.0042
    149  CD2       27.4210    7.8480   48.1390 C.ar  400  PHE400     -0.0042
    150  CE1       29.5790    7.9660   49.8970 C.ar  400  PHE400     -0.0003
    151  CE2       27.7940    9.0580   48.7110 C.ar  400  PHE400     -0.0003
    152  CZ        28.8760    9.1170   49.5840 C.ar  400  PHE400     -0.0000
    153  N         28.8950    2.4400   47.2130 N.am  401  THR401     -0.1937
    154  CA        28.6970    1.0560   46.8660 C.3   401  THR401      0.2028
    155  C         27.7390    0.3450   47.8040 C.2   401  THR401      0.2642
    156  O         27.6350   -0.8790   47.7430 O.2   401  THR401     -0.2714
    157  CB        30.0180    0.2880   46.8660 C.3   401  THR401      0.1808
    158  OG1       30.7170    0.5920   48.0640 O.3   401  THR401     -0.2208
    159  CG2       30.8700    0.6920   45.6650 C.3   401  THR401      0.0379
    160  N         26.9660    1.0790   48.5950 N.am  402  ARG402     -0.1963
    161  CA        25.8400    0.4280   49.2620 C.3   402  ARG402      0.1714
    162  C         24.8360   -0.0750   48.2360 C.2   402  ARG402      0.2458
    163  O         24.7760    0.3960   47.1120 O.2   402  ARG402     -0.2730
    164  CB        25.1530    1.3060   50.3220 C.3   402  ARG402      0.0347
    165  CG        25.0210    2.7870   50.0070 C.3   402  ARG402      0.0492
    166  CD        23.9260    3.4260   50.8600 C.3   402  ARG402      0.2205
    167  NE        22.5930    3.0730   50.3460 N.pl3 402  ARG402     -0.0865
    168  CZ        21.6230    3.9370   50.0230 C.cat 402  ARG402      0.5346
    169  NH1       21.7770    5.2490   50.1980 N.pl3 402  ARG402      0.1354
    170  NH2       20.4790    3.4760   49.5280 N.pl3 402  ARG402      0.1354
    171  N         24.0900   -1.0990   48.5950 N.am  403  PRO403     -0.2716
    172  CA        23.0170   -1.5300   47.7060 C.3   403  PRO403      0.1536
    173  C         22.0070   -0.4320   47.4720 C.2   403  PRO403      0.2598
    174  O         21.7310    0.3640   48.3770 O.2   403  PRO403     -0.2715
    175  CB        22.3640   -2.6700   48.4730 C.3   403  PRO403      0.0310
    176  CG        23.4780   -3.2320   49.2870 C.3   403  PRO403      0.0237
    177  CD        24.3140   -2.0420   49.6990 C.3   403  PRO403      0.0939
    178  N         21.4400   -0.4050   46.2710 N.am  404  LEU404     -0.1978
    179  CA        20.4500    0.6050   45.9310 C.3   404  LEU404      0.1596
    180  C         19.2090    0.4690   46.8160 C.2   404  LEU404      0.2287
    181  O         18.6690    1.4620   47.2770 O.2   404  LEU404     -0.2864
    182  CB        20.0630    0.5240   44.4440 C.3   404  LEU404      0.0297
    183  CG        21.1170    1.0550   43.4740 C.3   404  LEU404      0.0022
    184  CD1       20.7240    0.7320   42.0500 C.3   404  LEU404      0.0001
    185  CD2       21.3470    2.5460   43.6400 C.3   404  LEU404      0.0001
@<TRIPOS>BOND
     1    13    14    1
     2    38    39    1
     3    14    15    1
     4    14    17    1
     5    39    40    1
     6    39    42    1
     7    15    16    2
     8    15    22   am
     9    69    70    1
    10    25    24    2
    11    50    49    2
    12    24    23    1
    13    22    23    1
    14    43    42    1
    15    43    44    1
    16    40    47   am
    17    40    41    2
    18    58    57    2
    19    17    18    1
    20    49    48    1
    21    47    48    1
    22    18    19    1
    23    57    56    1
    24    55    56    1
    25    23    26    1
    26    46    44   ar
    27     1     2    1
    28     3     4    2
    29     3     2    1
    30    70    71    1
    31    70    73    1
    32    44    45   ar
    33    48    51    1
    34    83    82    2
    35    29    30    1
    36    74    73    1
    37    74    75    1
    38     2     5    1
    39    56    59    1
    40    79    77    1
    41    32    31    2
    42    63    64    1
    43    71    72    2
    44    76    77    2
    45    76    75    1
    46    19    20    1
    47    31    30    1
    48    20    21    1
    49    80    81    1
    50    82    81    1
    51    66    65    2
    52    30    33    1
    53    26    27    1
    54    26    28    1
    55    77    78    1
    56    51    52    1
    57    51    53    1
    58    65    64    1
    59    64    67    1
    60   104   103    2
    61    59    60    1
    62    81    84    1
    63    93    92    2
    64     5     6    1
    65    52    54    1
    66    62    60   ar
    67   103   102    1
    68    90    91    1
    69    33    34    1
    70     6     7   ar
    71     6     8   ar
    72   111   110    2
    73    92    91    1
    74   101   102    1
    75     7     9   ar
    76    60    61   ar
    77    84    85    1
    78    34    35    1
    79    67    68    1
    80   108   109    1
    81     8    10   ar
    82     9    11   ar
    83   110   109    1
    84   102   105    1
    85    91    94    1
    86    87    85   ar
    87    87    89   ar
    88    85    86   ar
    89    10    11   ar
    90    11    12    1
    91   109   112    1
    92   105   107    1
    93   105   106    1
    94    35    36   ar
    95    35    37   ar
    96    89    88   ar
    97   119   118    2
    98    94    95    1
    99   112   113    1
   100    86    88   ar
   101   118   117    1
   102   113   114    2
   103   113   115   am
   104    95    96    1
   105   116   117    1
   106   117   120    1
   107    96    97    1
   108   140   138   ar
   109   140   141   ar
   110   138   137   ar
   111   120   122    1
   112   120   121    1
   113    97    98    2
   114   141   139   ar
   115   184   183    1
   116   131   129   am
   117   137   136    1
   118   137   139   ar
   119   121   123    1
   120   130   129    2
   121   136   133    1
   122    98    99    1
   123    98   100    1
   124   129   128    1
   125   132   133    1
   126   183   185    1
   127   183   182    1
   128   133   134    1
   129   182   179    1
   130   128   125    1
   131   134   135    2
   132   134   142   am
   133   125   126    1
   134   125   124    1
   135   126   127    2
   136   145   144    2
   137   159   157    1
   138   142   143    1
   139   179   178    1
   140   179   180    1
   141   178   173   am
   142   144   143    1
   143   144   153   am
   144   180   181    2
   145   154   157    1
   146   154   153    1
   147   154   155    1
   148   157   158    1
   149   143   146    1
   150   163   162    2
   151   173   172    1
   152   173   174    2
   153   172   175    1
   154   172   171    1
   155   156   155    2
   156   146   147    1
   157   155   160   am
   158   149   147   ar
   159   149   151   ar
   160   162   171   am
   161   162   161    1
   162   147   148   ar
   163   175   176    1
   164   160   161    1
   165   171   177    1
   166   151   152   ar
   167   161   164    1
   168   176   177    1
   169   148   150   ar
   170   170   168    1
   171   152   150   ar
   172   165   164    1
   173   165   166    1
   174   168   169    1
   175   168   167    2
   176   167   166    1
