@<TRIPOS>MOLECULE
tmp/4r09C00.pdb
 180 172 0 0 0
SMALL
GASTEIGER

@<TRIPOS>ATOM
      1  N         25.6760   26.4380   25.9490 N.3   180  LYS180     -0.1245
      2  CA        24.9750   27.3640   25.0520 C.3   180  LYS180      0.1561
      3  C         25.9290   28.0450   24.0750 C.2   180  LYS180      0.2260
      4  O         26.8210   28.8090   24.4950 O.2   180  LYS180     -0.2867
      5  CB        24.2670   28.4440   25.8560 C.3   180  LYS180      0.0271
      6  CG        23.2230   27.9130   26.8100 C.3   180  LYS180      0.0035
      7  CD        22.3920   29.0310   27.4270 C.3   180  LYS180      0.0206
      8  CE        21.0940   28.4690   27.9810 C.3   180  LYS180      0.1093
      9  NZ        20.6490   29.2070   29.1930 N.3   180  LYS180     -0.1314
     10  N         21.8510   24.5710   24.0240 N.3   204  LEU204     -0.1245
     11  CA        21.3290   25.5890   23.1250 C.3   204  LEU204      0.1561
     12  C         22.2550   25.8650   21.9660 C.2   204  LEU204      0.2260
     13  O         23.4210   26.2130   22.1800 O.2   204  LEU204     -0.2867
     14  CB        21.1130   26.8970   23.8590 C.3   204  LEU204      0.0270
     15  CG        20.3550   27.9230   22.9920 C.3   204  LEU204      0.0019
     16  CD1       19.5790   28.9040   23.8580 C.3   204  LEU204      0.0001
     17  CD2       21.2700   28.6710   22.0400 C.3   204  LEU204      0.0001
     18  N         17.1960   23.6730   23.1000 N.3   245  TYR245     -0.1241
     19  CA        16.8240   24.8800   22.3830 C.3   245  TYR245      0.1605
     20  C         17.5380   24.9750   21.0410 C.2   245  TYR245      0.2264
     21  O         18.7470   25.1330   21.0220 O.2   245  TYR245     -0.2867
     22  CB        17.2190   26.0640   23.2330 C.3   245  TYR245      0.0534
     23  CG        16.5790   26.0190   24.6010 C.ar  245  TYR245     -0.0201
     24  CD1       17.2570   25.4610   25.7040 C.ar  245  TYR245     -0.0009
     25  CD2       15.2790   26.4850   24.7950 C.ar  245  TYR245     -0.0009
     26  CE1       16.6670   25.4100   26.9590 C.ar  245  TYR245      0.0417
     27  CE2       14.6850   26.4350   26.0490 C.ar  245  TYR245      0.0417
     28  CZ        15.3860   25.8910   27.1230 C.ar  245  TYR245      0.1957
     29  OH        14.7900   25.8320   28.3430 O.3   245  TYR245     -0.2866
     30  N         12.9490   20.8470   23.1960 N.3   268  LYS268     -0.1231
     31  CA        11.6660   21.4290   23.6330 C.3   268  LYS268      0.1693
     32  C         11.2520   22.6480   22.7990 C.2   268  LYS268      0.2591
     33  O         10.0640   22.9190   22.6560 O.2   268  LYS268     -0.2718
     34  CB        11.7350   21.8850   25.0920 C.3   268  LYS268      0.0285
     35  CG        12.5250   20.9980   26.0270 C.3   268  LYS268      0.0035
     36  CD        13.1500   21.8310   27.1300 C.3   268  LYS268      0.0206
     37  CE        12.1200   22.2720   28.1440 C.3   268  LYS268      0.1093
     38  NZ        12.3990   23.6490   28.6380 N.3   268  LYS268     -0.1314
     39  N         12.2440   23.4010   22.3150 N.am  269  VAL269     -0.1980
     40  CA        12.0310   24.6340   21.5910 C.3   269  VAL269      0.1595
     41  C         12.7990   24.6320   20.2510 C.2   269  VAL269      0.2287
     42  O         14.0620   24.6710   20.2190 O.2   269  VAL269     -0.2864
     43  CB        12.5100   25.8500   22.3910 C.3   269  VAL269      0.0276
     44  CG1       12.3170   27.1190   21.5660 C.3   269  VAL269      0.0022
     45  CG2       11.7780   25.9580   23.7280 C.3   269  VAL269      0.0022
     46  N         12.8730   26.9000   16.9730 N.3   271  ASP271     -0.1239
     47  CA        12.5220   28.1850   16.4060 C.3   271  ASP271      0.1674
     48  C         12.9230   28.1790   14.9170 C.2   271  ASP271      0.2266
     49  O         14.1160   28.0350   14.5800 O.2   271  ASP271     -0.2867
     50  CB        13.2690   29.2860   17.1610 C.3   271  ASP271      0.1410
     51  CG        12.7010   30.6770   16.9250 C.2   271  ASP271      0.3668
     52  OD1       11.8840   30.8390   15.9960 O.co2 271  ASP271     -0.2456
     53  OD2       13.0810   31.6280   17.6700 O.co2 271  ASP271     -0.2456
     54  N          7.9940   21.2140   23.0020 N.3   294  GLU294     -0.1231
     55  CA         6.9740   22.0070   23.6910 C.3   294  GLU294      0.1699
     56  C          6.6270   23.3140   22.9420 C.2   294  GLU294      0.2592
     57  O          5.4710   23.7810   22.9920 O.2   294  GLU294     -0.2718
     58  CB         7.4250   22.3600   25.1190 C.3   294  GLU294      0.0402
     59  CG         7.6950   21.1650   26.0170 C.3   294  GLU294      0.1161
     60  CD         7.7960   21.5560   27.4790 C.2   294  GLU294      0.3649
     61  OE1        6.7460   21.7370   28.1330 O.co2 294  GLU294     -0.2457
     62  OE2        8.9180   21.6930   27.9840 O.co2 294  GLU294     -0.2457
     63  N          7.6190   23.9210   22.2860 N.am  295  ILE295     -0.1980
     64  CA         7.3830   25.1590   21.5540 C.3   295  ILE295      0.1595
     65  C          7.9030   25.0990   20.1380 C.2   295  ILE295      0.2287
     66  O          9.0690   24.7810   19.9120 O.2   295  ILE295     -0.2864
     67  CB         8.0070   26.3320   22.2770 C.3   295  ILE295      0.0276
     68  CG1        7.3030   26.4950   23.6240 C.3   295  ILE295      0.0022
     69  CG2        7.9040   27.5900   21.4240 C.3   295  ILE295      0.0022
     70  CD1        7.7960   27.6600   24.4250 C.3   295  ILE295      0.0001
     71  N          8.0060   27.3910   16.6490 N.3   297  ASP297     -0.1239
     72  CA         7.7230   28.6360   15.9720 C.3   297  ASP297      0.1674
     73  C          7.9970   28.5600   14.4850 C.2   297  ASP297      0.2266
     74  O          9.1480   28.5920   14.0600 O.2   297  ASP297     -0.2867
     75  CB         8.5220   29.7770   16.5670 C.3   297  ASP297      0.1410
     76  CG         7.9170   31.0980   16.2470 C.2   297  ASP297      0.3668
     77  OD1        8.2020   32.0910   16.9530 O.co2 297  ASP297     -0.2456
     78  OD2        7.1010   31.1290   15.2890 O.co2 297  ASP297     -0.2456
     79  N          3.1500   22.6310   23.6060 N.3   324  ARG324     -0.1245
     80  CA         2.3610   23.5820   24.4260 C.3   324  ARG324      0.1563
     81  C          1.9570   24.8550   23.6580 C.2   324  ARG324      0.2260
     82  O          0.8980   25.4130   23.8900 O.2   324  ARG324     -0.2867
     83  CB         3.1460   24.0000   25.6860 C.3   324  ARG324      0.0307
     84  CG         3.5180   22.8490   26.6270 C.3   324  ARG324      0.0489
     85  CD         4.0120   23.3300   28.0040 C.3   324  ARG324      0.2205
     86  NE         5.3400   23.9750   27.9250 N.pl3 324  ARG324     -0.0865
     87  CZ         5.5610   25.3000   27.8850 C.cat 324  ARG324      0.5346
     88  NH1        4.5560   26.1760   27.9370 N.pl3 324  ARG324      0.1354
     89  NH2        6.8030   25.7560   27.7830 N.pl3 324  ARG324      0.1354
     90  N          3.2980   28.6190   17.1160 N.3   327  HIS327     -0.1241
     91  CA         3.4030   29.9910   16.6690 C.3   327  HIS327      0.1621
     92  C          3.4730   30.0250   15.1660 C.2   327  HIS327      0.2264
     93  O          4.4750   29.6120   14.5830 O.2   327  HIS327     -0.2867
     94  CB         4.6670   30.6310   17.2350 C.3   327  HIS327      0.0745
     95  CG         4.6210   30.8510   18.7140 C.ar  327  HIS327      0.0817
     96  ND1        3.8080   31.7940   19.2970 N.ar  327  HIS327     -0.2268
     97  CD2        5.2870   30.2510   19.7280 C.ar  327  HIS327      0.1154
     98  CE1        3.9650   31.7580   20.6060 C.ar  327  HIS327      0.1986
     99  NE2        4.8700   30.8410   20.8900 N.ar  327  HIS327     -0.2212
    100  N          2.7180   33.1860   13.1190 N.3   329  ARG329     -0.1245
    101  CA         2.5030   34.4990   12.5980 C.3   329  ARG329      0.1563
    102  C          2.8740   34.4830   11.1150 C.2   329  ARG329      0.2260
    103  O          3.7050   33.6950   10.6990 O.2   329  ARG329     -0.2867
    104  CB         3.4110   35.5170   13.2850 C.3   329  ARG329      0.0307
    105  CG         3.2240   35.7050   14.7660 C.3   329  ARG329      0.0489
    106  CD         4.3900   36.5390   15.3300 C.3   329  ARG329      0.2205
    107  NE         5.6910   35.8550   15.1880 N.pl3 329  ARG329     -0.0865
    108  CZ         6.8570   36.4800   15.0370 C.cat 329  ARG329      0.5346
    109  NH1        6.9090   37.7960   15.0180 N.pl3 329  ARG329      0.1354
    110  NH2        7.9770   35.7950   14.8790 N.pl3 329  ARG329      0.1354
    111  N         -1.0540   30.8320   18.2120 N.3   354  ASN354     -0.1240
    112  CA        -0.8130   32.2070   17.7850 C.3   354  ASN354      0.1653
    113  C         -0.8460   32.3500   16.2480 C.2   354  ASN354      0.2266
    114  O          0.0690   31.9040   15.5410 O.2   354  ASN354     -0.2867
    115  CB         0.5340   32.6680   18.3210 C.3   354  ASN354      0.1155
    116  CG         0.9860   33.9770   17.7260 C.2   354  ASN354      0.2627
    117  OD1        0.2080   34.7050   17.1540 O.2   354  ASN354     -0.2716
    118  ND2        2.2610   34.2880   17.8880 N.am  354  ASN354     -0.0877
    119  N         15.5640   38.8630   21.9030 N.3   395  ASN395     -0.1240
    120  CA        15.3840   38.0010   20.7290 C.3   395  ASN395      0.1653
    121  C         15.2320   38.9160   19.5580 C.2   395  ASN395      0.2266
    122  O         14.6220   39.9650   19.6750 O.2   395  ASN395     -0.2867
    123  CB        14.1410   37.1240   20.9030 C.3   395  ASN395      0.1155
    124  CG        14.0610   35.9810   19.8950 C.2   395  ASN395      0.2627
    125  OD1       13.8550   36.1890   18.7070 O.2   395  ASN395     -0.2716
    126  ND2       14.1420   34.7570   20.3940 N.am  395  ASN395     -0.0877
    127  N         11.4830   37.8040   17.1830 N.3   398  HIS398     -0.1226
    128  CA        10.1940   38.1620   17.7090 C.3   398  HIS398      0.1752
    129  C         10.3230   38.8670   19.0340 C.2   398  HIS398      0.2596
    130  O         11.3410   38.7760   19.7180 O.2   398  HIS398     -0.2718
    131  CB         9.2730   36.9310   17.8320 C.3   398  HIS398      0.0759
    132  CG         9.8250   35.8440   18.6880 C.ar  398  HIS398      0.0818
    133  ND1       10.4030   34.7100   18.1610 N.ar  398  HIS398     -0.2268
    134  CD2        9.9130   35.7230   20.0360 C.ar  398  HIS398      0.1154
    135  CE1       10.8060   33.9270   19.1470 C.ar  398  HIS398      0.1986
    136  NE2       10.5310   34.5240   20.2950 N.ar  398  HIS398     -0.2212
    137  N          9.2700   39.5910   19.3690 N.am  399  PHE399     -0.1962
    138  CA         9.1180   40.1970   20.6570 C.3   399  PHE399      0.1771
    139  C          8.8570   39.0990   21.6310 C.2   399  PHE399      0.2620
    140  O          8.3750   38.0280   21.2470 O.2   399  PHE399     -0.2715
    141  CB         7.9330   41.1390   20.6340 C.3   399  PHE399      0.0574
    142  CG         8.1410   42.3470   19.7720 C.ar  399  PHE399     -0.0200
    143  CD1        9.1160   43.2990   20.1010 C.ar  399  PHE399     -0.0042
    144  CD2        7.3600   42.5500   18.6240 C.ar  399  PHE399     -0.0042
    145  CE1        9.2960   44.4300   19.3140 C.ar  399  PHE399     -0.0003
    146  CE2        7.5380   43.6810   17.8410 C.ar  399  PHE399     -0.0003
    147  CZ         8.5020   44.6260   18.1840 C.ar  399  PHE399     -0.0000
    148  N          9.1410   39.3600   22.9040 N.am  400  THR400     -0.1937
    149  CA         8.9860   38.3320   23.9330 C.3   400  THR400      0.2028
    150  C          8.0310   38.6680   25.1000 C.2   400  THR400      0.2642
    151  O          7.9210   37.8970   26.0410 O.2   400  THR400     -0.2714
    152  CB        10.3600   37.9020   24.4570 C.3   400  THR400      0.1808
    153  OG1       11.1140   39.0580   24.8070 O.3   400  THR400     -0.2208
    154  CG2       11.1020   37.1530   23.3950 C.3   400  THR400      0.0379
    155  N          7.3230   39.7850   25.0110 N.am  401  ARG401     -0.1963
    156  CA         6.1720   40.0570   25.8830 C.3   401  ARG401      0.1714
    157  C          5.0690   38.9720   25.8100 C.2   401  ARG401      0.2458
    158  O          4.9280   38.2950   24.8120 O.2   401  ARG401     -0.2730
    159  CB         5.5510   41.4300   25.5330 C.3   401  ARG401      0.0347
    160  CG         5.1510   41.5630   24.0630 C.3   401  ARG401      0.0492
    161  CD         4.1740   42.7100   23.7780 C.3   401  ARG401      0.2205
    162  NE         2.7570   42.3000   23.6870 N.pl3 401  ARG401     -0.0865
    163  CZ         2.2600   41.4010   22.8230 C.cat 401  ARG401      0.5346
    164  NH1        3.0520   40.7400   21.9810 N.pl3 401  ARG401      0.1354
    165  NH2        0.9610   41.1280   22.8310 N.pl3 401  ARG401      0.1354
    166  N          4.2500   38.8440   26.8740 N.am  402  PRO402     -0.2716
    167  CA         3.1170   37.9210   26.8280 C.3   402  PRO402      0.1536
    168  C          2.1270   38.2880   25.7500 C.2   402  PRO402      0.2598
    169  O          1.8730   39.4590   25.5370 O.2   402  PRO402     -0.2715
    170  CB         2.4590   38.0970   28.2010 C.3   402  PRO402      0.0310
    171  CG         3.5250   38.6400   29.0720 C.3   402  PRO402      0.0237
    172  CD         4.3420   39.5180   28.1820 C.3   402  PRO402      0.0939
    173  N          1.5450   37.2790   25.1150 N.am  403  LEU403     -0.1978
    174  CA         0.5700   37.4890   24.0680 C.3   403  LEU403      0.1596
    175  C         -0.6550   38.2080   24.5920 C.2   403  LEU403      0.2287
    176  O         -1.1360   39.1200   23.9570 O.2   403  LEU403     -0.2864
    177  CB         0.1790   36.1610   23.4270 C.3   403  LEU403      0.0297
    178  CG         1.2430   35.5360   22.5280 C.3   403  LEU403      0.0022
    179  CD1        0.8150   34.1350   22.1680 C.3   403  LEU403      0.0001
    180  CD2        1.5120   36.3470   21.2560 C.3   403  LEU403      0.0001
@<TRIPOS>BOND
     1   103   102    2
     2   102   101    1
     3   101   100    1
     4   101   104    1
     5   104   105    1
     6    74    73    2
     7    73    72    1
     8    49    48    2
     9    93    92    2
    10   105   106    1
    11   110   108    1
    12    48    47    1
    13   109   108    1
    14   108   107    2
    15    92    91    1
    16   107   106    1
    17    78    76   ar
    18   114   113    2
    19    72    75    1
    20    72    71    1
    21    52    51   ar
    22    76    75    1
    23    76    77   ar
    24   113   112    1
    25    47    46    1
    26    47    50    1
    27    91    90    1
    28    91    94    1
    29    51    50    1
    30    51    53   ar
    31   117   116    2
    32   127   128    1
    33    94    95    1
    34   128   131    1
    35   128   129    1
    36   116   118   am
    37   116   115    1
    38   112   111    1
    39   112   115    1
    40   131   132    1
    41   146   147   ar
    42   146   144   ar
    43   133   132   ar
    44   133   135   ar
    45   147   145   ar
    46   144   142   ar
    47   132   134   ar
    48   125   124    2
    49    95    96   ar
    50    95    97   ar
    51   129   137   am
    52   129   130    2
    53   135   136   ar
    54    96    98   ar
    55   145   143   ar
    56   137   138    1
    57   121   122    2
    58   121   120    1
    59    97    99   ar
    60   142   143   ar
    61   142   141    1
    62   124   126   am
    63   124   123    1
    64    66    65    2
    65   134   136   ar
    66    65    64    1
    67    42    41    2
    68    41    40    1
    69    98    99   ar
    70   141   138    1
    71   138   139    1
    72   120   123    1
    73   120   119    1
    74    21    20    2
    75    20    19    1
    76   140   139    2
    77   180   178    1
    78    69    67    1
    79    64    67    1
    80    64    63    1
    81    44    43    1
    82    40    39    1
    83    40    43    1
    84   139   148   am
    85    12    13    2
    86    12    11    1
    87   164   163    1
    88    17    15    1
    89   179   178    1
    90    67    68    1
    91    63    56   am
    92    39    32   am
    93    19    18    1
    94    19    22    1
    95    43    45    1
    96   178   177    1
    97    33    32    2
    98    32    31    1
    99   163   165    1
   100   163   162    2
   101   148   149    1
   102    56    57    2
   103    56    55    1
   104    15    16    1
   105    15    14    1
   106    54    55    1
   107    11    14    1
   108    11    10    1
   109    30    31    1
   110    22    23    1
   111   154   152    1
   112   177   174    1
   113    79    80    1
   114    68    70    1
   115    31    34    1
   116    81    82    2
   117    81    80    1
   118   162   161    1
   119    55    58    1
   120   161   160    1
   121   149   152    1
   122   149   150    1
   123   176   175    2
   124   160   159    1
   125   174   175    1
   126   174   173    1
   127     3     4    2
   128     3     2    1
   129    80    83    1
   130   152   153    1
   131    23    25   ar
   132    23    24   ar
   133    25    27   ar
   134   158   157    2
   135   155   150   am
   136   155   156    1
   137     2     5    1
   138     2     1    1
   139    34    35    1
   140   150   151    2
   141   173   168   am
   142    58    59    1
   143   159   156    1
   144   169   168    2
   145    83    84    1
   146    24    26   ar
   147   168   167    1
   148   157   156    1
   149   157   166   am
   150     5     6    1
   151    59    60    1
   152    35    36    1
   153    27    28   ar
   154    84    85    1
   155     6     7    1
   156   167   166    1
   157   167   170    1
   158   166   172    1
   159    26    28   ar
   160    28    29    1
   161    36    37    1
   162     7     8    1
   163    60    62   ar
   164    60    61   ar
   165    89    87    1
   166    87    86    2
   167    87    88    1
   168    86    85    1
   169     8     9    1
   170    37    38    1
   171   172   171    1
   172   170   171    1
