@<TRIPOS>MOLECULE
tmp/4r09C01.pdb
 152 152 0 0 0
SMALL
GASTEIGER

@<TRIPOS>ATOM
      1  N         16.8410   35.1840    5.0970 N.3   213  ARG213     -0.1245
      2  CA        15.7400   35.5620    4.2210 C.3   213  ARG213      0.1563
      3  C         15.6040   37.0740    4.2340 C.2   213  ARG213      0.2260
      4  O         15.1700   37.6540    5.2180 O.2   213  ARG213     -0.2867
      5  CB        14.4390   34.9050    4.6950 C.3   213  ARG213      0.0307
      6  CG        13.1610   35.6630    4.3710 C.3   213  ARG213      0.0489
      7  CD        11.9010   34.8020    4.5480 C.3   213  ARG213      0.2205
      8  NE        10.7120   35.5840    4.1970 N.pl3 213  ARG213     -0.0865
      9  CZ         9.5220   35.0960    3.9030 C.cat 213  ARG213      0.5346
     10  NH1        9.2820   33.8010    3.8890 N.pl3 213  ARG213      0.1354
     11  NH2        8.5640   35.9310    3.5920 N.pl3 213  ARG213      0.1354
     12  N         12.2400   42.1780    2.5520 N.3   216  ASN216     -0.1225
     13  CA        11.5890   43.0660    3.5350 C.3   216  ASN216      0.1785
     14  C         12.3330   43.1850    4.8360 C.2   216  ASN216      0.2597
     15  O         11.7400   43.5090    5.8620 O.2   216  ASN216     -0.2718
     16  CB        10.1500   42.6200    3.8070 C.3   216  ASN216      0.1169
     17  CG         9.2990   43.7230    4.4170 C.2   216  ASN216      0.2627
     18  OD1        9.5380   44.8930    4.1890 O.2   216  ASN216     -0.2716
     19  ND2        8.2910   43.3400    5.1880 N.am  216  ASN216     -0.0877
     20  N         13.6430   42.9660    4.7970 N.am  217  ALA217     -0.1966
     21  CA        14.4640   43.0070    6.0070 C.3   217  ALA217      0.1713
     22  C         14.4560   44.4040    6.6400 C.2   217  ALA217      0.2458
     23  O         14.8060   45.3650    5.9740 O.2   217  ALA217     -0.2730
     24  CB        15.9000   42.5990    5.6780 C.3   217  ALA217      0.0333
     25  N         14.1310   44.5100    7.9520 N.am  218  PRO218     -0.2716
     26  CA        14.2840   45.8020    8.6690 C.3   218  PRO218      0.1536
     27  C         15.7180   46.1360    9.0170 C.2   218  PRO218      0.2598
     28  O         15.9730   46.9710    9.9090 O.2   218  PRO218     -0.2715
     29  CB        13.4590   45.6090    9.9500 C.3   218  PRO218      0.0310
     30  CG        13.4150   44.1510   10.1540 C.3   218  PRO218      0.0237
     31  CD        13.5950   43.4520    8.8270 C.3   218  PRO218      0.0939
     32  N         16.6430   45.5400    8.2880 N.am  219  PHE219     -0.1974
     33  CA        18.0500   45.7950    8.4830 C.3   219  PHE219      0.1639
     34  C         18.7670   45.4200    7.1910 C.2   219  PHE219      0.2290
     35  O         18.2410   44.6260    6.3910 O.2   219  PHE219     -0.2864
     36  CB        18.5810   44.9350    9.6630 C.3   219  PHE219      0.0560
     37  CG        18.2710   43.4560    9.5190 C.ar  219  PHE219     -0.0200
     38  CD1       19.1430   42.6130    8.8610 C.ar  219  PHE219     -0.0042
     39  CD2       17.0660   42.9330    9.9930 C.ar  219  PHE219     -0.0042
     40  CE1       18.8340   41.2630    8.6790 C.ar  219  PHE219     -0.0003
     41  CE2       16.7540   41.5830    9.8280 C.ar  219  PHE219     -0.0003
     42  CZ        17.6330   40.7500    9.1530 C.ar  219  PHE219     -0.0000
     43  N         15.5120   32.4630   10.0560 N.3   250  SER250     -0.1217
     44  CA        16.1860   33.2280    8.9930 C.3   250  SER250      0.1889
     45  C         17.4650   32.5610    8.5060 C.2   250  SER250      0.2288
     46  O         18.5430   33.1320    8.5670 O.2   250  SER250     -0.2866
     47  CB        16.4870   34.6320    9.4780 C.3   250  SER250      0.2089
     48  OG        16.7710   35.4650    8.3790 O.3   250  SER250     -0.2183
     49  N         10.9680   32.9250    9.6840 N.3   274  PHE274     -0.1241
     50  CA        11.5710   33.6030    8.5090 C.3   274  PHE274      0.1605
     51  C         12.4150   32.6710    7.6410 C.2   274  PHE274      0.2264
     52  O         13.5350   32.9950    7.2510 O.2   274  PHE274     -0.2867
     53  CB        12.3710   34.8600    8.9000 C.3   274  PHE274      0.0534
     54  CG        11.5500   35.9060    9.6360 C.ar  274  PHE274     -0.0203
     55  CD1       10.8890   36.9020    8.9460 C.ar  274  PHE274     -0.0042
     56  CD2       11.4350   35.8720   11.0060 C.ar  274  PHE274     -0.0042
     57  CE1       10.1370   37.8500    9.6100 C.ar  274  PHE274     -0.0003
     58  CE2       10.6910   36.8140   11.6740 C.ar  274  PHE274     -0.0003
     59  CZ        10.0510   37.8140   10.9750 C.ar  274  PHE274     -0.0000
     60  N          6.2690   33.6540    9.8700 N.3   300  PHE300     -0.1241
     61  CA         6.8020   34.4530    8.7590 C.3   300  PHE300      0.1605
     62  C          7.5600   33.5790    7.7660 C.2   300  PHE300      0.2264
     63  O          8.6780   33.8690    7.3550 O.2   300  PHE300     -0.2867
     64  CB         7.6170   35.6430    9.2720 C.3   300  PHE300      0.0534
     65  CG         6.7670   36.7790    9.7560 C.ar  300  PHE300     -0.0203
     66  CD1        6.2210   37.6780    8.8670 C.ar  300  PHE300     -0.0042
     67  CD2        6.4750   36.9270   11.1080 C.ar  300  PHE300     -0.0042
     68  CE1        5.4150   38.7300    9.3110 C.ar  300  PHE300     -0.0003
     69  CE2        5.6680   37.9700   11.5680 C.ar  300  PHE300     -0.0003
     70  CZ         5.1310   38.8700   10.6610 C.ar  300  PHE300     -0.0000
     71  N          2.7180   33.1860   13.1190 N.3   329  ARG329     -0.1245
     72  CA         2.5030   34.4990   12.5980 C.3   329  ARG329      0.1563
     73  C          2.8740   34.4830   11.1150 C.2   329  ARG329      0.2260
     74  O          3.7050   33.6950   10.6990 O.2   329  ARG329     -0.2867
     75  CB         3.4110   35.5170   13.2850 C.3   329  ARG329      0.0307
     76  CG         3.2240   35.7050   14.7660 C.3   329  ARG329      0.0489
     77  CD         4.3900   36.5390   15.3300 C.3   329  ARG329      0.2205
     78  NE         5.6910   35.8550   15.1880 N.pl3 329  ARG329     -0.0865
     79  CZ         6.8570   36.4800   15.0370 C.cat 329  ARG329      0.5346
     80  NH1        6.9090   37.7960   15.0180 N.pl3 329  ARG329      0.1354
     81  NH2        7.9770   35.7950   14.8790 N.pl3 329  ARG329      0.1354
     82  N         -1.0750   38.4380   12.5240 N.3   357  ILE357     -0.1245
     83  CA        -0.4950   38.9590   11.2830 C.3   357  ILE357      0.1561
     84  C         -0.4890   37.9580   10.1320 C.2   357  ILE357      0.2260
     85  O          0.5530   37.6820    9.5360 O.2   357  ILE357     -0.2867
     86  CB         0.9340   39.4660   11.5000 C.3   357  ILE357      0.0252
     87  CG1        1.1420   39.9550   12.9500 C.3   357  ILE357      0.0019
     88  CG2        1.2360   40.5830   10.5070 C.3   357  ILE357      0.0019
     89  CD1        2.4800   40.6220   13.2180 C.3   357  ILE357      0.0001
     90  N         18.7330   47.7360   17.5800 N.3   390  PHE390     -0.1241
     91  CA        18.1740   46.5120   18.1290 C.3   390  PHE390      0.1605
     92  C         18.7790   46.2160   19.4570 C.2   390  PHE390      0.2264
     93  O         19.9700   46.4220   19.6290 O.2   390  PHE390     -0.2867
     94  CB        18.4630   45.3910   17.1760 C.3   390  PHE390      0.0534
     95  CG        17.9400   45.6410   15.7910 C.ar  390  PHE390     -0.0203
     96  CD1       16.5690   45.6850   15.5500 C.ar  390  PHE390     -0.0042
     97  CD2       18.8050   45.8610   14.7320 C.ar  390  PHE390     -0.0042
     98  CE1       16.0780   45.9200   14.2850 C.ar  390  PHE390     -0.0003
     99  CE2       18.3120   46.0930   13.4500 C.ar  390  PHE390     -0.0003
    100  CZ        16.9480   46.1070   13.2280 C.ar  390  PHE390     -0.0000
    101  N         15.5640   38.8630   21.9030 N.3   395  ASN395     -0.1225
    102  CA        15.3840   38.0010   20.7290 C.3   395  ASN395      0.1785
    103  C         15.2320   38.9160   19.5580 C.2   395  ASN395      0.2597
    104  O         14.6220   39.9650   19.6750 O.2   395  ASN395     -0.2718
    105  CB        14.1410   37.1240   20.9030 C.3   395  ASN395      0.1169
    106  CG        14.0610   35.9810   19.8950 C.2   395  ASN395      0.2627
    107  OD1       13.8550   36.1890   18.7070 O.2   395  ASN395     -0.2716
    108  ND2       14.1420   34.7570   20.3940 N.am  395  ASN395     -0.0877
    109  N         15.8250   38.5270   18.4410 N.am  396  PHE396     -0.1962
    110  CA        15.8840   39.3370   17.2090 C.3   396  PHE396      0.1771
    111  C         14.7150   39.0410   16.2280 C.2   396  PHE396      0.2620
    112  O         14.4080   39.8860   15.3810 O.2   396  PHE396     -0.2715
    113  CB        17.2150   39.0240   16.5170 C.3   396  PHE396      0.0574
    114  CG        17.6120   40.0040   15.4550 C.ar  396  PHE396     -0.0200
    115  CD1       17.9790   41.2940   15.7880 C.ar  396  PHE396     -0.0042
    116  CD2       17.6850   39.6080   14.1210 C.ar  396  PHE396     -0.0042
    117  CE1       18.3630   42.1880   14.8170 C.ar  396  PHE396     -0.0003
    118  CE2       18.0590   40.5010   13.1390 C.ar  396  PHE396     -0.0003
    119  CZ        18.4180   41.7850   13.4870 C.ar  396  PHE396     -0.0000
    120  N         14.0950   37.8550   16.3160 N.am  397  TYR397     -0.1960
    121  CA        13.0510   37.4540   15.3530 C.3   397  TYR397      0.1771
    122  C         11.6200   37.5720   15.8880 C.2   397  TYR397      0.2620
    123  O         10.6430   37.4840   15.1180 O.2   397  TYR397     -0.2715
    124  CB        13.3320   36.0530   14.7450 C.3   397  TYR397      0.0574
    125  CG        14.6230   36.0640   14.0040 C.ar  397  TYR397     -0.0198
    126  CD1       14.7100   36.6410   12.7440 C.ar  397  TYR397     -0.0009
    127  CD2       15.7850   35.6350   14.6060 C.ar  397  TYR397     -0.0009
    128  CE1       15.9210   36.7370   12.0830 C.ar  397  TYR397      0.0417
    129  CE2       17.0020   35.7080   13.9490 C.ar  397  TYR397      0.0417
    130  CZ        17.0650   36.2730   12.6910 C.ar  397  TYR397      0.1957
    131  OH        18.2710   36.3790   12.0520 O.3   397  TYR397     -0.2866
    132  N         11.4830   37.8040   17.1830 N.am  398  HIS398     -0.1959
    133  CA        10.1940   38.1620   17.7090 C.3   398  HIS398      0.1787
    134  C         10.3230   38.8670   19.0340 C.2   398  HIS398      0.2620
    135  O         11.3410   38.7760   19.7180 O.2   398  HIS398     -0.2715
    136  CB         9.2730   36.9310   17.8320 C.3   398  HIS398      0.0785
    137  CG         9.8250   35.8440   18.6880 C.ar  398  HIS398      0.0821
    138  ND1       10.4030   34.7100   18.1610 N.ar  398  HIS398     -0.2267
    139  CD2        9.9130   35.7230   20.0360 C.ar  398  HIS398      0.1154
    140  CE1       10.8060   33.9270   19.1470 C.ar  398  HIS398      0.1986
    141  NE2       10.5310   34.5240   20.2950 N.ar  398  HIS398     -0.2212
    142  N          9.2700   39.5910   19.3690 N.am  399  PHE399     -0.1974
    143  CA         9.1180   40.1970   20.6570 C.3   399  PHE399      0.1639
    144  C          8.8570   39.0990   21.6310 C.2   399  PHE399      0.2290
    145  O          8.3750   38.0280   21.2470 O.2   399  PHE399     -0.2864
    146  CB         7.9330   41.1390   20.6340 C.3   399  PHE399      0.0560
    147  CG         8.1410   42.3470   19.7720 C.ar  399  PHE399     -0.0200
    148  CD1        9.1160   43.2990   20.1010 C.ar  399  PHE399     -0.0042
    149  CD2        7.3600   42.5500   18.6240 C.ar  399  PHE399     -0.0042
    150  CE1        9.2960   44.4300   19.3140 C.ar  399  PHE399     -0.0003
    151  CE2        7.5380   43.6810   17.8410 C.ar  399  PHE399     -0.0003
    152  CZ         8.5020   44.6260   18.1840 C.ar  399  PHE399     -0.0000
@<TRIPOS>BOND
     1    12    13    1
     2    13    16    1
     3    13    14    1
     4    11     9    1
     5    16    17    1
     6    10     9    1
     7     9     8    2
     8    18    17    2
     9     8     7    1
    10     2     3    1
    11     2     5    1
    12     2     1    1
    13     3     4    2
    14     6     7    1
    15     6     5    1
    16    17    19   am
    17    20    14   am
    18    20    21    1
    19    14    15    2
    20    24    21    1
    21    23    22    2
    22    21    22    1
    23    35    34    2
    24    22    25   am
    25    34    33    1
    26    52    51    2
    27    63    62    2
    28    51    50    1
    29    62    61    1
    30    25    26    1
    31    25    31    1
    32    32    33    1
    33    32    27   am
    34    48    47    1
    35    33    36    1
    36    45    46    2
    37    45    44    1
    38    50    53    1
    39    50    49    1
    40    26    27    1
    41    26    29    1
    42    40    38   ar
    43    40    42   ar
    44    61    64    1
    45    61    60    1
    46    31    30    1
    47    38    37   ar
    48    66    68   ar
    49    66    65   ar
    50    53    54    1
    51    55    57   ar
    52    55    54   ar
    53    44    47    1
    54    44    43    1
    55    27    28    2
    56    42    41   ar
    57    64    65    1
    58    68    70   ar
    59    37    36    1
    60    37    39   ar
    61    85    84    2
    62    57    59   ar
    63    54    56   ar
    64    65    67   ar
    65    41    39   ar
    66    29    30    1
    67    84    83    1
    68    88    86    1
    69    70    69   ar
    70    74    73    2
    71    59    58   ar
    72    56    58   ar
    73    67    69   ar
    74    73    72    1
    75    83    86    1
    76    83    82    1
    77    86    87    1
    78   131   130    1
    79   128   130   ar
    80   128   126   ar
    81    72    71    1
    82    72    75    1
    83   130   129   ar
    84   126   125   ar
    85    87    89    1
    86   118   119   ar
    87   118   116   ar
    88   100    99   ar
    89   100    98   ar
    90    75    76    1
    91    99    97   ar
    92   119   117   ar
    93   129   127   ar
    94   125   127   ar
    95   125   124    1
    96   116   114   ar
    97    98    96   ar
    98    97    95   ar
    99   124   121    1
   100    76    77    1
   101   117   115   ar
   102    81    79    1
   103    80    79    1
   104    79    78    2
   105   123   122    2
   106    78    77    1
   107   121   122    1
   108   121   120    1
   109   112   111    2
   110   114   115   ar
   111   114   113    1
   112    96    95   ar
   113    95    94    1
   114   122   132   am
   115   111   120   am
   116   111   110    1
   117   113   110    1
   118    94    91    1
   119   132   133    1
   120   110   109    1
   121    90    91    1
   122   133   136    1
   123   133   134    1
   124   136   137    1
   125   151   152   ar
   126   151   149   ar
   127    91    92    1
   128   138   137   ar
   129   138   140   ar
   130   152   150   ar
   131   109   103   am
   132   149   147   ar
   133   137   139   ar
   134   107   106    2
   135   134   142   am
   136   134   135    2
   137   140   141   ar
   138   150   148   ar
   139   142   143    1
   140    92    93    2
   141   103   104    2
   142   103   102    1
   143   147   148   ar
   144   147   146    1
   145   106   108   am
   146   106   105    1
   147   139   141   ar
   148   146   143    1
   149   143   144    1
   150   102   105    1
   151   102   101    1
   152   145   144    2
