@<TRIPOS>MOLECULE
tmp/4r09C04.pdb
 117 107 0 0 0
SMALL
GASTEIGER

@<TRIPOS>ATOM
      1  N         -2.9280   39.6950   33.7170 N.3   407  GLN407     -0.1245
      2  CA        -4.1370   40.1340   34.4330 C.3   407  GLN407      0.1566
      3  C         -5.4430   39.6310   33.7930 C.2   407  GLN407      0.2260
      4  O         -6.4210   39.3800   34.4930 O.2   407  GLN407     -0.2867
      5  CB        -4.1670   41.6690   34.5260 C.3   407  GLN407      0.0367
      6  CG        -3.1090   42.2610   35.4540 C.3   407  GLN407      0.0905
      7  CD        -1.8740   42.7880   34.7420 C.2   407  GLN407      0.2608
      8  OE1       -1.5290   42.3660   33.6360 O.2   407  GLN407     -0.2717
      9  NE2       -1.2020   43.7260   35.3810 N.am  407  GLN407     -0.0878
     10  N        -13.0990   39.5970   31.9870 N.3   463  TYR463     -0.1241
     11  CA       -12.1790   40.6750   31.6120 C.3   463  TYR463      0.1605
     12  C        -12.4040   41.0250   30.1470 C.2   463  TYR463      0.2264
     13  O        -12.2710   40.1750   29.2760 O.2   463  TYR463     -0.2867
     14  CB       -10.7400   40.2140   31.8260 C.3   463  TYR463      0.0534
     15  CG        -9.6750   41.2990   31.8410 C.ar  463  TYR463     -0.0201
     16  CD1       -9.5130   42.1800   30.7650 C.ar  463  TYR463     -0.0009
     17  CD2       -8.7660   41.3820   32.8930 C.ar  463  TYR463     -0.0009
     18  CE1       -8.5120   43.1520   30.7740 C.ar  463  TYR463      0.0417
     19  CE2       -7.7640   42.3460   32.9120 C.ar  463  TYR463      0.0417
     20  CZ        -7.6440   43.2350   31.8540 C.ar  463  TYR463      0.1957
     21  OH        -6.6490   44.1950   31.8820 O.3   463  TYR463     -0.2866
     22  N        -10.5960   48.8480   24.5500 N.3   467  THR467     -0.1203
     23  CA        -9.8660   50.0890   24.3350 C.3   467  THR467      0.1994
     24  C         -9.7850   50.3850   22.8400 C.2   467  THR467      0.2617
     25  O         -9.9030   49.4790   22.0230 O.2   467  THR467     -0.2717
     26  CB        -8.4320   50.0270   24.8680 C.3   467  THR467      0.1784
     27  OG1       -7.6480   49.1690   24.0440 O.3   467  THR467     -0.2211
     28  CG2       -8.3930   49.5250   26.2840 C.3   467  THR467      0.0376
     29  N         -9.5820   51.6570   22.4990 N.am  468  ASN468     -0.1974
     30  CA        -9.3480   52.0810   21.1020 C.3   468  ASN468      0.1688
     31  C        -10.4210   51.6300   20.1830 C.2   468  ASN468      0.2292
     32  O        -10.1440   50.9690   19.1860 O.2   468  ASN468     -0.2864
     33  CB        -8.0230   51.5640   20.5730 C.3   468  ASN468      0.1181
     34  CG        -6.8550   52.2040   21.2560 C.2   468  ASN468      0.2629
     35  OD1       -6.4400   51.7760   22.3280 O.2   468  ASN468     -0.2716
     36  ND2       -6.3250   53.2450   20.6540 N.am  468  ASN468     -0.0877
     37  N        -13.7750   43.0510   35.2050 N.3   487  VAL487     -0.1245
     38  CA       -12.8570   44.1120   34.7130 C.3   487  VAL487      0.1561
     39  C        -13.2430   44.6560   33.3360 C.2   487  VAL487      0.2260
     40  O        -13.4940   43.8900   32.3990 O.2   487  VAL487     -0.2867
     41  CB       -11.4050   43.6030   34.6450 C.3   487  VAL487      0.0252
     42  CG1      -10.5070   44.6200   33.9430 C.3   487  VAL487      0.0019
     43  CG2      -10.8890   43.2980   36.0430 C.3   487  VAL487      0.0019
     44  N        -12.1170   47.6590   30.4460 N.3   489  ASP489     -0.1239
     45  CA       -11.2780   48.7510   29.8950 C.3   489  ASP489      0.1674
     46  C        -11.9770   49.3510   28.6910 C.2   489  ASP489      0.2266
     47  O        -12.2850   48.6470   27.7070 O.2   489  ASP489     -0.2867
     48  CB        -9.8790   48.2400   29.5040 C.3   489  ASP489      0.1410
     49  CG        -8.8770   49.3410   29.4160 C.2   489  ASP489      0.3668
     50  OD1       -9.3060   50.5100   29.3150 O.co2 489  ASP489     -0.2456
     51  OD2       -7.6610   49.0520   29.4540 O.co2 489  ASP489     -0.2456
     52  N        -10.7570   52.5890   27.7120 N.3   491  SER491     -0.1202
     53  CA        -9.8370   53.6400   27.3340 C.3   491  SER491      0.2020
     54  C         -9.9870   54.0140   25.8360 C.2   491  SER491      0.2618
     55  O        -10.2000   53.1540   25.0090 O.2   491  SER491     -0.2717
     56  CB        -8.4010   53.1980   27.5940 C.3   491  SER491      0.2103
     57  OG        -8.2510   52.6960   28.8940 O.3   491  SER491     -0.2182
     58  N         -9.8850   55.3050   25.5150 N.am  492  TYR492     -0.1975
     59  CA        -9.8350   55.7390   24.1520 C.3   492  TYR492      0.1639
     60  C        -11.0430   55.2640   23.3610 C.2   492  TYR492      0.2290
     61  O        -10.9060   54.5280   22.3790 O.2   492  TYR492     -0.2864
     62  CB        -8.5800   55.2150   23.4930 C.3   492  TYR492      0.0560
     63  CG        -7.3200   55.5600   24.2010 C.ar  492  TYR492     -0.0198
     64  CD1       -6.7330   56.8200   24.0450 C.ar  492  TYR492     -0.0009
     65  CD2       -6.6570   54.6160   24.9720 C.ar  492  TYR492     -0.0009
     66  CE1       -5.5360   57.1370   24.6720 C.ar  492  TYR492      0.0417
     67  CE2       -5.4620   54.9250   25.6200 C.ar  492  TYR492      0.0417
     68  CZ        -4.9050   56.1850   25.4630 C.ar  492  TYR492      0.1957
     69  OH        -3.7100   56.4960   26.0870 O.3   492  TYR492     -0.2866
     70  N        -12.7800   46.6920   38.5790 N.3   517  VAL517     -0.1245
     71  CA       -11.9240   47.7120   37.9390 C.3   517  VAL517      0.1561
     72  C        -12.5350   48.2420   36.6520 C.2   517  VAL517      0.2260
     73  O        -12.9270   47.4570   35.7730 O.2   517  VAL517     -0.2867
     74  CB       -10.5240   47.1700   37.6050 C.3   517  VAL517      0.0252
     75  CG1       -9.6970   48.2410   36.8910 C.3   517  VAL517      0.0019
     76  CG2       -9.8120   46.6940   38.8690 C.3   517  VAL517      0.0019
     77  N        -11.9260   51.3360   33.5540 N.3   519  ASN519     -0.1240
     78  CA       -11.0300   52.2900   32.9690 C.3   519  ASN519      0.1653
     79  C        -11.7360   52.9930   31.8510 C.2   519  ASN519      0.2266
     80  O        -12.2890   52.3600   30.9350 O.2   519  ASN519     -0.2867
     81  CB        -9.7300   51.6250   32.5080 C.3   519  ASN519      0.1155
     82  CG        -8.7260   52.6220   32.0630 C.2   519  ASN519      0.2627
     83  OD1       -9.1150   53.7310   31.7050 O.2   519  ASN519     -0.2716
     84  ND2       -7.4180   52.2710   32.0800 N.am  519  ASN519     -0.0877
     85  N        -10.2320   56.0020   30.7570 N.3   521  SER521     -0.1217
     86  CA        -9.2060   56.9740   30.4540 C.3   521  SER521      0.1889
     87  C         -9.3200   57.4600   29.0180 C.2   521  SER521      0.2288
     88  O         -9.7340   56.7090   28.1330 O.2   521  SER521     -0.2866
     89  CB        -7.8400   56.3540   30.6450 C.3   521  SER521      0.2089
     90  OG        -7.7280   55.2150   29.8140 O.3   521  SER521     -0.2183
     91  N        -11.9470   50.2750   41.7810 N.3   541  GLU541     -0.1245
     92  CA       -10.9980   51.1110   41.0490 C.3   541  GLU541      0.1567
     93  C        -11.6540   51.7420   39.8510 C.2   541  GLU541      0.2260
     94  O        -12.3200   51.0550   39.0720 O.2   541  GLU541     -0.2867
     95  CB        -9.7970   50.2830   40.5800 C.3   541  GLU541      0.0388
     96  CG        -8.7050   51.1100   39.8910 C.3   541  GLU541      0.1160
     97  CD        -7.4320   50.3300   39.6050 C.2   541  GLU541      0.3649
     98  OE1       -7.4320   49.0930   39.7840 O.co2 541  GLU541     -0.2457
     99  OE2       -6.4270   50.9610   39.1830 O.co2 541  GLU541     -0.2457
    100  N        -10.3700   54.4810   36.7200 N.3   543  VAL543     -0.1245
    101  CA        -9.4440   55.4250   36.0720 C.3   543  VAL543      0.1561
    102  C        -10.2260   56.3730   35.1830 C.2   543  VAL543      0.2260
    103  O        -10.9190   55.9270   34.2490 O.2   543  VAL543     -0.2867
    104  CB        -8.3390   54.7350   35.2410 C.3   543  VAL543      0.0252
    105  CG1       -7.0640   55.5800   35.2770 C.3   543  VAL543      0.0019
    106  CG2       -8.0510   53.3290   35.7580 C.3   543  VAL543      0.0019
    107  N         -9.7570   53.4230   44.9950 N.3   572  ARG572     -0.1245
    108  CA        -8.7380   54.0200   44.0950 C.3   572  ARG572      0.1563
    109  C         -9.3440   54.8570   42.9630 C.2   572  ARG572      0.2260
    110  O        -10.1510   54.3670   42.1750 O.2   572  ARG572     -0.2867
    111  CB        -7.8450   52.9380   43.5000 C.3   572  ARG572      0.0307
    112  CG        -6.5190   53.4750   42.9920 C.3   572  ARG572      0.0489
    113  CD        -5.6600   52.3830   42.3700 C.3   572  ARG572      0.2205
    114  NE        -4.4970   52.9400   41.6660 N.pl3 572  ARG572     -0.0865
    115  CZ        -4.5300   53.5330   40.4630 C.cat 572  ARG572      0.5346
    116  NH1       -5.6720   53.6660   39.7840 N.pl3 572  ARG572      0.1354
    117  NH2       -3.4040   54.0000   39.9340 N.pl3 572  ARG572      0.1354
@<TRIPOS>BOND
     1    32    31    2
     2    31    30    1
     3    33    30    1
     4    33    34    1
     5    36    34   am
     6    30    29    1
     7    34    35    2
     8    25    24    2
     9    61    60    2
    10    29    24   am
    11    24    23    1
    12    60    59    1
    13    62    59    1
    14    62    63    1
    15    27    26    1
    16    64    63   ar
    17    64    66   ar
    18    59    58    1
    19    63    65   ar
    20    23    22    1
    21    23    26    1
    22    66    68   ar
    23    26    28    1
    24    65    67   ar
    25    55    54    2
    26    68    67   ar
    27    68    69    1
    28    58    54   am
    29    54    53    1
    30    53    56    1
    31    53    52    1
    32    56    57    1
    33    47    46    2
    34    88    87    2
    35    46    45    1
    36    87    86    1
    37    13    12    2
    38    50    49   ar
    39    49    51   ar
    40    49    48    1
    41    48    45    1
    42    90    89    1
    43    45    44    1
    44    12    11    1
    45    86    89    1
    46    86    85    1
    47    16    18   ar
    48    16    15   ar
    49    18    20   ar
    50    80    79    2
    51    11    14    1
    52    11    10    1
    53    83    82    2
    54    14    15    1
    55    15    17   ar
    56    79    78    1
    57    20    21    1
    58    20    19   ar
    59    82    84   am
    60    82    81    1
    61    40    39    2
    62    81    78    1
    63    17    19   ar
    64    78    77    1
    65    39    38    1
    66     8     7    2
    67     1     2    1
    68     3     2    1
    69     3     4    2
    70    42    41    1
    71   103   102    2
    72     2     5    1
    73     5     6    1
    74    41    38    1
    75    41    43    1
    76    38    37    1
    77     7     9   am
    78     7     6    1
    79   102   101    1
    80   104   105    1
    81   104   106    1
    82   104   101    1
    83    73    72    2
    84   101   100    1
    85    72    71    1
    86    75    74    1
    87    74    71    1
    88    74    76    1
    89    71    70    1
    90    94    93    2
    91    99    97   ar
    92    97    98   ar
    93    97    96    1
    94   116   115    1
    95    93    92    1
    96    96    95    1
    97   117   115    1
    98   115   114    2
    99    95    92    1
   100    92    91    1
   101   114   113    1
   102   110   109    2
   103   113   112    1
   104   109   108    1
   105   112   111    1
   106   111   108    1
   107   108   107    1
