@<TRIPOS>MOLECULE
tmp/4r0aA04.pdb
 182 178 0 0 0
SMALL
GASTEIGER

@<TRIPOS>ATOM
      1  N        -38.5430   29.6210  -17.2510 N.3   133  TYR133     -0.1241
      2  CA       -37.7100   30.1840  -18.2880 C.3   133  TYR133      0.1605
      3  C        -38.0560   29.5650  -19.6300 C.2   133  TYR133      0.2264
      4  O        -37.8610   28.3410  -19.8350 O.2   133  TYR133     -0.2867
      5  CB       -36.2410   29.9010  -17.9800 C.3   133  TYR133      0.0534
      6  CG       -35.7640   30.4340  -16.6360 C.ar  133  TYR133     -0.0201
      7  CD1      -35.8030   29.6330  -15.5200 C.ar  133  TYR133     -0.0009
      8  CD2      -35.3340   31.7650  -16.4760 C.ar  133  TYR133     -0.0009
      9  CE1      -35.3240   30.0690  -14.2980 C.ar  133  TYR133      0.0417
     10  CE2      -34.8880   32.2230  -15.2250 C.ar  133  TYR133      0.0417
     11  CZ       -34.9290   31.3720  -14.1500 C.ar  133  TYR133      0.1957
     12  OH       -34.5420   31.7600  -12.8880 O.3   133  TYR133     -0.2866
     13  N        -38.3040   36.1150  -23.2240 N.3   166  SER166     -0.1202
     14  CA       -37.5090   36.9510  -24.1470 C.3   166  SER166      0.2020
     15  C        -36.9960   36.1350  -25.3140 C.2   166  SER166      0.2618
     16  O        -36.8780   34.9280  -25.1970 O.2   166  SER166     -0.2717
     17  CB       -36.3140   37.5340  -23.3970 C.3   166  SER166      0.2103
     18  OG       -36.7200   38.2640  -22.2620 O.3   166  SER166     -0.2182
     19  N        -36.7240   36.7850  -26.4430 N.am  167  PHE167     -0.1975
     20  CA       -36.1560   36.1030  -27.6340 C.3   167  PHE167      0.1639
     21  C        -37.0510   34.9720  -28.1190 C.2   167  PHE167      0.2290
     22  O        -36.6330   33.8680  -28.3860 O.2   167  PHE167     -0.2864
     23  CB       -34.6540   35.6920  -27.4510 C.3   167  PHE167      0.0560
     24  CG       -33.7630   36.8750  -27.1660 C.ar  167  PHE167     -0.0200
     25  CD1      -33.5560   37.3070  -25.8600 C.ar  167  PHE167     -0.0042
     26  CD2      -33.2490   37.6470  -28.2010 C.ar  167  PHE167     -0.0042
     27  CE1      -32.8340   38.4710  -25.5930 C.ar  167  PHE167     -0.0003
     28  CE2      -32.4670   38.7580  -27.9250 C.ar  167  PHE167     -0.0003
     29  CZ       -32.2610   39.1770  -26.6320 C.ar  167  PHE167     -0.0000
     30  N        -40.9670   39.1040  -11.5010 N.3   183  LYS183     -0.1245
     31  CA       -40.0620   39.4780  -12.5830 C.3   183  LYS183      0.1561
     32  C        -40.5470   38.9660  -13.9020 C.2   183  LYS183      0.2260
     33  O        -40.7850   37.7540  -14.0680 O.2   183  LYS183     -0.2867
     34  CB       -38.6350   38.9790  -12.3000 C.3   183  LYS183      0.0271
     35  CG       -38.0330   39.4880  -10.9960 C.3   183  LYS183      0.0035
     36  CD       -36.5250   39.1310  -10.8620 C.3   183  LYS183      0.0206
     37  CE       -35.9580   39.7570   -9.5850 C.3   183  LYS183      0.1093
     38  NZ       -34.4820   39.6400   -9.4740 N.3   183  LYS183     -0.1314
     39  N        -39.8210   39.0600  -17.9220 N.3   185  PHE185     -0.1241
     40  CA       -38.8630   39.3240  -18.9990 C.3   185  PHE185      0.1605
     41  C        -39.5230   39.1160  -20.3680 C.2   185  PHE185      0.2264
     42  O        -39.8660   38.0050  -20.7050 O.2   185  PHE185     -0.2867
     43  CB       -37.6120   38.4270  -18.8780 C.3   185  PHE185      0.0534
     44  CG       -36.8070   38.6290  -17.5870 C.ar  185  PHE185     -0.0203
     45  CD1      -37.0750   37.8850  -16.4400 C.ar  185  PHE185     -0.0042
     46  CD2      -35.7040   39.4700  -17.5670 C.ar  185  PHE185     -0.0042
     47  CE1      -36.2690   38.0200  -15.2870 C.ar  185  PHE185     -0.0003
     48  CE2      -34.9180   39.6030  -16.4310 C.ar  185  PHE185     -0.0003
     49  CZ       -35.2130   38.8900  -15.2940 C.ar  185  PHE185     -0.0000
     50  N        -37.9610   40.7240  -23.4110 N.3   187  SER187     -0.1217
     51  CA       -37.0810   41.4070  -24.3170 C.3   187  SER187      0.1889
     52  C        -37.1530   40.7510  -25.6850 C.2   187  SER187      0.2288
     53  O        -37.2880   39.4990  -25.8120 O.2   187  SER187     -0.2866
     54  CB       -35.6360   41.2990  -23.7970 C.3   187  SER187      0.2089
     55  OG       -34.7010   41.9420  -24.6290 O.3   187  SER187     -0.2183
     56  N        -39.4390   43.7390  -11.4260 N.3   207  LEU207     -0.1245
     57  CA       -38.6720   43.8070  -12.6680 C.3   207  LEU207      0.1561
     58  C        -39.5530   43.6420  -13.9000 C.2   207  LEU207      0.2260
     59  O        -40.2890   42.6540  -14.0690 O.2   207  LEU207     -0.2867
     60  CB       -37.5460   42.7540  -12.7050 C.3   207  LEU207      0.0270
     61  CG       -36.6260   42.8630  -13.9430 C.3   207  LEU207      0.0019
     62  CD1      -35.1740   42.4970  -13.6250 C.3   207  LEU207      0.0001
     63  CD2      -37.1450   41.9940  -15.1000 C.3   207  LEU207      0.0001
     64  N        -38.7590   43.8250  -18.1090 N.3   209  ASP209     -0.1239
     65  CA       -37.7900   43.9720  -19.1860 C.3   209  ASP209      0.1674
     66  C        -38.5570   43.9440  -20.5060 C.2   209  ASP209      0.2266
     67  O        -39.1000   42.8940  -20.9050 O.2   209  ASP209     -0.2867
     68  CB       -36.7910   42.8320  -19.1080 C.3   209  ASP209      0.1410
     69  CG       -35.7390   42.8560  -20.2400 C.2   209  ASP209      0.3668
     70  OD1      -35.7070   43.8260  -21.0200 O.co2 209  ASP209     -0.2456
     71  OD2      -35.0010   41.8320  -20.3780 O.co2 209  ASP209     -0.2456
     72  N        -36.9800   45.4550  -23.2890 N.3   211  SER211     -0.1217
     73  CA       -35.9520   45.8280  -24.2340 C.3   211  SER211      0.1889
     74  C        -36.0900   45.1660  -25.6140 C.2   211  SER211      0.2288
     75  O        -36.4630   43.9810  -25.7560 O.2   211  SER211     -0.2866
     76  CB       -34.5660   45.5650  -23.6070 C.3   211  SER211      0.2089
     77  OG       -34.3480   44.1920  -23.3780 O.3   211  SER211     -0.2183
     78  N        -36.6110   47.5450  -11.2390 N.3   248  TYR248     -0.1227
     79  CA       -35.8200   47.4070  -12.4430 C.3   248  TYR248      0.1736
     80  C        -36.7210   47.5670  -13.6430 C.2   248  TYR248      0.2595
     81  O        -37.6440   46.7750  -13.8530 O.2   248  TYR248     -0.2718
     82  CB       -35.1370   46.0270  -12.5430 C.3   248  TYR248      0.0548
     83  CG       -34.3740   45.6530  -11.2790 C.ar  248  TYR248     -0.0200
     84  CD1      -35.0650   45.1690  -10.1640 C.ar  248  TYR248     -0.0009
     85  CD2      -33.0070   45.8220  -11.1790 C.ar  248  TYR248     -0.0009
     86  CE1      -34.3960   44.7980   -9.0200 C.ar  248  TYR248      0.0417
     87  CE2      -32.3260   45.4960   -9.9960 C.ar  248  TYR248      0.0417
     88  CZ       -33.0440   45.0320   -8.9150 C.ar  248  TYR248      0.1957
     89  OH       -32.4240   44.6750   -7.7470 O.3   248  TYR248     -0.2866
     90  N        -36.3450   48.4980  -14.5100 N.am  249  LEU249     -0.1966
     91  CA       -37.0400   48.6990  -15.7630 C.3   249  LEU249      0.1728
     92  C        -36.0010   48.7900  -16.8720 C.2   249  LEU249      0.2616
     93  O        -35.1540   49.6590  -16.8600 O.2   249  LEU249     -0.2715
     94  CB       -37.8890   49.9790  -15.7140 C.3   249  LEU249      0.0311
     95  CG       -38.6850   50.3660  -16.9830 C.3   249  LEU249      0.0022
     96  CD1      -39.6590   49.2860  -17.4190 C.3   249  LEU249      0.0001
     97  CD2      -39.3960   51.6890  -16.7710 C.3   249  LEU249      0.0001
     98  N        -36.0620   47.8370  -17.7940 N.am  250  ASN250     -0.1972
     99  CA       -35.1990   47.8100  -18.9420 C.3   250  ASN250      0.1688
    100  C        -35.9640   48.1960  -20.2100 C.2   250  ASN250      0.2292
    101  O        -36.7920   47.4230  -20.7070 O.2   250  ASN250     -0.2864
    102  CB       -34.6060   46.4320  -19.0920 C.3   250  ASN250      0.1181
    103  CG       -33.3750   46.4320  -19.9920 C.2   250  ASN250      0.2629
    104  OD1      -33.1830   47.3440  -20.7900 O.2   250  ASN250     -0.2716
    105  ND2      -32.5320   45.3780  -19.8730 N.am  250  ASN250     -0.0877
    106  N        -33.0790   50.9010  -10.8100 N.3   272  VAL272     -0.1245
    107  CA       -32.2450   50.6830  -11.9890 C.3   272  VAL272      0.1561
    108  C        -33.0830   50.9260  -13.2130 C.2   272  VAL272      0.2260
    109  O        -34.1560   50.3090  -13.4080 O.2   272  VAL272     -0.2867
    110  CB       -31.6840   49.2350  -12.0300 C.3   272  VAL272      0.0252
    111  CG1      -30.8200   48.9870  -13.2530 C.3   272  VAL272      0.0019
    112  CG2      -30.9120   48.9580  -10.7690 C.3   272  VAL272      0.0019
    113  N        -32.6320   51.2910  -17.3650 N.3   274  ASP274     -0.1239
    114  CA       -31.7750   51.0080  -18.5050 C.3   274  ASP274      0.1674
    115  C        -32.4070   51.5490  -19.7800 C.2   274  ASP274      0.2266
    116  O        -33.4580   51.0690  -20.1980 O.2   274  ASP274     -0.2867
    117  CB       -31.5860   49.4950  -18.6960 C.3   274  ASP274      0.1410
    118  CG       -30.2290   49.1730  -19.2620 C.2   274  ASP274      0.3668
    119  OD1      -29.6760   50.0030  -20.0900 O.co2 274  ASP274     -0.2456
    120  OD2      -29.6990   48.1100  -18.8830 O.co2 274  ASP274     -0.2456
    121  N        -24.7560   34.7160  -24.5070 N.3   393  ASP393     -0.1225
    122  CA       -25.0690   33.9170  -23.3350 C.3   393  ASP393      0.1794
    123  C        -26.5280   34.2230  -22.9070 C.2   393  ASP393      0.2477
    124  O        -26.8610   35.3420  -22.5650 O.2   393  ASP393     -0.2730
    125  CB       -24.0600   34.2100  -22.2020 C.3   393  ASP393      0.1423
    126  CG       -24.3580   33.4620  -20.9390 C.2   393  ASP393      0.3668
    127  OD1      -25.4210   32.8190  -20.8040 O.co2 393  ASP393     -0.2456
    128  OD2      -23.5380   33.5570  -20.0200 O.co2 393  ASP393     -0.2456
    129  N        -27.4040   33.2360  -22.9660 N.am  394  PRO394     -0.2492
    130  CA       -28.8020   33.5460  -22.5660 C.3   394  PRO394      0.1619
    131  C        -28.9590   33.9420  -21.0780 C.2   394  PRO394      0.2605
    132  O        -30.0100   34.3980  -20.6970 O.2   394  PRO394     -0.2715
    133  CB       -29.5670   32.2690  -22.8580 C.3   394  PRO394      0.0570
    134  CG       -28.5750   31.2540  -23.2660 C.2   394  PRO394     -0.0077
    135  CD       -27.1890   31.8130  -23.2420 C.2   394  PRO394      0.0634
    136  N        -27.9210   33.7900  -20.2620 N.am  395  HIS395     -0.1960
    137  CA       -28.0460   34.1260  -18.8380 C.3   395  HIS395      0.1787
    138  C        -27.2990   35.4170  -18.5210 C.2   395  HIS395      0.2621
    139  O        -27.0480   35.7170  -17.3380 O.2   395  HIS395     -0.2715
    140  CB       -27.5230   32.9900  -17.9780 C.3   395  HIS395      0.0785
    141  CG       -28.3180   31.7310  -18.1050 C.ar  395  HIS395      0.0821
    142  ND1      -29.5710   31.5870  -17.5510 N.ar  395  HIS395     -0.2267
    143  CD2      -28.0900   30.6060  -18.8190 C.ar  395  HIS395      0.1154
    144  CE1      -30.0470   30.3910  -17.8600 C.ar  395  HIS395      0.1986
    145  NE2      -29.1590   29.7690  -18.6130 N.ar  395  HIS395     -0.2212
    146  N        -26.9200   36.1740  -19.5580 N.am  396  SER396     -0.1936
    147  CA       -26.2280   37.4700  -19.3430 C.3   396  SER396      0.2055
    148  C        -27.0070   38.6070  -19.8980 C.2   396  SER396      0.2643
    149  O        -27.9120   38.4030  -20.6920 O.2   396  SER396     -0.2714
    150  CB       -24.8370   37.4820  -20.0020 C.3   396  SER396      0.2130
    151  OG       -24.2250   36.2390  -19.7500 O.3   396  SER396     -0.2179
    152  N        -26.6120   39.8270  -19.5340 N.am  397  ASN397     -0.1957
    153  CA       -27.2230   41.0100  -20.0680 C.3   397  ASN397      0.1819
    154  C        -26.8990   40.9970  -21.5300 C.2   397  ASN397      0.2621
    155  O        -25.7860   40.6660  -21.8930 O.2   397  ASN397     -0.2715
    156  CB       -26.6040   42.2360  -19.3960 C.3   397  ASN397      0.1195
    157  CG       -27.4230   43.4950  -19.5810 C.2   397  ASN397      0.2630
    158  OD1      -27.4410   44.1240  -20.6500 O.2   397  ASN397     -0.2716
    159  ND2      -28.0740   43.8950  -18.5260 N.am  397  ASN397     -0.0877
    160  N        -27.8430   41.3430  -22.3830 N.am  398  PHE398     -0.1960
    161  CA       -27.6060   41.3490  -23.8210 C.3   398  PHE398      0.1771
    162  C        -27.0730   42.7000  -24.3090 C.2   398  PHE398      0.2619
    163  O        -26.5110   42.7850  -25.4050 O.2   398  PHE398     -0.2715
    164  CB       -28.9280   41.0480  -24.5160 C.3   398  PHE398      0.0574
    165  CG       -28.8720   41.0220  -26.0160 C.ar  398  PHE398     -0.0200
    166  CD1      -28.3540   39.9430  -26.6820 C.ar  398  PHE398     -0.0042
    167  CD2      -29.4340   42.0400  -26.7600 C.ar  398  PHE398     -0.0042
    168  CE1      -28.3980   39.8910  -28.0630 C.ar  398  PHE398     -0.0003
    169  CE2      -29.4900   41.9810  -28.1400 C.ar  398  PHE398     -0.0003
    170  CZ       -28.9850   40.8770  -28.7900 C.ar  398  PHE398     -0.0000
    171  N        -27.3800   43.7710  -23.5980 N.am  399  TYR399     -0.1974
    172  CA       -26.9880   45.1070  -24.0780 C.3   399  TYR399      0.1639
    173  C        -25.6660   45.6920  -23.5210 C.2   399  TYR399      0.2290
    174  O        -25.1680   46.7270  -24.0270 O.2   399  TYR399     -0.2864
    175  CB       -28.1490   46.0800  -23.8630 C.3   399  TYR399      0.0560
    176  CG       -29.3150   45.7490  -24.7810 C.ar  399  TYR399     -0.0198
    177  CD1      -29.2440   45.9920  -26.1570 C.ar  399  TYR399     -0.0009
    178  CD2      -30.4550   45.1750  -24.2860 C.ar  399  TYR399     -0.0009
    179  CE1      -30.2850   45.6180  -27.0060 C.ar  399  TYR399      0.0417
    180  CE2      -31.5060   44.8460  -25.0900 C.ar  399  TYR399      0.0417
    181  CZ       -31.4310   45.0720  -26.4550 C.ar  399  TYR399      0.1957
    182  OH       -32.4900   44.7070  -27.2420 O.3   399  TYR399     -0.2866
@<TRIPOS>BOND
     1   170   169   ar
     2   170   168   ar
     3    22    21    2
     4    26    28   ar
     5    26    24   ar
     6   169   167   ar
     7    21    20    1
     8   168   166   ar
     9    28    29   ar
    10    20    23    1
    11    20    19    1
    12    23    24    1
    13   182   181    1
    14    24    25   ar
    15   179   181   ar
    16   179   177   ar
    17   167   165   ar
    18   166   165   ar
    19    29    27   ar
    20   181   180   ar
    21    19    15   am
    22   177   176   ar
    23   165   164    1
    24    25    27   ar
    25    53    52    2
    26    75    74    2
    27    52    51    1
    28    74    73    1
    29   163   162    2
    30    15    16    2
    31    15    14    1
    32   180   178   ar
    33   176   178   ar
    34   176   175    1
    35    55    54    1
    36   164   161    1
    37   121   122    1
    38    51    54    1
    39    51    50    1
    40   162   161    1
    41   162   171   am
    42    73    76    1
    43    73    72    1
    44    14    17    1
    45    14    13    1
    46   172   175    1
    47   172   171    1
    48   172   173    1
    49   174   173    2
    50   161   160    1
    51    76    77    1
    52    17    18    1
    53   122   123    1
    54   122   125    1
    55   134   135    2
    56   134   133    1
    57   135   129    1
    58   129   123   am
    59   129   130    1
    60   123   124    2
    61   133   130    1
    62   130   131    1
    63   160   154   am
    64   125   126    1
    65   155   154    2
    66   154   153    1
    67   131   132    2
    68   131   136   am
    69    70    69   ar
    70   126   127   ar
    71   126   128   ar
    72    67    66    2
    73   104   103    2
    74   101   100    2
    75    42    41    2
    76   149   148    2
    77   158   157    2
    78    66    65    1
    79    71    69   ar
    80    41    40    1
    81   136   137    1
    82    69    68    1
    83   100    99    1
    84   116   115    2
    85   119   118   ar
    86   153   152    1
    87   153   156    1
    88   150   151    1
    89   150   147    1
    90   103   105   am
    91   103   102    1
    92   148   152   am
    93   148   147    1
    94     4     3    2
    95   115   114    1
    96     3     2    1
    97   157   156    1
    98   157   159   am
    99   146   147    1
   100   146   138   am
   101   118   120   ar
   102   118   117    1
   103    65    68    1
   104    65    64    1
   105   102    99    1
   106    40    43    1
   107    40    39    1
   108    99    98    1
   109    43    44    1
   110   137   138    1
   111   137   140    1
   112   143   145   ar
   113   143   141   ar
   114   117   114    1
   115   145   144   ar
   116   138   139    2
   117   114   113    1
   118     2     5    1
   119     2     1    1
   120   141   140    1
   121   141   142   ar
   122     5     6    1
   123   144   142   ar
   124    98    92   am
   125    44    46   ar
   126    44    45   ar
   127    46    48   ar
   128    96    95    1
   129    95    97    1
   130    95    94    1
   131    92    93    2
   132    92    91    1
   133     6     8   ar
   134     6     7   ar
   135     8    10   ar
   136    45    47   ar
   137    48    49   ar
   138    91    94    1
   139    91    90    1
   140     7     9   ar
   141    49    47   ar
   142    10    11   ar
   143    63    61    1
   144    90    80   am
   145     9    11   ar
   146    11    12    1
   147    59    58    2
   148    33    32    2
   149    61    62    1
   150    61    60    1
   151    32    31    1
   152    58    57    1
   153    81    80    2
   154    80    79    1
   155   109   108    2
   156   111   110    1
   157   108   107    1
   158    60    57    1
   159    57    56    1
   160    31    34    1
   161    31    30    1
   162    82    79    1
   163    82    83    1
   164    79    78    1
   165    34    35    1
   166   110   107    1
   167   110   112    1
   168   107   106    1
   169    83    85   ar
   170    83    84   ar
   171    85    87   ar
   172    35    36    1
   173    36    37    1
   174    84    86   ar
   175    87    88   ar
   176    37    38    1
   177    86    88   ar
   178    88    89    1
