@<TRIPOS>MOLECULE
tmp/4r0aA00.pdb
 110 109 0 0 0
SMALL
GASTEIGER

@<TRIPOS>ATOM
      1  N        -29.4870   50.4220  -36.2590 N.3   218  PHE218     -0.1227
      2  CA       -28.2730   50.8990  -36.8910 C.3   218  PHE218      0.1736
      3  C        -27.0600   50.2270  -36.2020 C.2   218  PHE218      0.2595
      4  O        -26.9150   50.2550  -34.9500 O.2   218  PHE218     -0.2718
      5  CB       -28.1320   52.4340  -36.7670 C.3   218  PHE218      0.0547
      6  CG       -26.8260   52.9460  -37.3190 C.ar  218  PHE218     -0.0202
      7  CD1      -26.5410   52.8020  -38.6840 C.ar  218  PHE218     -0.0042
      8  CD2      -25.8460   53.4480  -36.4810 C.ar  218  PHE218     -0.0042
      9  CE1      -25.2860   53.1580  -39.1710 C.ar  218  PHE218     -0.0003
     10  CE2      -24.6120   53.8480  -36.9580 C.ar  218  PHE218     -0.0003
     11  CZ       -24.3220   53.6650  -38.3110 C.ar  218  PHE218     -0.0000
     12  N        -26.1990   49.6060  -37.0140 N.am  219  ASN219     -0.1974
     13  CA       -24.9440   49.0460  -36.5020 C.3   219  ASN219      0.1688
     14  C        -25.1450   47.8640  -35.5290 C.2   219  ASN219      0.2292
     15  O        -24.3190   47.6260  -34.6410 O.2   219  ASN219     -0.2864
     16  CB       -24.1250   50.1180  -35.8240 C.3   219  ASN219      0.1181
     17  CG       -22.6620   49.7580  -35.7760 C.2   219  ASN219      0.2629
     18  OD1      -22.1810   49.0220  -36.6400 O.2   219  ASN219     -0.2716
     19  ND2      -21.9930   50.1430  -34.7050 N.am  219  ASN219     -0.0877
     20  N        -25.0330   54.6380  -25.6110 N.3   303  PHE303     -0.1241
     21  CA       -25.3720   54.3890  -27.0220 C.3   303  PHE303      0.1605
     22  C        -26.6960   55.0200  -27.4730 C.2   303  PHE303      0.2264
     23  O        -27.4730   54.4180  -28.1860 O.2   303  PHE303     -0.2867
     24  CB       -25.2660   52.8720  -27.3430 C.3   303  PHE303      0.0534
     25  CG       -23.8470   52.3750  -27.2310 C.ar  303  PHE303     -0.0203
     26  CD1      -22.8770   52.8160  -28.1480 C.ar  303  PHE303     -0.0042
     27  CD2      -23.4300   51.6450  -26.1250 C.ar  303  PHE303     -0.0042
     28  CE1      -21.5240   52.5410  -27.9760 C.ar  303  PHE303     -0.0003
     29  CE2      -22.0650   51.3620  -25.9670 C.ar  303  PHE303     -0.0003
     30  CZ       -21.1200   51.7870  -26.9140 C.ar  303  PHE303     -0.0000
     31  N        -26.2670   57.9030  -29.2260 N.3   305  TYR305     -0.1227
     32  CA       -25.7120   58.8240  -30.2040 C.3   305  TYR305      0.1736
     33  C        -26.5960   58.9800  -31.4380 C.2   305  TYR305      0.2595
     34  O        -27.2750   58.0430  -31.8920 O.2   305  TYR305     -0.2718
     35  CB       -24.2850   58.4040  -30.5890 C.3   305  TYR305      0.0548
     36  CG       -24.1790   57.1380  -31.3960 C.ar  305  TYR305     -0.0200
     37  CD1      -23.8750   55.9130  -30.7940 C.ar  305  TYR305     -0.0009
     38  CD2      -24.3600   57.1620  -32.7810 C.ar  305  TYR305     -0.0009
     39  CE1      -23.7560   54.7590  -31.5570 C.ar  305  TYR305      0.0417
     40  CE2      -24.2750   56.0120  -33.5320 C.ar  305  TYR305      0.0417
     41  CZ       -23.9320   54.8150  -32.9190 C.ar  305  TYR305      0.1957
     42  OH       -23.8320   53.6740  -33.6650 O.3   305  TYR305     -0.2866
     43  N        -26.5120   60.1580  -32.0380 N.am  306  ILE306     -0.1966
     44  CA       -27.0840   60.4010  -33.3660 C.3   306  ILE306      0.1727
     45  C        -26.0220   60.0640  -34.4110 C.2   306  ILE306      0.2616
     46  O        -24.9160   60.5860  -34.3590 O.2   306  ILE306     -0.2715
     47  CB       -27.4620   61.8980  -33.5360 C.3   306  ILE306      0.0290
     48  CG1      -28.4620   62.3280  -32.4630 C.3   306  ILE306      0.0022
     49  CG2      -28.0730   62.1330  -34.9260 C.3   306  ILE306      0.0023
     50  CD1      -28.4820   63.8370  -32.1860 C.3   306  ILE306      0.0001
     51  N        -26.3050   59.1070  -35.2710 N.am  307  LYS307     -0.1963
     52  CA       -25.3220   58.6530  -36.2110 C.3   307  LYS307      0.1728
     53  C        -24.7800   59.8240  -37.0370 C.2   307  LYS307      0.2617
     54  O        -25.5220   60.7440  -37.3510 O.2   307  LYS307     -0.2715
     55  CB       -25.8480   57.5150  -37.0620 C.3   307  LYS307      0.0311
     56  CG       -26.2440   57.8370  -38.4890 C.3   307  LYS307      0.0038
     57  CD       -26.7540   56.5640  -39.1480 C.3   307  LYS307      0.0206
     58  CE       -27.5720   56.8110  -40.4050 C.3   307  LYS307      0.1093
     59  NZ       -27.8560   55.5010  -41.0980 N.3   307  LYS307     -0.1314
     60  N        -23.4520   59.8450  -37.2040 N.am  308  GLY308     -0.1940
     61  CA       -22.7530   60.8780  -37.9510 C.3   308  GLY308      0.2014
     62  C        -22.6370   62.1990  -37.2310 C.2   308  GLY308      0.2640
     63  O        -22.0800   63.1280  -37.7660 O.2   308  GLY308     -0.2714
     64  N        -23.1350   62.3100  -36.0100 N.am  309  SER309     -0.1935
     65  CA       -23.0450   63.5850  -35.2770 C.3   309  SER309      0.2055
     66  C        -21.8240   63.5340  -34.3790 C.2   309  SER309      0.2643
     67  O        -21.4180   62.4550  -33.9420 O.2   309  SER309     -0.2714
     68  CB       -24.3200   63.8310  -34.4480 C.3   309  SER309      0.2130
     69  OG       -24.3060   65.1070  -33.7870 O.3   309  SER309     -0.2179
     70  N        -21.1820   64.6700  -34.1590 N.am  310  TYR310     -0.1973
     71  CA       -20.0200   64.7110  -33.3080 C.3   310  TYR310      0.1639
     72  C        -20.0100   66.0840  -32.6490 C.2   310  TYR310      0.2290
     73  O        -19.0880   66.8820  -32.8470 O.2   310  TYR310     -0.2864
     74  CB       -18.7240   64.4090  -34.1090 C.3   310  TYR310      0.0560
     75  CG       -17.4070   64.1430  -33.3240 C.ar  310  TYR310     -0.0198
     76  CD1      -17.4020   63.6370  -32.0130 C.ar  310  TYR310     -0.0009
     77  CD2      -16.1670   64.3420  -33.9300 C.ar  310  TYR310     -0.0009
     78  CE1      -16.2050   63.4010  -31.3300 C.ar  310  TYR310      0.0417
     79  CE2      -14.9670   64.0690  -33.2670 C.ar  310  TYR310      0.0417
     80  CZ       -15.0020   63.5570  -31.9690 C.ar  310  TYR310      0.1957
     81  OH       -13.8270   63.2530  -31.2880 O.3   310  TYR310     -0.2866
     82  N        -21.1630   60.4150  -27.6400 N.3   335  VAL335     -0.1245
     83  CA       -20.2380   60.8190  -28.7130 C.3   335  VAL335      0.1561
     84  C        -20.1320   62.3430  -28.8330 C.2   335  VAL335      0.2260
     85  O        -21.0360   63.0250  -29.3560 O.2   335  VAL335     -0.2867
     86  CB       -20.5290   60.1890  -30.0530 C.3   335  VAL335      0.0252
     87  CG1      -19.5630   60.7060  -31.1070 C.3   335  VAL335      0.0019
     88  CG2      -20.4290   58.6520  -29.9600 C.3   335  VAL335      0.0019
     89  N        -15.3240   59.0640  -27.9330 N.3   362  PHE362     -0.1241
     90  CA       -14.3790   59.7220  -28.8080 C.3   362  PHE362      0.1605
     91  C        -14.0360   61.1250  -28.3020 C.2   362  PHE362      0.2264
     92  O        -13.7970   61.9980  -29.1020 O.2   362  PHE362     -0.2867
     93  CB       -14.9120   59.8370  -30.2300 C.3   362  PHE362      0.0534
     94  CG       -15.1270   58.5120  -30.9080 C.ar  362  PHE362     -0.0203
     95  CD1      -14.0530   57.7760  -31.3790 C.ar  362  PHE362     -0.0042
     96  CD2      -16.3820   57.9950  -31.0270 C.ar  362  PHE362     -0.0042
     97  CE1      -14.2470   56.5500  -31.9910 C.ar  362  PHE362     -0.0003
     98  CE2      -16.5930   56.7340  -31.6340 C.ar  362  PHE362     -0.0003
     99  CZ       -15.5250   56.0290  -32.1190 C.ar  362  PHE362     -0.0000
    100  N        -10.4950   59.7390  -27.1430 N.3   386  ARG386     -0.1245
    101  CA        -9.4790   60.2740  -28.0420 C.3   386  ARG386      0.1563
    102  C         -8.6400   61.2540  -27.2410 C.2   386  ARG386      0.2260
    103  O         -8.1190   62.2420  -27.7880 O.2   386  ARG386     -0.2867
    104  CB       -10.0840   60.9940  -29.2400 C.3   386  ARG386      0.0307
    105  CG       -10.5690   60.0880  -30.3690 C.3   386  ARG386      0.0489
    106  CD       -11.1150   60.9040  -31.5560 C.3   386  ARG386      0.2205
    107  NE       -11.5890   60.0550  -32.6510 N.pl3 386  ARG386     -0.0865
    108  CZ       -10.7950   59.2640  -33.3870 C.cat 386  ARG386      0.5346
    109  NH1      -11.3200   58.4900  -34.2980 N.pl3 386  ARG386      0.1354
    110  NH2       -9.4720   59.2840  -33.2410 N.pl3 386  ARG386      0.1354
@<TRIPOS>BOND
     1    59    58    1
     2    58    57    1
     3     9     7   ar
     4     9    11   ar
     5    57    56    1
     6     7     6   ar
     7    56    55    1
     8    11    10   ar
     9    61    62    1
    10    61    60    1
    11    63    62    2
    12    54    53    2
    13     6     5    1
    14     6     8   ar
    15    62    64   am
    16    60    53   am
    17    55    52    1
    18    53    52    1
    19    12    13    1
    20    12     3   am
    21    10     8   ar
    22     2     5    1
    23     2     1    1
    24     2     3    1
    25    18    17    2
    26    13    16    1
    27    13    14    1
    28    52    51    1
    29     3     4    2
    30    64    65    1
    31    16    17    1
    32    17    19   am
    33    14    15    2
    34    65    68    1
    35    65    66    1
    36    51    45   am
    37    49    47    1
    38    68    69    1
    39    45    46    2
    40    45    44    1
    41    66    70   am
    42    66    67    2
    43   109   108    1
    44    70    71    1
    45    74    75    1
    46    74    71    1
    47    77    75   ar
    48    77    79   ar
    49    42    41    1
    50    47    44    1
    51    47    48    1
    52    40    41   ar
    53    40    38   ar
    54   108   110    1
    55   108   107    2
    56    44    43    1
    57    75    76   ar
    58    71    72    1
    59    79    80   ar
    60    41    39   ar
    61    73    72    2
    62    38    36   ar
    63   107   106    1
    64    48    50    1
    65    99    97   ar
    66    99    98   ar
    67    43    33   am
    68    76    78   ar
    69    97    95   ar
    70    80    78   ar
    71    80    81    1
    72    34    33    2
    73    98    96   ar
    74    39    37   ar
    75   106   105    1
    76    33    32    1
    77    36    37   ar
    78    36    35    1
    79    95    94   ar
    80    87    86    1
    81    96    94   ar
    82    94    93    1
    83    35    32    1
    84   105   104    1
    85    93    90    1
    86    32    31    1
    87    86    88    1
    88    86    83    1
    89    85    84    2
    90   104   101    1
    91    92    91    2
    92    84    83    1
    93    90    91    1
    94    90    89    1
    95    83    82    1
    96    23    22    2
    97    26    28   ar
    98    26    25   ar
    99   101   102    1
   100   101   100    1
   101    28    30   ar
   102   103   102    2
   103    22    21    1
   104    24    25    1
   105    24    21    1
   106    25    27   ar
   107    21    20    1
   108    30    29   ar
   109    27    29   ar
