@<TRIPOS>MOLECULE
tmp/4r0iA01.pdb
 190 189 0 0 0
SMALL
GASTEIGER

@<TRIPOS>ATOM
      1  N         24.1170    8.4210   18.4210 N.3    42  HIS42      -0.1226
      2  CA        23.6970    7.2090   19.1460 C.3    42  HIS42       0.1752
      3  C         22.8020    6.2610   18.3260 C.2    42  HIS42       0.2596
      4  O         22.7190    5.1010   18.6830 O.2    42  HIS42      -0.2718
      5  CB        23.0580    7.5010   20.4990 C.3    42  HIS42       0.0759
      6  CG        21.6310    7.9470   20.4410 C.ar   42  HIS42       0.0818
      7  ND1       20.5740    7.0810   20.2340 N.ar   42  HIS42      -0.2268
      8  CD2       21.0780    9.1660   20.6380 C.ar   42  HIS42       0.1154
      9  CE1       19.4320    7.7520   20.2890 C.ar   42  HIS42       0.1986
     10  NE2       19.7080    9.0110   20.5390 N.ar   42  HIS42      -0.2212
     11  N         22.2230    6.7510   17.2310 N.am   43  CYS43      -0.1970
     12  CA        21.3500    5.9320   16.3600 C.3    43  CYS43       0.1712
     13  C         22.1410    4.9510   15.4960 C.2    43  CYS43       0.2296
     14  O         21.5500    4.0330   14.9100 O.2    43  CYS43      -0.2864
     15  CB        20.5330    6.8250   15.3970 C.3    43  CYS43       0.0983
     16  SG        19.3390    7.9460   16.1840 S.3    43  CYS43      -0.0798
     17  N         29.6830    7.3490   24.0720 N.3    91  ASP91      -0.1225
     18  CA        28.4800    6.5070   24.1500 C.3    91  ASP91       0.1805
     19  C         27.9510    6.2260   25.5840 C.2    91  ASP91       0.2598
     20  O         26.9240    5.5320   25.7500 O.2    91  ASP91      -0.2718
     21  CB        28.7000    5.2120   23.3920 C.3    91  ASP91       0.1424
     22  CG        29.7950    4.4010   23.9720 C.2    91  ASP91       0.3668
     23  OD1       30.2450    4.6750   25.0950 O.co2  91  ASP91      -0.2456
     24  OD2       30.2500    3.4810   23.2840 O.co2  91  ASP91      -0.2456
     25  N         28.6690    6.7090   26.5960 N.am   92  PHE92      -0.1962
     26  CA        28.3140    6.4930   27.9870 C.3    92  PHE92       0.1771
     27  C         27.5010    7.6810   28.5050 C.2    92  PHE92       0.2620
     28  O         26.5670    7.4900   29.2400 O.2    92  PHE92      -0.2715
     29  CB        29.5580    6.3670   28.8690 C.3    92  PHE92       0.0574
     30  CG        29.2670    5.9060   30.3090 C.ar   92  PHE92      -0.0200
     31  CD1       29.3520    6.8050   31.3820 C.ar   92  PHE92      -0.0042
     32  CD2       28.9180    4.5560   30.5890 C.ar   92  PHE92      -0.0042
     33  CE1       29.0780    6.3830   32.6890 C.ar   92  PHE92      -0.0003
     34  CE2       28.6780    4.1420   31.9070 C.ar   92  PHE92      -0.0003
     35  CZ        28.7500    5.0760   32.9540 C.ar   92  PHE92      -0.0000
     36  N         27.7520    8.8120   27.9510 N.am   93  THR93      -0.1937
     37  CA        27.4390   10.0410   28.4970 C.3    93  THR93       0.2028
     38  C         26.4800   10.7260   27.5160 C.2    93  THR93       0.2642
     39  O         25.6230   11.4930   27.8910 O.2    93  THR93      -0.2714
     40  CB        28.7790   10.6770   28.6960 C.3    93  THR93       0.1808
     41  OG1       29.0250   10.7910   30.0590 O.3    93  THR93      -0.2208
     42  CG2       28.8750   11.9470   28.1170 C.3    93  THR93       0.0379
     43  N         26.5940   10.3270   26.2730 N.am   94  PHE94      -0.1973
     44  CA        26.0260   10.9080   25.0650 C.3    94  PHE94       0.1639
     45  C         26.4840   12.3590   24.8710 C.2    94  PHE94       0.2290
     46  O         25.8040   13.1300   24.2050 O.2    94  PHE94      -0.2864
     47  CB        24.4920   10.8810   24.9770 C.3    94  PHE94       0.0560
     48  CG        23.8980    9.5690   24.5570 C.ar   94  PHE94      -0.0200
     49  CD1       24.6290    8.3730   24.5440 C.ar   94  PHE94      -0.0042
     50  CD2       22.5220    9.5180   24.2500 C.ar   94  PHE94      -0.0042
     51  CE1       23.9900    7.1850   24.2280 C.ar   94  PHE94      -0.0003
     52  CE2       21.9050    8.3270   23.9000 C.ar   94  PHE94      -0.0003
     53  CZ        22.6430    7.1630   23.8880 C.ar   94  PHE94      -0.0000
     54  N          5.7730    7.2610   27.6590 N.3   141  TYR141     -0.1241
     55  CA         6.8620    6.4430   28.1810 C.3   141  TYR141      0.1605
     56  C          6.2330    5.0690   28.3920 C.2   141  TYR141      0.2264
     57  O          5.1410    4.9340   28.8650 O.2   141  TYR141     -0.2867
     58  CB         7.6580    6.9780   29.4220 C.3   141  TYR141      0.0534
     59  CG         8.7830    6.0390   29.7470 C.ar  141  TYR141     -0.0201
     60  CD1        9.8920    5.9660   28.9590 C.ar  141  TYR141     -0.0009
     61  CD2        8.6750    5.1210   30.7500 C.ar  141  TYR141     -0.0009
     62  CE1       10.8710    5.0830   29.1630 C.ar  141  TYR141      0.0417
     63  CE2        9.6790    4.2150   30.9840 C.ar  141  TYR141      0.0417
     64  CZ        10.7740    4.1860   30.1870 C.ar  141  TYR141      0.1957
     65  OH        11.7930    3.3100   30.3970 O.3   141  TYR141     -0.2866
     66  N         25.4310   14.6920   34.6100 N.3   169  GLN169     -0.1245
     67  CA        25.0820   14.1130   33.3330 C.3   169  GLN169      0.1566
     68  C         24.9980   15.1480   32.2480 C.2   169  GLN169      0.2260
     69  O         24.7770   14.7640   31.1580 O.2   169  GLN169     -0.2867
     70  CB        23.7490   13.3570   33.4150 C.3   169  GLN169      0.0367
     71  CG        23.7490   12.1430   34.3340 C.3   169  GLN169      0.0905
     72  CD        22.3230   11.7050   34.6480 C.2   169  GLN169      0.2608
     73  OE1       21.6360   11.1820   33.7920 O.2   169  GLN169     -0.2717
     74  NE2       21.8770   11.9200   35.8620 N.am  169  GLN169     -0.0878
     75  N          7.2290   16.3340   25.8350 N.3   185  ASP185     -0.1225
     76  CA         8.6190   15.8980   25.7650 C.3   185  ASP185      0.1805
     77  C          8.7960   15.0440   24.4890 C.2   185  ASP185      0.2598
     78  O          7.8400   14.4640   23.9590 O.2   185  ASP185     -0.2718
     79  CB         8.9600   15.0220   27.0100 C.3   185  ASP185      0.1424
     80  CG        10.4590   14.9100   27.2660 C.2   185  ASP185      0.3668
     81  OD1       11.2770   15.5090   26.5170 O.co2 185  ASP185     -0.2456
     82  OD2       10.8150   14.1770   28.2210 O.co2 185  ASP185     -0.2456
     83  N         10.0160   14.9270   23.9900 N.am  186  SER186     -0.1938
     84  CA        10.2710   13.9550   22.9460 C.3   186  SER186      0.2055
     85  C         10.4160   12.5700   23.5940 C.2   186  SER186      0.2643
     86  O         10.4510   12.4520   24.8380 O.2   186  SER186     -0.2714
     87  CB        11.5250   14.3550   22.1340 C.3   186  SER186      0.2130
     88  OG        12.6040   14.6610   22.9770 O.3   186  SER186     -0.2179
     89  N         10.5310   11.5100   22.8060 N.am  187  CYS187     -0.1953
     90  CA        10.6180   10.1670   23.4250 C.3   187  CYS187      0.1843
     91  C         11.3250    9.1500   22.4690 C.2   187  CYS187      0.2625
     92  O         11.7710    9.5510   21.3790 O.2   187  CYS187     -0.2714
     93  CB         9.2080    9.7430   23.9490 C.3   187  CYS187      0.0997
     94  SG         9.1890    8.3790   25.1470 S.3   187  CYS187     -0.0797
     95  N         11.5010    7.8900   22.9040 N.am  188  GLN188     -0.1977
     96  CA        12.1680    6.8470   22.0840 C.3   188  GLN188      0.1601
     97  C         11.6660    6.9000   20.6270 C.2   188  GLN188      0.2287
     98  O         10.4370    6.8530   20.3880 O.2   188  GLN188     -0.2864
     99  CB        11.9590    5.4430   22.6960 C.3   188  GLN188      0.0394
    100  CG        12.7930    4.3330   22.0620 C.3   188  GLN188      0.0908
    101  CD        12.4270    2.9560   22.6380 C.2   188  GLN188      0.2608
    102  OE1       12.2770    1.9620   21.9090 O.2   188  GLN188     -0.2717
    103  NE2       12.2450    2.9050   23.9260 N.am  188  GLN188     -0.0878
    104  N         14.5760   10.3810   18.6570 N.3   191  SER191     -0.1217
    105  CA        16.0360   10.5730   18.6560 C.3   191  SER191      0.1889
    106  C         16.4960   10.9420   17.2510 C.2   191  SER191      0.2288
    107  O         16.0970   10.2970   16.2460 O.2   191  SER191     -0.2866
    108  CB        16.7550    9.2760   19.0740 C.3   191  SER191      0.2089
    109  OG        16.4120    8.8760   20.3980 O.3   191  SER191     -0.2183
    110  N         17.3380   15.8120   18.9600 N.3   210  VAL210     -0.1231
    111  CA        16.7910   14.9520   20.0340 C.3   210  VAL210      0.1692
    112  C         17.8180   13.8870   20.4570 C.2   210  VAL210      0.2593
    113  O         18.3510   13.1050   19.6060 O.2   210  VAL210     -0.2718
    114  CB        15.4970   14.2380   19.5900 C.3   210  VAL210      0.0266
    115  CG1       14.9610   13.4220   20.7590 C.3   210  VAL210      0.0020
    116  CG2       14.4750   15.2320   19.0520 C.3   210  VAL210      0.0020
    117  N         18.1290   13.8650   21.7420 N.am  211  SER211     -0.1938
    118  CA        19.2590   13.0260   22.2220 C.3   211  SER211      0.2055
    119  C         18.8130   11.9890   23.2790 C.2   211  SER211      0.2643
    120  O         18.7040   10.7910   22.9790 O.2   211  SER211     -0.2714
    121  CB        20.5130   13.8680   22.6460 C.3   211  SER211      0.2130
    122  OG        21.5410   12.9810   23.1430 O.3   211  SER211     -0.2179
    123  N         18.4640   12.4300   24.4850 N.am  212  TRP212     -0.1959
    124  CA        18.0160   11.4740   25.5290 C.3   212  TRP212      0.1771
    125  C         17.1190   12.1540   26.5820 C.2   212  TRP212      0.2620
    126  O         16.9020   13.3710   26.5350 O.2   212  TRP212     -0.2715
    127  CB        19.2320   10.8020   26.2450 C.3   212  TRP212      0.0590
    128  CG        20.1650   11.7850   26.9350 C.ar  212  TRP212      0.0006
    129  CD1       21.1540   12.5110   26.3590 C.ar  212  TRP212      0.0946
    130  CD2       20.1980   12.0900   28.3420 C.ar  212  TRP212      0.0152
    131  NE1       21.8060   13.2760   27.3220 N.ar  212  TRP212     -0.2442
    132  CE2       21.2550   13.0130   28.5490 C.ar  212  TRP212      0.0810
    133  CE3       19.4780   11.6210   29.4610 C.ar  212  TRP212      0.0012
    134  CZ2       21.5390   13.5630   29.8070 C.ar  212  TRP212      0.0191
    135  CZ3       19.7980   12.1480   30.7350 C.ar  212  TRP212      0.0001
    136  CH2       20.8310   13.1000   30.8910 C.ar  212  TRP212      0.0015
    137  N         16.5770   11.3720   27.5160 N.am  213  GLY213     -0.1940
    138  CA        15.9010   11.9660   28.6760 C.3   213  GLY213      0.2014
    139  C         15.8490   10.8480   29.7140 C.2   213  GLY213      0.2639
    140  O         16.0970    9.6350   29.3960 O.2   213  GLY213     -0.2714
    141  N         15.5970   11.2490   30.9460 N.am  214  ASP214     -0.1957
    142  CA        15.3310   10.2400   31.9870 C.3   214  ASP214      0.1840
    143  C         13.8570    9.8070   31.8680 C.2   214  ASP214      0.2623
    144  O         12.9220   10.5440   32.2620 O.2   214  ASP214     -0.2715
    145  CB        15.6820   10.7590   33.3870 C.3   214  ASP214      0.1450
    146  CG        15.2730    9.7860   34.5060 C.2   214  ASP214      0.3671
    147  OD1       14.6820    8.7210   34.2290 O.co2 214  ASP214     -0.2456
    148  OD2       15.5520   10.0910   35.6870 O.co2 214  ASP214     -0.2456
    149  N         13.3300    8.4860   30.9590 N.am  215  GLY215     -0.1940
    150  CA        11.9450    8.2480   30.4600 C.3   215  GLY215      0.2014
    151  C         11.5860    9.4820   29.6490 C.2   215  GLY215      0.2639
    152  O         12.4710   10.0590   28.9880 O.2   215  GLY215     -0.2714
    153  N         10.3350    9.9350   29.7770 N.am  216  CYS216     -0.1967
    154  CA         9.8030   10.9310   28.8480 C.3   216  CYS216      0.1712
    155  C          8.6800   11.6310   29.5590 C.2   216  CYS216      0.2296
    156  O          7.8280   10.9400   30.1350 O.2   216  CYS216     -0.2864
    157  CB         9.2250   10.2190   27.6220 C.3   216  CYS216      0.0983
    158  SG        10.3110    9.0310   26.7430 S.3   216  CYS216     -0.0798
    159  N         12.3380   16.1040   34.7120 N.3   221  LYS221     -0.1245
    160  CA        13.1900   15.3490   33.7790 C.3   221  LYS221      0.1561
    161  C         12.9480   15.8230   32.3310 C.2   221  LYS221      0.2260
    162  O         12.4290   15.1060   31.4730 O.2   221  LYS221     -0.2867
    163  CB        12.9410   13.8310   33.9330 C.3   221  LYS221      0.0271
    164  CG        13.3940   13.2730   35.2780 C.3   221  LYS221      0.0035
    165  CD        12.8150   11.8820   35.5680 C.3   221  LYS221      0.0206
    166  CE        13.0160   11.4540   37.0270 C.3   221  LYS221      0.1093
    167  NZ        14.4170   11.7660   37.4360 N.3   221  LYS221     -0.1314
    168  N         13.6180   16.8280   28.4150 N.3   223  GLY223     -0.1210
    169  CA        14.3560   16.2320   27.2910 C.3   223  GLY223      0.1956
    170  C         15.7250   16.8760   27.1540 C.2   223  GLY223      0.2612
    171  O         15.8540   18.0860   27.3120 O.2   223  GLY223     -0.2717
    172  N         16.7400   16.0640   26.8410 N.am  224  VAL224     -0.1965
    173  CA        18.1290   16.5680   26.6980 C.3   224  VAL224      0.1727
    174  C         18.5150   16.5340   25.2010 C.2   224  VAL224      0.2616
    175  O         18.2740   15.5190   24.5240 O.2   224  VAL224     -0.2715
    176  CB        19.0990   15.7540   27.5840 C.3   224  VAL224      0.0290
    177  CG1       20.4970   16.3170   27.4720 C.3   224  VAL224      0.0023
    178  CG2       18.6900   15.8320   29.0600 C.3   224  VAL224      0.0023
    179  N         19.0140   17.6570   24.6680 N.am  225  TYR225     -0.1974
    180  CA        19.1760   17.8360   23.2200 C.3   225  TYR225      0.1639
    181  C         20.5720   18.2870   22.9580 C.2   225  TYR225      0.2290
    182  O         21.1440   19.0560   23.7860 O.2   225  TYR225     -0.2864
    183  CB        18.2020   18.8810   22.6970 C.3   225  TYR225      0.0560
    184  CG        16.7520   18.4550   22.8490 C.ar  225  TYR225     -0.0198
    185  CD1       16.0500   18.6730   24.0400 C.ar  225  TYR225     -0.0009
    186  CD2       16.0810   17.8600   21.7880 C.ar  225  TYR225     -0.0009
    187  CE1       14.6900   18.3180   24.1230 C.ar  225  TYR225      0.0417
    188  CE2       14.7280   17.5050   21.8830 C.ar  225  TYR225      0.0417
    189  CZ        14.0650   17.7260   23.0500 C.ar  225  TYR225      0.1957
    190  OH        12.7380   17.3640   23.1500 O.3   225  TYR225     -0.2866
@<TRIPOS>BOND
     1    14    13    2
     2    15    16    1
     3    15    12    1
     4    13    12    1
     5   107   106    2
     6    12    11    1
     7    11     3   am
     8   106   105    1
     9     3     4    2
    10     3     2    1
    11     1     2    1
    12   105   104    1
    13   105   108    1
    14   110   111    1
    15   116   114    1
    16   108   109    1
    17     2     5    1
    18   114   111    1
    19   114   115    1
    20   113   112    2
    21   111   112    1
    22     7     9   ar
    23     7     6   ar
    24     9    10   ar
    25    98    97    2
    26     6     5    1
    27     6     8   ar
    28   112   117   am
    29    10     8   ar
    30    97    96    1
    31    92    91    2
    32   117   118    1
    33   186   188   ar
    34   186   184   ar
    35   188   189   ar
    36   102   101    2
    37   100   101    1
    38   100    99    1
    39    96    99    1
    40    96    95    1
    41    87    84    1
    42    87    88    1
    43   118   121    1
    44   118   119    1
    45    91    95   am
    46    91    90    1
    47   101   103   am
    48   121   122    1
    49   183   184    1
    50   183   180    1
    51    89    90    1
    52    89    85   am
    53   184   185   ar
    54    84    85    1
    55    84    83    1
    56   181   180    1
    57   181   182    2
    58   120   119    2
    59   189   190    1
    60   189   187   ar
    61   180   179    1
    62   119   123   am
    63    24    22   ar
    64    21    22    1
    65    21    18    1
    66    90    93    1
    67    85    86    2
    68    53    52   ar
    69    53    51   ar
    70    52    50   ar
    71    93    94    1
    72    78    77    2
    73    22    23   ar
    74    83    77   am
    75   185   187   ar
    76    17    18    1
    77    18    19    1
    78    46    45    2
    79    51    49   ar
    80    50    48   ar
    81   123   124    1
    82    77    76    1
    83   175   174    2
    84    49    48   ar
    85    48    47    1
    86   179   174   am
    87    45    44    1
    88    47    44    1
    89    44    43    1
    90    94   158    1
    91   174   173    1
    92   124   127    1
    93   124   125    1
    94    19    20    2
    95    19    25   am
    96    76    75    1
    97    76    79    1
    98   127   128    1
    99    43    38   am
   100   129   128   ar
   101   129   131   ar
   102    81    80   ar
   103   126   125    2
   104   125   137   am
   105    25    26    1
   106   173   172    1
   107   173   176    1
   108   158   157    1
   109   172   170   am
   110   128   130   ar
   111    79    80    1
   112   170   169    1
   113   170   171    2
   114    80    82   ar
   115   169   168    1
   116   131   132   ar
   117   177   176    1
   118    38    39    2
   119    38    37    1
   120   137   138    1
   121   176   178    1
   122   157   154    1
   123    54    55    1
   124    36    37    1
   125    36    27   am
   126    26    27    1
   127    26    29    1
   128    42    40    1
   129    55    56    1
   130    55    58    1
   131   130   132   ar
   132   130   133   ar
   133    56    57    2
   134    37    40    1
   135    27    28    2
   136   132   134   ar
   137   138   139    1
   138    40    41    1
   139   154   155    1
   140   154   153    1
   141    29    30    1
   142    60    62   ar
   143    60    59   ar
   144   152   151    2
   145    62    64   ar
   146   140   139    2
   147    58    59    1
   148   133   135   ar
   149   155   156    2
   150   151   153   am
   151   151   150    1
   152   139   141   am
   153    59    61   ar
   154   134   136   ar
   155    64    65    1
   156    64    63   ar
   157    30    32   ar
   158    30    31   ar
   159   150   149    1
   160    32    34   ar
   161   135   136   ar
   162    61    63   ar
   163   141   142    1
   164   149   143   am
   165    69    68    2
   166    31    33   ar
   167   162   161    2
   168   143   142    1
   169   143   144    2
   170    34    35   ar
   171   142   145    1
   172    68    67    1
   173   161   160    1
   174    33    35   ar
   175    67    70    1
   176    67    66    1
   177   145   146    1
   178    70    71    1
   179   160   163    1
   180   160   159    1
   181    73    72    2
   182   163   164    1
   183   147   146   ar
   184    71    72    1
   185   146   148   ar
   186    72    74   am
   187   164   165    1
   188   165   166    1
   189   166   167    1
