@<TRIPOS>MOLECULE
tmp/4r0mB00.pdb
 220 209 0 0 0
SMALL
GASTEIGER

@<TRIPOS>ATOM
      1  N         45.4440  -37.1990   -9.8140 N.3   178  THR178     -0.1218
      2  CA        44.2830  -36.5120   -9.2650 C.3   178  THR178      0.1862
      3  C         43.9130  -37.1670   -7.9420 C.2   178  THR178      0.2287
      4  O         43.9000  -38.3960   -7.8300 O.2   178  THR178     -0.2866
      5  CB        43.0910  -36.5480  -10.2430 C.3   178  THR178      0.1770
      6  OG1       43.4350  -35.8270  -11.4300 O.3   178  THR178     -0.2211
      7  CG2       41.8430  -35.9130   -9.6250 C.3   178  THR178      0.0375
      8  N         49.5660  -28.3630  -10.6910 N.3   218  HIS218     -0.1226
      9  CA        48.2330  -28.5320  -11.2480 C.3   218  HIS218      0.1752
     10  C         48.2000  -28.3250  -12.7370 C.2   218  HIS218      0.2596
     11  O         48.9280  -27.4900  -13.2800 O.2   218  HIS218     -0.2718
     12  CB        47.2310  -27.6210  -10.5580 C.3   218  HIS218      0.0759
     13  CG        45.7990  -27.9910  -10.8410 C.ar  218  HIS218      0.0818
     14  ND1       45.0570  -27.3500  -11.7600 N.ar  218  HIS218     -0.2268
     15  CD2       44.9890  -28.9900  -10.3040 C.ar  218  HIS218      0.1154
     16  CE1       43.8300  -27.8980  -11.8020 C.ar  218  HIS218      0.1986
     17  NE2       43.7890  -28.9030  -10.9120 N.ar  218  HIS218     -0.2212
     18  N         47.3300  -29.0850  -13.3960 N.am  219  VAL219     -0.1966
     19  CA        47.2080  -29.0980  -14.8520 C.3   219  VAL219      0.1727
     20  C         46.9740  -27.7100  -15.4570 C.2   219  VAL219      0.2616
     21  O         47.5120  -27.3990  -16.5210 O.2   219  VAL219     -0.2715
     22  CB        46.1160  -30.0990  -15.3040 C.3   219  VAL219      0.0290
     23  CG1       44.7180  -29.6120  -14.9280 C.3   219  VAL219      0.0023
     24  CG2       46.2300  -30.3980  -16.7940 C.3   219  VAL219      0.0023
     25  N         46.1900  -26.8820  -14.7680 N.am  220  GLY220     -0.1955
     26  CA        45.8720  -25.5350  -15.2350 C.3   220  GLY220      0.1869
     27  C         47.0930  -24.6360  -15.3180 C.2   220  GLY220      0.2309
     28  O         47.2140  -23.8210  -16.2360 O.2   220  GLY220     -0.2863
     29  N         47.5830  -24.7120  -19.4080 N.3   224  PHE224     -0.1241
     30  CA        46.9310  -23.4670  -19.8300 C.3   224  PHE224      0.1605
     31  C         47.7900  -22.2140  -19.6320 C.2   224  PHE224      0.2264
     32  O         47.8190  -21.3360  -20.5000 O.2   224  PHE224     -0.2867
     33  CB        45.5590  -23.3200  -19.1540 C.3   224  PHE224      0.0534
     34  CG        44.8490  -22.0230  -19.4670 C.ar  224  PHE224     -0.0203
     35  CD1       44.5630  -21.6600  -20.7850 C.ar  224  PHE224     -0.0042
     36  CD2       44.4470  -21.1720  -18.4400 C.ar  224  PHE224     -0.0042
     37  CE1       43.9080  -20.4700  -21.0710 C.ar  224  PHE224     -0.0003
     38  CE2       43.7860  -19.9830  -18.7190 C.ar  224  PHE224     -0.0003
     39  CZ        43.5140  -19.6340  -20.0360 C.ar  224  PHE224     -0.0000
     40  N         43.6640  -16.7660  -14.4520 N.3   262  TRP262     -0.1241
     41  CA        42.7330  -17.7990  -13.9980 C.3   262  TRP262      0.1605
     42  C         42.7470  -18.0100  -12.5060 C.2   262  TRP262      0.2264
     43  O         43.8000  -17.9470  -11.8610 O.2   262  TRP262     -0.2867
     44  CB        43.0170  -19.1210  -14.7240 C.3   262  TRP262      0.0550
     45  CG        42.5350  -20.3640  -14.0090 C.ar  262  TRP262      0.0003
     46  CD1       41.2220  -20.7230  -13.7100 C.ar  262  TRP262      0.0946
     47  CD2       43.3560  -21.4660  -13.4850 C.ar  262  TRP262      0.0152
     48  NE1       41.1790  -21.9260  -13.0540 N.ar  262  TRP262     -0.2442
     49  CE2       42.4190  -22.4270  -12.8880 C.ar  262  TRP262      0.0810
     50  CE3       44.7200  -21.7420  -13.4490 C.ar  262  TRP262      0.0012
     51  CZ2       42.8520  -23.6010  -12.2880 C.ar  262  TRP262      0.0191
     52  CZ3       45.1430  -22.9310  -12.8440 C.ar  262  TRP262      0.0001
     53  CH2       44.2310  -23.8370  -12.2790 C.ar  262  TRP262      0.0015
     54  N         39.6470  -16.2520  -16.6310 N.3   291  VAL291     -0.1245
     55  CA        39.0090  -17.5570  -16.4880 C.3   291  VAL291      0.1561
     56  C         38.5430  -17.8380  -15.0590 C.2   291  VAL291      0.2260
     57  O         39.2970  -17.6710  -14.0950 O.2   291  VAL291     -0.2867
     58  CB        39.9180  -18.7040  -16.9920 C.3   291  VAL291      0.0252
     59  CG1       39.2050  -20.0430  -16.8910 C.3   291  VAL291      0.0019
     60  CG2       40.3440  -18.4560  -18.4290 C.3   291  VAL291      0.0019
     61  N         37.3320  -21.1710  -13.4450 N.3   293  ALA293     -0.1231
     62  CA        37.2730  -22.6100  -13.7040 C.3   293  ALA293      0.1694
     63  C         37.9660  -23.4220  -12.6130 C.2   293  ALA293      0.2593
     64  O         38.8250  -22.9080  -11.8940 O.2   293  ALA293     -0.2718
     65  CB        37.8860  -22.9270  -15.0610 C.3   293  ALA293      0.0304
     66  N         37.5910  -24.6940  -12.5080 N.am  294  GLY294     -0.1942
     67  CA        38.1790  -25.6100  -11.5290 C.3   294  GLY294      0.2014
     68  C         37.1970  -25.9910  -10.4370 C.2   294  GLY294      0.2639
     69  O         37.4900  -26.8350   -9.5860 O.2   294  GLY294     -0.2714
     70  N         36.0170  -25.3830  -10.4980 N.am  295  GLU295     -0.1963
     71  CA        35.0460  -25.3940   -9.4150 C.3   295  GLU295      0.1733
     72  C         33.7520  -24.8130   -9.9730 C.2   295  GLU295      0.2616
     73  O         33.7860  -24.0040  -10.9070 O.2   295  GLU295     -0.2715
     74  CB        35.5810  -24.5220   -8.2770 C.3   295  GLU295      0.0429
     75  CG        34.7150  -24.3940   -7.0380 C.3   295  GLU295      0.1163
     76  CD        35.3120  -23.4190   -6.0410 C.2   295  GLU295      0.3649
     77  OE1       36.3710  -23.7330   -5.4630 O.co2 295  GLU295     -0.2457
     78  OE2       34.7280  -22.3350   -5.8390 O.co2 295  GLU295     -0.2457
     79  N         32.6170  -25.2230   -9.4100 N.am  296  GLN296     -0.1963
     80  CA        31.3120  -24.7130   -9.8300 C.3   296  GLN296      0.1733
     81  C         31.2820  -23.1840   -9.8010 C.2   296  GLN296      0.2616
     82  O         31.6880  -22.5620   -8.8180 O.2   296  GLN296     -0.2715
     83  CB        30.1980  -25.3000   -8.9560 C.3   296  GLN296      0.0408
     84  CG        28.7890  -25.0400   -9.4690 C.3   296  GLN296      0.0908
     85  CD        28.4200  -25.8510  -10.6970 C.2   296  GLN296      0.2608
     86  OE1       28.8600  -26.9900  -10.8700 O.2   296  GLN296     -0.2717
     87  NE2       27.5900  -25.2690  -11.5530 N.am  296  GLN296     -0.0878
     88  N         30.8130  -22.5900  -10.8940 N.am  297  VAL297     -0.1977
     89  CA        30.7930  -21.1360  -11.0380 C.3   297  VAL297      0.1596
     90  C         29.4630  -20.5700  -10.5390 C.2   297  VAL297      0.2287
     91  O         28.3950  -21.0760  -10.8860 O.2   297  VAL297     -0.2864
     92  CB        31.0800  -20.7060  -12.5000 C.3   297  VAL297      0.0276
     93  CG1       31.1030  -19.1900  -12.6320 C.3   297  VAL297      0.0022
     94  CG2       32.4050  -21.2880  -12.9780 C.3   297  VAL297      0.0022
     95  N         34.9080  -21.4200  -17.6890 N.3   322  ALA322     -0.1231
     96  CA        35.4270  -22.5110  -18.4940 C.3   322  ALA322      0.1694
     97  C         35.2870  -23.8340  -17.7750 C.2   322  ALA322      0.2592
     98  O         35.2300  -23.8880  -16.5460 O.2   322  ALA322     -0.2718
     99  CB        36.8840  -22.2590  -18.8460 C.3   322  ALA322      0.0304
    100  N         35.2250  -24.9020  -18.5560 N.am  323  PHE323     -0.1962
    101  CA        35.2770  -26.2370  -18.0080 C.3   323  PHE323      0.1771
    102  C         36.5880  -26.9030  -18.4000 C.2   323  PHE323      0.2620
    103  O         37.0730  -26.7420  -19.5250 O.2   323  PHE323     -0.2715
    104  CB        34.0920  -27.0710  -18.4880 C.3   323  PHE323      0.0574
    105  CG        34.0820  -28.4640  -17.9410 C.ar  323  PHE323     -0.0200
    106  CD1       33.6720  -28.7080  -16.6350 C.ar  323  PHE323     -0.0042
    107  CD2       34.4960  -29.5310  -18.7250 C.ar  323  PHE323     -0.0042
    108  CE1       33.6710  -29.9920  -16.1250 C.ar  323  PHE323     -0.0003
    109  CE2       34.4960  -30.8180  -18.2230 C.ar  323  PHE323     -0.0003
    110  CZ        34.0800  -31.0470  -16.9210 C.ar  323  PHE323     -0.0000
    111  N         37.1520  -27.6490  -17.4580 N.am  324  GLY324     -0.1954
    112  CA        38.3710  -28.4010  -17.6960 C.3   324  GLY324      0.1869
    113  C         38.6250  -29.4130  -16.6030 C.2   324  GLY324      0.2309
    114  O         37.9550  -29.4110  -15.5690 O.2   324  GLY324     -0.2863
    115  N         42.0060  -32.4920  -15.3390 N.3   325  THR325     -0.1203
    116  CA        43.3200  -33.0770  -15.5840 C.3   325  THR325      0.1994
    117  C         43.2900  -33.9850  -16.8140 C.2   325  THR325      0.2617
    118  O         44.2270  -33.9840  -17.6140 O.2   325  THR325     -0.2717
    119  CB        43.8150  -33.8590  -14.3490 C.3   325  THR325      0.1784
    120  OG1       43.7000  -33.0280  -13.1840 O.3   325  THR325     -0.2211
    121  CG2       45.2650  -34.2900  -14.5190 C.3   325  THR325      0.0376
    122  N         42.1960  -34.7290  -16.9660 N.am  326  GLU326     -0.1979
    123  CA        42.0170  -35.6770  -18.0710 C.3   326  GLU326      0.1602
    124  C         41.9330  -35.0230  -19.4580 C.2   326  GLU326      0.2287
    125  O         42.1340  -35.6920  -20.4740 O.2   326  GLU326     -0.2864
    126  CB        40.7840  -36.5560  -17.8260 C.3   326  GLU326      0.0415
    127  CG        40.9690  -37.6200  -16.7460 C.3   326  GLU326      0.1163
    128  CD        40.6760  -37.1230  -15.3390 C.2   326  GLU326      0.3649
    129  OE1       40.5780  -35.8960  -15.1240 O.co2 326  GLU326     -0.2457
    130  OE2       40.5410  -37.9690  -14.4350 O.co2 326  GLU326     -0.2457
    131  N         43.6180  -29.6550  -18.7450 N.3   329  SER329     -0.1202
    132  CA        42.7620  -28.5330  -18.3650 C.3   329  SER329      0.2020
    133  C         41.6450  -28.1420  -19.3220 C.2   329  SER329      0.2619
    134  O         40.8380  -28.9550  -19.6460 O.2   329  SER329     -0.2717
    135  CB        43.6110  -27.3340  -17.9040 C.3   329  SER329      0.2103
    136  OG        44.0560  -26.5210  -18.9410 O.3   329  SER329     -0.2182
    137  N         41.5800  -26.8930  -19.7250 N.am  330  GLY330     -0.1956
    138  CA        40.4210  -26.3990  -20.4270 C.3   330  GLY330      0.1869
    139  C         39.9910  -27.0720  -21.7110 C.2   330  GLY330      0.2309
    140  O         40.7570  -27.3080  -22.5920 O.2   330  GLY330     -0.2863
    141  N         35.1950  -23.2070  -23.4600 N.3   333  TRP333     -0.1241
    142  CA        35.4080  -21.8140  -23.0700 C.3   333  TRP333      0.1605
    143  C         34.1850  -20.9960  -23.3470 C.2   333  TRP333      0.2264
    144  O         33.5530  -21.1470  -24.3940 O.2   333  TRP333     -0.2867
    145  CB        36.5950  -21.2140  -23.8190 C.3   333  TRP333      0.0550
    146  CG        37.8710  -22.0090  -23.6910 C.ar  333  TRP333      0.0003
    147  CD1       38.3680  -22.9620  -24.5730 C.ar  333  TRP333      0.0946
    148  CD2       38.8590  -21.9450  -22.6060 C.ar  333  TRP333      0.0152
    149  NE1       39.5580  -23.4740  -24.1230 N.ar  333  TRP333     -0.2442
    150  CE2       39.9080  -22.9100  -22.9490 C.ar  333  TRP333      0.0810
    151  CE3       38.9740  -21.2140  -21.4300 C.ar  333  TRP333      0.0012
    152  CZ2       41.0110  -23.1160  -22.1340 C.ar  333  TRP333      0.0191
    153  CZ3       40.0920  -21.4300  -20.6180 C.ar  333  TRP333      0.0001
    154  CH2       41.0840  -22.3590  -20.9640 C.ar  333  TRP333      0.0015
    155  N         29.4480  -22.4710  -19.6060 N.3   351  LEU351     -0.1245
    156  CA        30.8840  -22.7140  -19.7070 C.3   351  LEU351      0.1561
    157  C         31.3300  -22.7910  -21.1710 C.2   351  LEU351      0.2260
    158  O         32.4610  -23.1880  -21.4720 O.2   351  LEU351     -0.2867
    159  CB        31.2780  -23.9730  -18.9250 C.3   351  LEU351      0.0270
    160  CG        30.8300  -24.0600  -17.4580 C.3   351  LEU351      0.0019
    161  CD1       31.1860  -25.4180  -16.8770 C.3   351  LEU351      0.0001
    162  CD2       31.4140  -22.9460  -16.5970 C.3   351  LEU351      0.0001
    163  N         33.2500  -38.2050  -17.2840 N.3   407  THR407     -0.1218
    164  CA        33.9420  -37.2200  -16.4490 C.3   407  THR407      0.1862
    165  C         33.5830  -37.3400  -14.9670 C.2   407  THR407      0.2287
    166  O         34.3330  -36.8890  -14.0980 O.2   407  THR407     -0.2866
    167  CB        33.6440  -35.7780  -16.9130 C.3   407  THR407      0.1770
    168  OG1       32.2600  -35.4760  -16.6930 O.3   407  THR407     -0.2211
    169  CG2       33.9790  -35.6000  -18.3930 C.3   407  THR407      0.0375
    170  N         30.9090  -35.8800  -13.9950 N.3   409  ASP409     -0.1239
    171  CA        30.1920  -34.6240  -13.8060 C.3   409  ASP409      0.1674
    172  C         28.7810  -34.6750  -14.3730 C.2   409  ASP409      0.2266
    173  O         28.4750  -35.4970  -15.2400 O.2   409  ASP409     -0.2867
    174  CB        30.9690  -33.4600  -14.4240 C.3   409  ASP409      0.1410
    175  CG        32.2450  -33.1500  -13.6740 C.2   409  ASP409      0.3668
    176  OD1       32.1690  -32.8680  -12.4590 O.co2 409  ASP409     -0.2456
    177  OD2       33.3250  -33.1870  -14.3000 O.co2 409  ASP409     -0.2456
    178  N         27.4170  -27.0570  -16.2810 N.3   420  ILE420     -0.1245
    179  CA        27.6070  -28.0470  -15.2140 C.3   420  ILE420      0.1561
    180  C         26.6630  -27.7490  -14.0510 C.2   420  ILE420      0.2260
    181  O         26.5920  -26.6170  -13.5710 O.2   420  ILE420     -0.2867
    182  CB        29.0830  -28.1390  -14.7400 C.3   420  ILE420      0.0252
    183  CG1       29.9920  -28.6320  -15.8760 C.3   420  ILE420      0.0019
    184  CG2       29.2270  -29.0460  -13.5180 C.3   420  ILE420      0.0019
    185  CD1       29.6500  -30.0010  -16.4270 C.3   420  ILE420      0.0001
    186  N         28.1650  -32.7790   -9.4600 N.3   423  ARG423     -0.1245
    187  CA        28.9510  -33.9940   -9.6360 C.3   423  ARG423      0.1563
    188  C         28.1310  -35.2070   -9.1900 C.2   423  ARG423      0.2260
    189  O         27.3870  -35.1300   -8.2070 O.2   423  ARG423     -0.2867
    190  CB        30.2680  -33.8920   -8.8570 C.3   423  ARG423      0.0307
    191  CG        31.2290  -35.0380   -9.1240 C.3   423  ARG423      0.0489
    192  CD        32.6860  -34.6450   -8.9510 C.3   423  ARG423      0.2205
    193  NE        33.5610  -35.7780   -9.2490 N.pl3 423  ARG423     -0.0865
    194  CZ        34.0640  -36.0530  -10.4500 C.cat 423  ARG423      0.5346
    195  NH1       33.7980  -35.2710  -11.4900 N.pl3 423  ARG423      0.1354
    196  NH2       34.8430  -37.1130  -10.6100 N.pl3 423  ARG423      0.1354
    197  N         41.9100  -29.4700   -2.4040 N.3   517  THR517     -0.1218
    198  CA        42.8730  -29.7880   -3.4530 C.3   517  THR517      0.1862
    199  C         43.9100  -28.6690   -3.5040 C.2   517  THR517      0.2287
    200  O         43.7280  -27.6190   -2.8820 O.2   517  THR517     -0.2866
    201  CB        42.2020  -29.9060   -4.8360 C.3   517  THR517      0.1770
    202  OG1       41.5510  -28.6710   -5.1580 O.3   517  THR517     -0.2211
    203  CG2       41.1830  -31.0390   -4.8580 C.3   517  THR517      0.0375
    204  N         44.4500  -26.5350   -5.6510 N.3   519  ILE519     -0.1245
    205  CA        43.8810  -25.3040   -6.2040 C.3   519  ILE519      0.1561
    206  C         42.8560  -24.6200   -5.2900 C.2   519  ILE519      0.2260
    207  O         42.3430  -23.5480   -5.6210 O.2   519  ILE519     -0.2867
    208  CB        43.2910  -25.5260   -7.6200 C.3   519  ILE519      0.0252
    209  CG1       42.0500  -26.4270   -7.5840 C.3   519  ILE519      0.0019
    210  CG2       44.3630  -26.0670   -8.5580 C.3   519  ILE519      0.0019
    211  CD1       41.1920  -26.3370   -8.8310 C.3   519  ILE519      0.0001
    212  N         39.9520  -26.1510   -3.9800 N.3   521  LYS521     -0.1245
    213  CA        38.6070  -26.7130   -4.0720 C.3   521  LYS521      0.1561
    214  C         38.3490  -27.6220   -2.8750 C.2   521  LYS521      0.2260
    215  O         39.1080  -28.5680   -2.6330 O.2   521  LYS521     -0.2867
    216  CB        38.4390  -27.5070   -5.3690 C.3   521  LYS521      0.0271
    217  CG        36.9920  -27.8320   -5.7260 C.3   521  LYS521      0.0035
    218  CD        36.8390  -29.2180   -6.3430 C.3   521  LYS521      0.0206
    219  CE        37.7620  -29.4400   -7.5320 C.3   521  LYS521      0.1093
    220  NZ        37.7620  -30.8490   -8.0100 N.3   521  LYS521     -0.1314
@<TRIPOS>BOND
     1   147   149   ar
     2   147   146   ar
     3   144   143    2
     4   149   150   ar
     5   145   146    1
     6   145   142    1
     7   146   148   ar
     8   141   142    1
     9   143   142    1
    10   150   148   ar
    11   150   152   ar
    12   148   151   ar
    13   140   139    2
    14   152   154   ar
    15   139   138    1
    16   158   157    2
    17   151   153   ar
    18   157   156    1
    19    37    35   ar
    20    37    39   ar
    21   154   153   ar
    22    35    34   ar
    23    32    31    2
    24   125   124    2
    25   138   137    1
    26    39    38   ar
    27    30    31    1
    28    30    29    1
    29    30    33    1
    30   137   133   am
    31   156   155    1
    32   156   159    1
    33   134   133    2
    34   103   102    2
    35    34    33    1
    36    34    36   ar
    37   124   123    1
    38   133   132    1
    39   136   135    1
    40   159   160    1
    41    99    96    1
    42   131   132    1
    43   107   109   ar
    44   107   105   ar
    45    38    36   ar
    46   100   101    1
    47   100    97   am
    48    96    97    1
    49    96    95    1
    50   104   101    1
    51   104   105    1
    52    60    58    1
    53   102   101    1
    54   102   111   am
    55   169   167    1
    56   132   135    1
    57   109   110   ar
    58   123   126    1
    59   123   122    1
    60   105   106   ar
    61   126   127    1
    62    97    98    2
    63   112   111    1
    64   112   113    1
    65   118   117    2
    66   160   161    1
    67   160   162    1
    68   163   164    1
    69    58    59    1
    70    58    55    1
    71   122   117   am
    72   110   108   ar
    73   167   168    1
    74   167   164    1
    75   117   116    1
    76    24    22    1
    77   127   128    1
    78   106   108   ar
    79    54    55    1
    80   113   114    2
    81    21    20    2
    82    55    56    1
    83   164   165    1
    84   185   183    1
    85   178   179    1
    86    28    27    2
    87   183   182    1
    88   116   115    1
    89   116   119    1
    90    20    19    1
    91    20    25   am
    92   128   129   ar
    93   128   130   ar
    94    27    26    1
    95    22    23    1
    96    22    19    1
    97   173   172    2
    98    26    25    1
    99   179   182    1
   100   179   180    1
   101    65    62    1
   102    56    57    2
   103   165   166    2
   104    19    18    1
   105   182   184    1
   106    44    45    1
   107    44    41    1
   108   121   119    1
   109    40    41    1
   110   174   171    1
   111   174   175    1
   112   172   171    1
   113   119   120    1
   114   177   175   ar
   115   180   181    2
   116    45    46   ar
   117    45    47   ar
   118    41    42    1
   119   170   171    1
   120    46    48   ar
   121    62    61    1
   122    62    63    1
   123   175   176   ar
   124    47    50   ar
   125    47    49   ar
   126    50    52   ar
   127    18    10   am
   128    11    10    2
   129    48    49   ar
   130    94    92    1
   131    49    51   ar
   132    52    53   ar
   133    10     9    1
   134    93    92    1
   135    63    66   am
   136    63    64    2
   137    66    67    1
   138    42    43    2
   139    92    89    1
   140    51    53   ar
   141    16    14   ar
   142    16    17   ar
   143    14    13   ar
   144    87    85   am
   145    67    68    1
   146   195   194    1
   147     6     5    1
   148     9     8    1
   149     9    12    1
   150    89    88    1
   151    89    90    1
   152    17    15   ar
   153    73    72    2
   154    88    81   am
   155    91    90    2
   156    86    85    2
   157    13    12    1
   158    13    15   ar
   159    85    84    1
   160   196   194    1
   161    70    68   am
   162    70    71    1
   163   194   193    2
   164    68    69    2
   165     5     7    1
   166     5     2    1
   167    72    71    1
   168    72    79   am
   169    80    81    1
   170    80    79    1
   171    80    83    1
   172     1     2    1
   173    81    82    2
   174   187   186    1
   175   187   188    1
   176   187   190    1
   177    84    83    1
   178    71    74    1
   179     2     3    1
   180   193   192    1
   181   188   189    2
   182   191   192    1
   183   191   190    1
   184   211   209    1
   185   210   208    1
   186    74    75    1
   187   220   219    1
   188     3     4    2
   189   208   209    1
   190   208   205    1
   191   219   218    1
   192    75    76    1
   193   218   217    1
   194   205   204    1
   195   205   206    1
   196    76    78   ar
   197    76    77   ar
   198   217   216    1
   199   207   206    2
   200   216   213    1
   201   202   201    1
   202   203   201    1
   203   201   198    1
   204   213   212    1
   205   213   214    1
   206   199   198    1
   207   199   200    2
   208   198   197    1
   209   214   215    2
