@<TRIPOS>MOLECULE
tmp/4r0qB01.pdb
 78 76 0 0 0
SMALL
GASTEIGER

@<TRIPOS>ATOM
      1  N        -39.8020   24.7920    3.2160 N.3   210  VAL210     -0.1245
      2  CA       -38.9520   25.9230    3.6300 C.3   210  VAL210      0.1561
      3  C        -37.6730   25.4120    4.2930 C.2   210  VAL210      0.2260
      4  O        -36.5880   25.9110    4.0720 O.2   210  VAL210     -0.2867
      5  CB       -39.7250   26.8850    4.5750 C.3   210  VAL210      0.0252
      6  CG1      -38.8180   27.9470    5.2130 C.3   210  VAL210      0.0019
      7  CG2      -40.8430   27.5650    3.7840 C.3   210  VAL210      0.0019
      8  N        -33.8830   26.2150    3.0220 N.3   214  ARG214     -0.1245
      9  CA       -32.8870   26.7930    3.8910 C.3   214  ARG214      0.1563
     10  C        -31.6600   25.9240    4.0710 C.2   214  ARG214      0.2260
     11  O        -30.5370   26.4070    4.1080 O.2   214  ARG214     -0.2867
     12  CB       -33.4980   27.0710    5.2480 C.3   214  ARG214      0.0307
     13  CG       -34.4800   28.2370    5.2420 C.3   214  ARG214      0.0489
     14  CD       -35.0690   28.4620    6.6340 C.3   214  ARG214      0.2205
     15  NE       -34.0240   28.8620    7.5580 N.pl3 214  ARG214     -0.0865
     16  CZ       -33.4930   30.1000    7.6570 C.cat 214  ARG214      0.5346
     17  NH1      -33.8810   31.1060    6.8930 N.pl3 214  ARG214      0.1354
     18  NH2      -32.5540   30.3400    8.5450 N.pl3 214  ARG214      0.1354
     19  N        -31.9430   32.0640    2.8340 N.3   219  GLY219     -0.1225
     20  CA       -31.8110   32.8520    4.0540 C.3   219  GLY219      0.1811
     21  C        -30.3560   33.1080    4.4590 C.2   219  GLY219      0.2280
     22  O        -30.1310   33.8520    5.3840 O.2   219  GLY219     -0.2866
     23  N        -29.3220   37.2190    0.2190 N.3   230  PRO230     -0.2102
     24  CA       -29.9290   35.9340    0.5150 C.3   230  PRO230      0.1504
     25  C        -31.1470   35.6270   -0.2950 C.2   230  PRO230      0.2576
     26  O        -31.9340   36.4890   -0.5790 O.2   230  PRO230     -0.2718
     27  CB       -30.3670   36.0520    2.0000 C.3   230  PRO230      0.0282
     28  CG       -29.4920   37.1280    2.5450 C.3   230  PRO230      0.0208
     29  CD       -29.2870   38.1050    1.4000 C.3   230  PRO230      0.0893
     30  N        -31.3220   34.3550   -0.6150 N.am  231  SER231     -0.1938
     31  CA       -32.5210   33.9120   -1.2750 C.3   231  SER231      0.2055
     32  C        -33.6040   33.7520   -0.2400 C.2   231  SER231      0.2642
     33  O        -33.3230   33.4960    0.9520 O.2   231  SER231     -0.2714
     34  CB       -32.2360   32.6360   -2.0690 C.3   231  SER231      0.2130
     35  OG       -31.2750   32.9340   -3.1200 O.3   231  SER231     -0.2179
     36  N        -34.8550   33.9530   -0.6620 N.am  232  LEU232     -0.1977
     37  CA       -35.9240   34.0820    0.3100 C.3   232  LEU232      0.1596
     38  C        -37.0530   33.0810    0.1950 C.2   232  LEU232      0.2287
     39  O        -37.5050   32.7840   -0.9030 O.2   232  LEU232     -0.2864
     40  CB       -36.5680   35.4690    0.1720 C.3   232  LEU232      0.0297
     41  CG       -35.6290   36.6600    0.1550 C.3   232  LEU232      0.0022
     42  CD1      -36.4830   37.9090   -0.0490 C.3   232  LEU232      0.0001
     43  CD2      -34.8820   36.7410    1.4720 C.3   232  LEU232      0.0001
     44  N        -40.9790   32.3080    2.4020 N.3   233  PRO233     -0.2102
     45  CA       -41.8460   32.8240    3.4480 C.3   233  PRO233      0.1504
     46  C        -41.6450   32.1870    4.8030 C.2   233  PRO233      0.2576
     47  O        -40.9300   31.1770    4.9430 O.2   233  PRO233     -0.2718
     48  CB       -43.2320   32.4250    2.9730 C.3   233  PRO233      0.0282
     49  CG       -43.1130   32.0700    1.5510 C.3   233  PRO233      0.0208
     50  CD       -41.7300   31.5480    1.3960 C.3   233  PRO233      0.0893
     51  N        -42.3300   32.7630    5.7890 N.am  234  ASN234     -0.1961
     52  CA       -42.5710   32.1350    7.0470 C.3   234  ASN234      0.1804
     53  C        -43.5910   31.0260    6.7880 C.2   234  ASN234      0.2463
     54  O        -44.6930   31.3070    6.3330 O.2   234  ASN234     -0.2730
     55  CB       -43.1340   33.1540    8.0560 C.3   234  ASN234      0.1195
     56  CG       -43.4880   32.5190    9.3940 C.2   234  ASN234      0.2630
     57  OD1      -43.7610   31.3310    9.4910 O.2   234  ASN234     -0.2716
     58  ND2      -43.5610   33.3390   10.4250 N.am  234  ASN234     -0.0877
     59  N        -43.2240   29.7610    7.0290 N.am  235  PRO235     -0.2727
     60  CA       -44.1190   28.6540    6.6590 C.3   235  PRO235      0.1402
     61  C        -45.5330   28.7650    7.2460 C.2   235  PRO235      0.2269
     62  O        -46.5150   28.4050    6.5990 O.2   235  PRO235     -0.2865
     63  CB       -43.3860   27.3980    7.1820 C.3   235  PRO235      0.0296
     64  CG       -42.3490   27.9000    8.1240 C.3   235  PRO235      0.0237
     65  CD       -41.9890   29.2880    7.6690 C.3   235  PRO235      0.0939
     66  N        -44.3970   38.1790    5.6700 N.3   256  SER256     -0.1203
     67  CA       -43.0780   37.6740    5.2660 C.3   256  SER256      0.2008
     68  C        -42.9580   37.7030    3.7380 C.2   256  SER256      0.2498
     69  O        -43.9450   37.8250    3.0230 O.2   256  SER256     -0.2729
     70  CB       -42.9000   36.2520    5.8130 C.3   256  SER256      0.2103
     71  OG       -43.8710   35.3600    5.2550 O.3   256  SER256     -0.2182
     72  N        -41.7440   37.6270    3.2120 N.am  257  PRO257     -0.2505
     73  CA       -41.6030   37.6790    1.7430 C.3   257  PRO257      0.1487
     74  C        -42.3260   36.5360    1.0340 C.2   257  PRO257      0.2276
     75  O        -42.4190   35.4250    1.5890 O.2   257  PRO257     -0.2865
     76  CB       -40.1080   37.4900    1.5040 C.3   257  PRO257      0.0556
     77  CG       -39.4500   37.5210    2.8320 C.2   257  PRO257     -0.0078
     78  CD       -40.4640   37.5660    3.9270 C.2   257  PRO257      0.0634
@<TRIPOS>BOND
     1    35    34    1
     2    34    31    1
     3    31    30    1
     4    31    32    1
     5    39    38    2
     6    36    32   am
     7    36    37    1
     8    30    25   am
     9    26    25    2
    10    25    24    1
    11    32    33    2
    12    42    41    1
    13    41    40    1
    14    41    43    1
    15    40    37    1
    16    38    37    1
    17    23    24    1
    18    23    29    1
    19    24    27    1
    20    74    75    2
    21    74    73    1
    22    50    49    1
    23    50    44    1
    24    29    28    1
    25    76    73    1
    26    76    77    1
    27    49    48    1
    28    73    72    1
    29    27    28    1
    30    44    45    1
    31    77    78    2
    32    19    20    1
    33    48    45    1
    34     8     9    1
    35    69    68    2
    36    72    68   am
    37    72    78    1
    38     1     2    1
    39    45    46    1
    40     2     3    1
    41     2     5    1
    42    68    67    1
    43     7     5    1
    44     9    10    1
    45     9    12    1
    46    20    21    1
    47    10    11    2
    48     4     3    2
    49    21    22    2
    50     5     6    1
    51    46    47    2
    52    46    51   am
    53    13    12    1
    54    13    14    1
    55    71    70    1
    56    67    66    1
    57    67    70    1
    58    51    52    1
    59    54    53    2
    60    62    61    2
    61    14    15    1
    62    60    59    1
    63    60    63    1
    64    60    61    1
    65    53    59   am
    66    53    52    1
    67    17    16    1
    68    59    65    1
    69    52    55    1
    70    63    64    1
    71    15    16    2
    72    16    18    1
    73    65    64    1
    74    55    56    1
    75    56    57    2
    76    56    58   am
