@<TRIPOS>MOLECULE
tmp/4r0qB00.pdb
 146 139 0 0 0
SMALL
GASTEIGER

@<TRIPOS>ATOM
      1  N        -38.6580   29.7530  -10.9580 N.3   138  GLY138     -0.1210
      2  CA       -39.5200   28.8990  -11.7380 C.3   138  GLY138      0.1956
      3  C        -39.1320   27.4400  -11.4930 C.2   138  GLY138      0.2612
      4  O        -38.7560   27.0440  -10.3720 O.2   138  GLY138     -0.2717
      5  N        -39.1970   26.6560  -12.5400 N.am  139  SER139     -0.1952
      6  CA       -39.1540   25.2010  -12.4050 C.3   139  SER139      0.1924
      7  C        -37.7760   24.7230  -12.0080 C.2   139  SER139      0.2314
      8  O        -37.6300   23.5840  -11.5820 O.2   139  SER139     -0.2863
      9  CB       -39.6120   24.5240  -13.7140 C.3   139  SER139      0.2116
     10  OG       -40.9670   24.8400  -13.9940 O.3   139  SER139     -0.2180
     11  N        -51.6820   24.7920  -13.2650 N.3   174  HIS174     -0.1241
     12  CA       -51.7420   24.2900  -14.6220 C.3   174  HIS174      0.1621
     13  C        -50.3810   23.9160  -15.1730 C.2   174  HIS174      0.2264
     14  O        -49.3790   24.5520  -14.8930 O.2   174  HIS174     -0.2867
     15  CB       -52.3220   25.3440  -15.5190 C.3   174  HIS174      0.0745
     16  CG       -51.5210   26.6010  -15.5460 C.ar  174  HIS174      0.0817
     17  ND1      -51.8010   27.6770  -14.7300 N.ar  174  HIS174     -0.2268
     18  CD2      -50.4220   26.9460  -16.2670 C.ar  174  HIS174      0.1154
     19  CE1      -50.9150   28.6380  -14.9570 C.ar  174  HIS174      0.1986
     20  NE2      -50.0710   28.2210  -15.8870 N.ar  174  HIS174     -0.2212
     21  N        -47.8850   23.7130  -18.3980 N.3   176  TYR176     -0.1241
     22  CA       -47.6250   24.4770  -19.5970 C.3   176  TYR176      0.1605
     23  C        -48.6010   24.0780  -20.6820 C.2   176  TYR176      0.2264
     24  O        -48.8040   22.8990  -20.9160 O.2   176  TYR176     -0.2867
     25  CB       -46.1930   24.2380  -20.0920 C.3   176  TYR176      0.0534
     26  CG       -45.9090   25.0040  -21.3500 C.ar  176  TYR176     -0.0201
     27  CD1      -46.0200   26.3940  -21.3670 C.ar  176  TYR176     -0.0009
     28  CD2      -45.5740   24.3550  -22.5380 C.ar  176  TYR176     -0.0009
     29  CE1      -45.7910   27.1240  -22.5260 C.ar  176  TYR176      0.0417
     30  CE2      -45.3420   25.0780  -23.7030 C.ar  176  TYR176      0.0417
     31  CZ       -45.4560   26.4570  -23.6840 C.ar  176  TYR176      0.1957
     32  OH       -45.2390   27.1900  -24.8230 O.3   176  TYR176     -0.2866
     33  N        -40.2700   16.3690  -17.6740 N.3   191  ARG191     -0.1231
     34  CA       -41.1380   17.1840  -18.5200 C.3   191  ARG191      0.1694
     35  C        -41.6070   18.4320  -17.8080 C.2   191  ARG191      0.2592
     36  O        -42.3900   19.1740  -18.3540 O.2   191  ARG191     -0.2718
     37  CB       -42.3450   16.3730  -18.9960 C.3   191  ARG191      0.0321
     38  CG       -41.8990   15.1950  -19.8680 C.3   191  ARG191      0.0489
     39  CD       -43.0170   14.2170  -20.2050 C.3   191  ARG191      0.2205
     40  NE       -44.1540   14.8250  -20.9090 N.pl3 191  ARG191     -0.0865
     41  CZ       -45.2420   14.1440  -21.2590 C.cat 191  ARG191      0.5346
     42  NH1      -46.2440   14.7430  -21.8680 N.pl3 191  ARG191      0.1354
     43  NH2      -45.3360   12.8570  -20.9780 N.pl3 191  ARG191      0.1354
     44  N        -41.1630   18.6260  -16.5710 N.am  192  SER192     -0.1952
     45  CA       -41.4990   19.8200  -15.8170 C.3   192  SER192      0.1924
     46  C        -43.0080   20.1410  -15.7290 C.2   192  SER192      0.2314
     47  O        -43.4020   21.2390  -15.9900 O.2   192  SER192     -0.2863
     48  CB       -40.7200   21.0270  -16.3500 C.3   192  SER192      0.2116
     49  OG       -40.4400   21.8990  -15.2430 O.3   192  SER192     -0.2180
     50  N        -46.0700   21.1430  -13.7550 N.3   194  ASN194     -0.1240
     51  CA       -46.4430   21.8860  -12.6000 C.3   194  ASN194      0.1653
     52  C        -47.4400   21.1640  -11.7230 C.2   194  ASN194      0.2266
     53  O        -47.3300   21.2080  -10.4940 O.2   194  ASN194     -0.2867
     54  CB       -47.0710   23.2410  -13.0270 C.3   194  ASN194      0.1155
     55  CG       -46.0590   24.1970  -13.6150 C.2   194  ASN194      0.2627
     56  OD1      -44.8850   24.2010  -13.2400 O.2   194  ASN194     -0.2716
     57  ND2      -46.5220   25.0280  -14.5450 N.am  194  ASN194     -0.0877
     58  N        -47.7740   26.5220   -5.6590 N.3   244  TRP244     -0.1241
     59  CA       -46.9980   27.2600   -6.6540 C.3   244  TRP244      0.1605
     60  C        -45.5670   27.4430   -6.2330 C.2   244  TRP244      0.2264
     61  O        -44.6710   27.3820   -7.0700 O.2   244  TRP244     -0.2867
     62  CB       -47.6290   28.5940   -6.9700 C.3   244  TRP244      0.0550
     63  CG       -48.6710   28.5170   -8.0200 C.ar  244  TRP244      0.0003
     64  CD1      -49.9830   28.9490   -7.9210 C.ar  244  TRP244      0.0946
     65  CD2      -48.5180   28.0490   -9.3680 C.ar  244  TRP244      0.0152
     66  NE1      -50.6390   28.7450   -9.1090 N.ar  244  TRP244     -0.2442
     67  CE2      -49.7700   28.2290  -10.0220 C.ar  244  TRP244      0.0810
     68  CE3      -47.4570   27.5020  -10.0880 C.ar  244  TRP244      0.0012
     69  CZ2      -49.9850   27.8500  -11.3430 C.ar  244  TRP244      0.0191
     70  CZ3      -47.6740   27.1410  -11.4160 C.ar  244  TRP244      0.0001
     71  CH2      -48.9280   27.2940  -12.0170 C.ar  244  TRP244      0.0015
     72  N        -43.3110   24.7960   -7.3540 N.3   247  CYS247     -0.1235
     73  CA       -42.9930   24.8930   -8.7710 C.3   247  CYS247      0.1677
     74  C        -42.1210   26.0940   -9.0240 C.2   247  CYS247      0.2270
     75  O        -41.8900   26.4150  -10.1670 O.2   247  CYS247     -0.2867
     76  CB       -44.2520   25.0320   -9.6280 C.3   247  CYS247      0.0956
     77  SG       -45.2920   23.6110   -9.3590 S.3   247  CYS247     -0.0801
     78  N        -42.6640   29.3880   -8.1100 N.3   249  LEU249     -0.1245
     79  CA       -43.3500   30.6480   -8.3310 C.3   249  LEU249      0.1561
     80  C        -43.8530   31.2600   -7.0210 C.2   249  LEU249      0.2260
     81  O        -44.6330   30.6390   -6.2920 O.2   249  LEU249     -0.2867
     82  CB       -44.5020   30.4540   -9.2870 C.3   249  LEU249      0.0270
     83  CG       -44.1080   30.0790  -10.7070 C.3   249  LEU249      0.0019
     84  CD1      -45.3470   30.1910  -11.6020 C.3   249  LEU249      0.0001
     85  CD2      -42.9910   30.9770  -11.2530 C.3   249  LEU249      0.0001
     86  N        -37.1150   18.4920  -20.9220 N.3   326  THR326     -0.1218
     87  CA       -37.0910   19.8850  -21.3010 C.3   326  THR326      0.1862
     88  C        -35.6950   20.4130  -21.4850 C.2   326  THR326      0.2287
     89  O        -35.5610   21.4930  -21.9810 O.2   326  THR326     -0.2866
     90  CB       -37.7100   20.7600  -20.2060 C.3   326  THR326      0.1770
     91  OG1      -37.0670   20.4560  -18.9540 O.3   326  THR326     -0.2211
     92  CG2      -39.1910   20.4820  -20.0980 C.3   326  THR326      0.0375
     93  N        -34.1760   22.7520  -15.8760 N.3   340  THR340     -0.1203
     94  CA       -34.5780   23.9620  -16.5490 C.3   340  THR340      0.1994
     95  C        -35.6860   24.6630  -15.8220 C.2   340  THR340      0.2618
     96  O        -36.3530   24.1010  -14.9490 O.2   340  THR340     -0.2717
     97  CB       -35.1730   23.6500  -17.9440 C.3   340  THR340      0.1784
     98  OG1      -36.2960   22.7420  -17.8040 O.3   340  THR340     -0.2211
     99  CG2      -34.1200   23.0380  -18.8420 C.3   340  THR340      0.0376
    100  N        -35.8830   25.9180  -16.1990 N.am  341  GLY341     -0.1942
    101  CA       -37.0900   26.6530  -15.8690 C.3   341  GLY341      0.2014
    102  C        -37.3500   27.8490  -16.7770 C.2   341  GLY341      0.2640
    103  O        -36.4490   28.3350  -17.4650 O.2   341  GLY341     -0.2714
    104  N        -38.6050   28.2910  -16.7550 N.am  342  THR342     -0.1936
    105  CA       -39.0690   29.4410  -17.4890 C.3   342  THR342      0.2028
    106  C        -40.0610   30.1910  -16.5790 C.2   342  THR342      0.2642
    107  O        -41.0230   29.6120  -16.0680 O.2   342  THR342     -0.2714
    108  CB       -39.7520   29.0340  -18.8160 C.3   342  THR342      0.1808
    109  OG1      -38.8980   28.1680  -19.5810 O.3   342  THR342     -0.2208
    110  CG2      -40.0120   30.2560  -19.6680 C.3   342  THR342      0.0379
    111  N        -39.8110   31.4730  -16.3480 N.am  343  ALA343     -0.1963
    112  CA       -40.6970   32.2770  -15.4950 C.3   343  ALA343      0.1728
    113  C        -41.2970   33.4080  -16.3070 C.2   343  ALA343      0.2616
    114  O        -40.5860   34.1100  -17.0100 O.2   343  ALA343     -0.2715
    115  CB       -39.9530   32.8570  -14.3040 C.3   343  ALA343      0.0334
    116  N        -42.6180   33.5300  -16.2320 N.am  344  ASP344     -0.1971
    117  CA       -43.3250   34.6100  -16.8730 C.3   344  ASP344      0.1709
    118  C        -43.0930   35.8100  -16.0080 C.2   344  ASP344      0.2293
    119  O        -43.5190   35.8550  -14.8790 O.2   344  ASP344     -0.2864
    120  CB       -44.8170   34.2940  -16.9630 C.3   344  ASP344      0.1436
    121  CG       -45.6170   35.4050  -17.6200 C.2   344  ASP344      0.3671
    122  OD1      -45.0810   36.5010  -17.9110 O.co2 344  ASP344     -0.2456
    123  OD2      -46.8180   35.1780  -17.8360 O.co2 344  ASP344     -0.2456
    124  N        -40.0620   36.8160  -20.5600 N.3   350  PHE350     -0.1241
    125  CA       -39.8360   35.5270  -19.9070 C.3   350  PHE350      0.1605
    126  C        -38.3400   35.3800  -19.6150 C.2   350  PHE350      0.2264
    127  O        -37.4840   35.8180  -20.4110 O.2   350  PHE350     -0.2867
    128  CB       -40.3330   34.3760  -20.7910 C.3   350  PHE350      0.0534
    129  CG       -41.7970   34.4660  -21.1500 C.ar  350  PHE350     -0.0203
    130  CD1      -42.2300   35.3060  -22.1670 C.ar  350  PHE350     -0.0042
    131  CD2      -42.7510   33.7290  -20.4530 C.ar  350  PHE350     -0.0042
    132  CE1      -43.5850   35.4060  -22.4840 C.ar  350  PHE350     -0.0003
    133  CE2      -44.1020   33.8130  -20.7680 C.ar  350  PHE350     -0.0003
    134  CZ       -44.5200   34.6590  -21.7770 C.ar  350  PHE350     -0.0000
    135  N        -37.4890   30.6310  -24.7610 N.3   379  LEU379     -0.1231
    136  CA       -37.8400   29.3210  -24.2040 C.3   379  LEU379      0.1693
    137  C        -36.6990   28.3510  -24.5150 C.2   379  LEU379      0.2592
    138  O        -36.3110   28.2280  -25.6520 O.2   379  LEU379     -0.2718
    139  CB       -39.1530   28.7860  -24.7870 C.3   379  LEU379      0.0284
    140  CG       -39.6800   27.4390  -24.2520 C.3   379  LEU379      0.0019
    141  CD1      -40.5960   27.6100  -23.0480 C.3   379  LEU379      0.0001
    142  CD2      -40.4180   26.6850  -25.3450 C.3   379  LEU379      0.0001
    143  N        -36.1370   27.7120  -23.4900 N.am  380  GLY380     -0.1957
    144  CA       -35.0840   26.7170  -23.6820 C.3   380  GLY380      0.1869
    145  C        -33.6910   27.2860  -23.8310 C.2   380  GLY380      0.2309
    146  O        -32.7420   26.5460  -23.9830 O.2   380  GLY380     -0.2863
@<TRIPOS>BOND
     1   138   137    2
     2   142   140    1
     3    32    31    1
     4   139   140    1
     5   139   136    1
     6   135   136    1
     7   137   136    1
     8   137   143   am
     9   140   141    1
    10   146   145    2
    11   145   144    1
    12    30    31   ar
    13    30    28   ar
    14    31    29   ar
    15   144   143    1
    16    28    26   ar
    17    29    27   ar
    18   132   130   ar
    19   132   134   ar
    20   130   129   ar
    21    89    88    2
    22    42    41    1
    23   134   133   ar
    24    88    87    1
    25    27    26   ar
    26    26    25    1
    27    87    86    1
    28    87    90    1
    29    41    43    1
    30    41    40    2
    31   129   128    1
    32   129   131   ar
    33    24    23    2
    34    40    39    1
    35   128   125    1
    36   133   131   ar
    37    23    22    1
    38   124   125    1
    39   127   126    2
    40    90    92    1
    41    90    91    1
    42    39    38    1
    43    25    22    1
    44   125   126    1
    45    38    37    1
    46   110   108    1
    47    22    21    1
    48   109   108    1
    49    37    34    1
    50    99    97    1
    51   108   105    1
    52    34    35    1
    53    34    33    1
    54    36    35    2
    55    97    98    1
    56    97    94    1
    57   122   121   ar
    58   123   121   ar
    59    35    44   am
    60   121   120    1
    61   105   104    1
    62   105   106    1
    63   103   102    2
    64   114   113    2
    65   120   117    1
    66   117   116    1
    67   117   118    1
    68   102   104   am
    69   102   101    1
    70   106   111   am
    71   106   107    2
    72    44    45    1
    73    94    93    1
    74    94    95    1
    75    48    45    1
    76    48    49    1
    77   111   112    1
    78   113   116   am
    79   113   112    1
    80    18    20   ar
    81    18    16   ar
    82   100   101    1
    83   100    95   am
    84   118   119    2
    85    47    46    2
    86    20    19   ar
    87    95    96    2
    88    45    46    1
    89    16    15    1
    90    16    17   ar
    91    15    12    1
    92   112   115    1
    93    13    14    2
    94    13    12    1
    95    19    17   ar
    96    12    11    1
    97    57    55   am
    98    10     9    1
    99    50    51    1
   100     9     6    1
   101    55    56    2
   102    55    54    1
   103    54    51    1
   104    51    52    1
   105     5     6    1
   106     5     3   am
   107     6     7    1
   108    71    70   ar
   109    71    69   ar
   110     7     8    2
   111     2     3    1
   112     2     1    1
   113    52    53    2
   114    84    83    1
   115     3     4    2
   116    70    68   ar
   117    69    67   ar
   118    85    83    1
   119    83    82    1
   120    75    74    2
   121    68    65   ar
   122    67    65   ar
   123    67    66   ar
   124    76    77    1
   125    76    73    1
   126    65    63   ar
   127    82    79    1
   128    66    64   ar
   129    74    73    1
   130    73    72    1
   131    79    78    1
   132    79    80    1
   133    63    64   ar
   134    63    62    1
   135    61    60    2
   136    80    81    2
   137    62    59    1
   138    59    60    1
   139    59    58    1
