@<TRIPOS>MOLECULE
tmp/4r12A00.pdb
 122 120 0 0 0
SMALL
GASTEIGER

@<TRIPOS>ATOM
      1  N        -10.3660   -8.5030   36.8620 N.3    39  ASP39      -0.1239
      2  CA       -10.1170   -9.2080   38.1110 C.3    39  ASP39       0.1674
      3  C        -10.7590  -10.5880   38.0810 C.2    39  ASP39       0.2266
      4  O        -10.2280  -11.5450   38.6580 O.2    39  ASP39      -0.2867
      5  CB       -10.6400   -8.3990   39.3020 C.3    39  ASP39       0.1410
      6  CG        -9.6470   -7.3600   39.7850 C.2    39  ASP39       0.3668
      7  OD1       -8.6140   -7.1670   39.1080 O.co2  39  ASP39      -0.2456
      8  OD2       -9.8940   -6.7330   40.8410 O.co2  39  ASP39      -0.2456
      9  N         -8.7050  -12.8900   35.9550 N.3    42  TYR42      -0.1227
     10  CA        -7.4760  -13.0620   36.7190 C.3    42  TYR42       0.1736
     11  C         -7.6650  -14.1620   37.7770 C.2    42  TYR42       0.2595
     12  O         -6.9300  -15.1500   37.7950 O.2    42  TYR42      -0.2718
     13  CB        -7.0400  -11.7510   37.3840 C.3    42  TYR42       0.0548
     14  CG        -5.6890  -11.8740   38.0500 C.ar   42  TYR42      -0.0200
     15  CD1       -5.5770  -12.3290   39.3550 C.ar   42  TYR42      -0.0009
     16  CD2       -4.5230  -11.5730   37.3590 C.ar   42  TYR42      -0.0009
     17  CE1       -4.3530  -12.4700   39.9570 C.ar   42  TYR42       0.0417
     18  CE2       -3.2870  -11.7100   37.9580 C.ar   42  TYR42       0.0417
     19  CZ        -3.2090  -12.1640   39.2560 C.ar   42  TYR42       0.1957
     20  OH        -1.9900  -12.3030   39.8700 O.3    42  TYR42      -0.2866
     21  N         -8.6580  -13.9870   38.6440 N.am   43  ASN43      -0.1974
     22  CA        -8.9400  -14.9650   39.6960 C.3    43  ASN43       0.1688
     23  C         -9.3270  -16.3420   39.1630 C.2    43  ASN43       0.2292
     24  O         -8.9800  -17.3620   39.7580 O.2    43  ASN43      -0.2864
     25  CB       -10.0500  -14.4530   40.6090 C.3    43  ASN43       0.1181
     26  CG        -9.6170  -13.2680   41.4410 C.2    43  ASN43       0.2629
     27  OD1       -8.4570  -13.1690   41.8550 O.2    43  ASN43      -0.2716
     28  ND2      -10.5490  -12.3570   41.6980 N.am   43  ASN43      -0.0877
     29  N         -2.9170   -3.7690   31.6390 N.3    61  ASN61      -0.1225
     30  CA        -3.1170   -3.3970   33.0410 C.3    61  ASN61       0.1785
     31  C         -2.7310   -4.5330   33.9910 C.2    61  ASN61       0.2597
     32  O         -2.4550   -4.3060   35.1690 O.2    61  ASN61      -0.2718
     33  CB        -4.5590   -2.9730   33.2970 C.3    61  ASN61       0.1169
     34  CG        -4.7430   -1.4600   33.2420 C.2    61  ASN61       0.2627
     35  OD1       -3.8110   -0.7180   32.9130 O.2    61  ASN61      -0.2716
     36  ND2       -5.9500   -0.9960   33.5630 N.am   61  ASN61      -0.0877
     37  N         -2.6910   -5.7530   33.4640 N.am   62  TYR62      -0.1976
     38  CA        -2.3220   -6.9160   34.2630 C.3    62  TYR62       0.1639
     39  C         -0.8970   -7.4110   34.0120 C.2    62  TYR62       0.2290
     40  O         -0.4880   -8.4460   34.5470 O.2    62  TYR62      -0.2864
     41  CB        -3.3380   -8.0320   34.0220 C.3    62  TYR62       0.0560
     42  CG        -4.6490   -7.6780   34.6580 C.ar   62  TYR62      -0.0198
     43  CD1       -5.5790   -6.8930   33.9890 C.ar   62  TYR62      -0.0009
     44  CD2       -4.9330   -8.0690   35.9580 C.ar   62  TYR62      -0.0009
     45  CE1       -6.7800   -6.5350   34.5890 C.ar   62  TYR62       0.0417
     46  CE2       -6.1190   -7.7190   36.5620 C.ar   62  TYR62       0.0417
     47  CZ        -7.0370   -6.9520   35.8790 C.ar   62  TYR62       0.1957
     48  OH        -8.2180   -6.6100   36.4940 O.3    62  TYR62      -0.2866
     49  N          2.5010   -6.7140   35.0360 N.3    64  ASN64      -0.1225
     50  CA         3.4150   -6.1530   36.0190 C.3    64  ASN64       0.1785
     51  C          3.9470   -7.2800   36.9440 C.2    64  ASN64       0.2598
     52  O          3.4090   -8.3280   36.9160 O.2    64  ASN64      -0.2718
     53  CB         2.7900   -4.9790   36.7880 C.3    64  ASN64       0.1169
     54  CG         1.7080   -5.3990   37.7660 C.2    64  ASN64       0.2627
     55  OD1        1.7900   -6.4430   38.3380 O.2    64  ASN64      -0.2716
     56  ND2        0.7010   -4.5540   37.9750 N.am   64  ASN64      -0.0877
     57  N          5.0110   -7.0590   37.7050 N.am   65  SER65      -0.1938
     58  CA         5.6380   -8.1360   38.4750 C.3    65  SER65       0.2055
     59  C          4.6390   -8.8470   39.3780 C.2    65  SER65       0.2644
     60  O          4.5050  -10.0630   39.3150 O.2    65  SER65      -0.2714
     61  CB         6.8160   -7.6120   39.3070 C.3    65  SER65       0.2130
     62  OG         6.4350   -6.5060   40.1060 O.3    65  SER65      -0.2179
     63  N          3.9240   -8.0820   40.1930 N.am   66  THR66      -0.1936
     64  CA         3.0280   -8.6600   41.1910 C.3    66  THR66       0.2028
     65  C          1.9750   -9.5560   40.5700 C.2    66  THR66       0.2642
     66  O          1.7300  -10.6750   41.0310 O.2    66  THR66      -0.2714
     67  CB         2.3280   -7.5560   42.0000 C.3    66  THR66       0.1808
     68  OG1        3.2620   -7.0000   42.9310 O.3    66  THR66      -0.2208
     69  CG2        1.1440   -8.1200   42.7650 C.3    66  THR66       0.0379
     70  N          1.3760   -9.0510   39.5010 N.am   67  SER67      -0.1949
     71  CA         0.2770   -9.7080   38.8270 C.3    67  SER67       0.1924
     72  C          0.7210  -10.9710   38.0830 C.2    67  SER67       0.2314
     73  O          0.0380  -11.9970   38.1210 O.2    67  SER67      -0.2863
     74  CB        -0.3850   -8.7080   37.8630 C.3    67  SER67       0.2116
     75  OG        -1.2600   -9.3540   36.9660 O.3    67  SER67      -0.2180
     76  N         -2.2060    3.4460   34.6870 N.3    90  TYR90      -0.1228
     77  CA        -1.4510    3.8820   35.8590 C.3    90  TYR90       0.1721
     78  C          0.0240    4.0300   35.5190 C.2    90  TYR90       0.2437
     79  O          0.4880    3.4440   34.5390 O.2    90  TYR90      -0.2733
     80  CB        -1.6440    2.8970   37.0170 C.3    90  TYR90       0.0547
     81  CG        -1.3370    1.4460   36.6990 C.ar   90  TYR90      -0.0200
     82  CD1       -0.0320    0.9560   36.7730 C.ar   90  TYR90      -0.0009
     83  CD2       -2.3590    0.5540   36.3730 C.ar   90  TYR90      -0.0009
     84  CE1        0.2560   -0.3830   36.5050 C.ar   90  TYR90       0.0417
     85  CE2       -2.0860   -0.7950   36.1080 C.ar   90  TYR90       0.0417
     86  CZ        -0.7700   -1.2520   36.1740 C.ar   90  TYR90       0.1957
     87  OH        -0.4830   -2.5740   35.9230 O.3    90  TYR90      -0.2866
     88  N          0.7770    4.8020   36.3260 N.am   91  PRO91      -0.2718
     89  CA         2.2140    4.9210   36.0520 C.3    91  PRO91       0.1535
     90  C          2.9190    3.5890   36.2810 C.2    91  PRO91       0.2598
     91  O          2.5600    2.8440   37.1940 O.2    91  PRO91      -0.2715
     92  CB         2.7010    5.9720   37.0660 C.3    91  PRO91       0.0310
     93  CG         1.4590    6.5510   37.6930 C.3    91  PRO91       0.0237
     94  CD         0.3880    5.5230   37.5520 C.3    91  PRO91       0.0939
     95  N          3.9160    3.2840   35.4590 N.am   92  TYR92      -0.1974
     96  CA         4.5650    1.9890   35.5670 C.3    92  TYR92       0.1639
     97  C          5.9930    1.9810   35.0250 C.2    92  TYR92       0.2290
     98  O          6.2300    2.4110   33.8960 O.2    92  TYR92      -0.2864
     99  CB         3.7320    0.9150   34.8270 C.3    92  TYR92       0.0560
    100  CG         4.4030   -0.4210   34.9140 C.ar   92  TYR92      -0.0198
    101  CD1        4.4850   -1.0760   36.1380 C.ar   92  TYR92      -0.0009
    102  CD2        5.0090   -1.0050   33.8050 C.ar   92  TYR92      -0.0009
    103  CE1        5.1220   -2.2730   36.2600 C.ar   92  TYR92       0.0417
    104  CE2        5.6560   -2.2340   33.9170 C.ar   92  TYR92       0.0417
    105  CZ         5.7060   -2.8540   35.1580 C.ar   92  TYR92       0.1957
    106  OH         6.3350   -4.0580   35.3280 O.3    92  TYR92      -0.2866
    107  N          8.8030    4.4740   41.7770 N.3   116  ASN116     -0.1240
    108  CA         7.6100    3.6980   41.4400 C.3   116  ASN116      0.1653
    109  C          7.9320    2.3440   40.7820 C.2   116  ASN116      0.2266
    110  O          7.0540    1.5040   40.6160 O.2   116  ASN116     -0.2867
    111  CB         6.7060    4.5250   40.5270 C.3   116  ASN116      0.1155
    112  CG         5.3540    3.8850   40.3060 C.2   116  ASN116      0.2627
    113  OD1        4.9570    3.6260   39.1680 O.2   116  ASN116     -0.2716
    114  ND2        4.6390    3.6170   41.3930 N.am  116  ASN116     -0.0877
    115  N          9.0450   -1.3800   39.5960 N.3   118  ASP118     -0.1239
    116  CA         8.9250   -2.7040   40.2090 C.3   118  ASP118      0.1674
    117  C         10.0120   -3.6770   39.7240 C.2   118  ASP118      0.2266
    118  O         10.0230   -4.8500   40.1090 O.2   118  ASP118     -0.2867
    119  CB         7.5130   -3.2740   39.9840 C.3   118  ASP118      0.1410
    120  CG         7.2850   -3.8250   38.5730 C.2   118  ASP118      0.3668
    121  OD1        8.1380   -3.6570   37.6710 O.co2 118  ASP118     -0.2456
    122  OD2        6.2120   -4.4300   38.3710 O.co2 118  ASP118     -0.2456
@<TRIPOS>BOND
     1    29    30    1
     2    35    34    2
     3    30    33    1
     4    30    31    1
     5    34    33    1
     6    34    36   am
     7    37    31   am
     8    37    38    1
     9   102   104   ar
    10   102   100   ar
    11    98    97    2
    12   104   105   ar
    13    43    45   ar
    14    43    42   ar
    15    31    32    2
    16    39    38    1
    17    39    40    2
    18    41    38    1
    19    41    42    1
    20    79    78    2
    21    45    47   ar
    22    42    44   ar
    23    76    77    1
    24    99   100    1
    25    99    96    1
    26   100   101   ar
    27    97    96    1
    28    49    50    1
    29   105   106    1
    30   105   103   ar
    31    95    96    1
    32    95    90   am
    33    78    77    1
    34    78    88   am
    35    77    80    1
    36    47    48    1
    37    47    46   ar
    38    87    86    1
    39     9    10    1
    40    44    46   ar
    41    50    53    1
    42    50    51    1
    43    89    90    1
    44    89    88    1
    45    89    92    1
    46    85    86   ar
    47    85    83   ar
    48   101   103   ar
    49    86    84   ar
    50    90    91    2
    51    88    94    1
    52    83    81   ar
    53    84    82   ar
    54    81    82   ar
    55    81    80    1
    56    10    13    1
    57    10    11    1
    58    53    54    1
    59     1     2    1
    60    52    51    2
    61    51    57   am
    62    75    74    1
    63    92    93    1
    64    16    18   ar
    65    16    14   ar
    66    13    14    1
    67    94    93    1
    68   121   120   ar
    69    57    58    1
    70    54    56   am
    71    54    55    2
    72    11    12    2
    73    11    21   am
    74    74    71    1
    75    18    19   ar
    76    14    15   ar
    77     3     2    1
    78     3     4    2
    79    72    73    2
    80    72    71    1
    81     2     5    1
    82   122   120   ar
    83    58    61    1
    84    58    59    1
    85   120   119    1
    86    21    22    1
    87    71    70    1
    88     7     6   ar
    89    23    22    1
    90    23    24    2
    91   113   112    2
    92    19    20    1
    93    19    17   ar
    94     5     6    1
    95    61    62    1
    96    60    59    2
    97    15    17   ar
    98    59    63   am
    99    70    65   am
   100   115   116    1
   101    22    25    1
   102   117   118    2
   103   117   116    1
   104     6     8   ar
   105   119   116    1
   106    63    64    1
   107   112   111    1
   108   112   114   am
   109   111   108    1
   110    65    66    2
   111    65    64    1
   112    25    26    1
   113   110   109    2
   114   109   108    1
   115    64    67    1
   116   108   107    1
   117    26    28   am
   118    26    27    2
   119    67    69    1
   120    67    68    1
