@<TRIPOS>MOLECULE
tmp/4r1gB00.pdb
 177 169 0 0 0
SMALL
GASTEIGER

@<TRIPOS>ATOM
      1  N        -38.3930   30.0130  -10.7910 N.3   145  GLY145     -0.1210
      2  CA       -39.2630   29.1970  -11.6120 C.3   145  GLY145      0.1956
      3  C        -38.9010   27.7320  -11.3750 C.2   145  GLY145      0.2612
      4  O        -38.4830   27.3130  -10.2460 O.2   145  GLY145     -0.2717
      5  N        -39.0410   26.9510  -12.4170 N.am  146  SER146     -0.1952
      6  CA       -38.9280   25.5070  -12.3220 C.3   146  SER146      0.1924
      7  C        -37.5420   25.0030  -11.9280 C.2   146  SER146      0.2314
      8  O        -37.4360   23.8650  -11.5410 O.2   146  SER146     -0.2863
      9  CB       -39.3190   24.8430  -13.6510 C.3   146  SER146      0.2116
     10  OG       -40.6930   25.1080  -13.8840 O.3   146  SER146     -0.2180
     11  N        -51.3760   25.1830  -12.9630 N.3   181  HIS181     -0.1226
     12  CA       -51.4170   24.7590  -14.3370 C.3   181  HIS181      0.1752
     13  C        -50.0570   24.2760  -14.7730 C.2   181  HIS181      0.2596
     14  O        -49.0200   24.9080  -14.4720 O.2   181  HIS181     -0.2718
     15  CB       -51.7680   25.9460  -15.2340 C.3   181  HIS181      0.0759
     16  CG       -53.2080   26.3540  -15.1970 C.ar  181  HIS181      0.0818
     17  ND1      -54.2150   25.6140  -15.7930 N.ar  181  HIS181     -0.2268
     18  CD2      -53.8040   27.4700  -14.7080 C.ar  181  HIS181      0.1154
     19  CE1      -55.3740   26.2380  -15.6380 C.ar  181  HIS181      0.1986
     20  NE2      -55.1520   27.3680  -14.9860 N.ar  181  HIS181     -0.2212
     21  N        -50.0520   23.1800  -15.5190 N.am  182  ASN182     -0.1960
     22  CA       -48.8890   22.8870  -16.3290 C.3   182  ASN182      0.1819
     23  C        -48.7620   23.9510  -17.4140 C.2   182  ASN182      0.2621
     24  O        -49.7590   24.5130  -17.8700 O.2   182  ASN182     -0.2715
     25  CB       -48.9890   21.5070  -16.9730 C.3   182  ASN182      0.1195
     26  CG       -48.6320   20.3770  -16.0050 C.2   182  ASN182      0.2630
     27  OD1      -47.9710   20.5990  -15.0020 O.2   182  ASN182     -0.2716
     28  ND2      -49.0570   19.1660  -16.3190 N.am  182  ASN182     -0.0877
     29  N        -47.5260   24.2150  -17.8150 N.am  183  TYR183     -0.1960
     30  CA       -47.2270   25.0440  -18.9590 C.3   183  TYR183      0.1771
     31  C        -48.0500   24.6040  -20.1290 C.2   183  TYR183      0.2619
     32  O        -48.1430   23.4120  -20.3800 O.2   183  TYR183     -0.2715
     33  CB       -45.7600   24.9050  -19.3240 C.3   183  TYR183      0.0574
     34  CG       -45.3640   25.7550  -20.5000 C.ar  183  TYR183     -0.0198
     35  CD1      -45.6000   27.1300  -20.4930 C.ar  183  TYR183     -0.0009
     36  CD2      -44.7830   25.1920  -21.6320 C.ar  183  TYR183     -0.0009
     37  CE1      -45.2550   27.9230  -21.5780 C.ar  183  TYR183      0.0417
     38  CE2      -44.4350   25.9710  -22.7200 C.ar  183  TYR183      0.0417
     39  CZ       -44.6660   27.3350  -22.6770 C.ar  183  TYR183      0.1957
     40  OH       -44.3150   28.1230  -23.7380 O.3   183  TYR183     -0.2866
     41  N        -48.6300   25.5650  -20.8440 N.am  184  ALA184     -0.1963
     42  CA       -49.5550   25.3080  -21.9660 C.3   184  ALA184      0.1728
     43  C        -50.7580   24.4570  -21.5870 C.2   184  ALA184      0.2616
     44  O        -51.3760   23.8540  -22.4550 O.2   184  ALA184     -0.2715
     45  CB       -48.8130   24.6650  -23.1250 C.3   184  ALA184      0.0334
     46  N        -51.0960   24.4050  -20.3010 N.am  185  ASN185     -0.1972
     47  CA       -52.0700   23.4310  -19.7870 C.3   185  ASN185      0.1688
     48  C        -51.9230   21.9950  -20.3030 C.2   185  ASN185      0.2292
     49  O        -52.9140   21.2820  -20.5080 O.2   185  ASN185     -0.2864
     50  CB       -53.4800   23.9030  -20.0630 C.3   185  ASN185      0.1181
     51  CG       -53.7660   25.2250  -19.4290 C.2   185  ASN185      0.2629
     52  OD1      -53.1820   25.5790  -18.4140 O.2   185  ASN185     -0.2716
     53  ND2      -54.6640   25.9790  -20.0330 N.am  185  ASN185     -0.0877
     54  N        -39.9800   16.6590  -17.5300 N.3   198  ARG198     -0.1231
     55  CA       -40.8870   17.4730  -18.3340 C.3   198  ARG198      0.1694
     56  C        -41.3110   18.7520  -17.6280 C.2   198  ARG198      0.2592
     57  O        -42.0310   19.5420  -18.1940 O.2   198  ARG198     -0.2718
     58  CB       -42.1030   16.6290  -18.7070 C.3   198  ARG198      0.0321
     59  CG       -41.7090   15.4860  -19.6380 C.3   198  ARG198      0.0489
     60  CD       -42.8540   14.5140  -19.9060 C.3   198  ARG198      0.2205
     61  NE       -43.9410   15.1030  -20.6890 N.pl3 198  ARG198     -0.0865
     62  CZ       -45.0640   14.4530  -21.0170 C.cat 198  ARG198      0.5346
     63  NH1      -46.0260   15.0590  -21.7130 N.pl3 198  ARG198      0.1354
     64  NH2      -45.2310   13.1990  -20.6540 N.pl3 198  ARG198      0.1354
     65  N        -40.8810   18.9180  -16.3720 N.am  199  SER199     -0.1952
     66  CA       -41.1890   20.0640  -15.5420 C.3   199  SER199      0.1924
     67  C        -42.7110   20.3320  -15.3730 C.2   199  SER199      0.2314
     68  O        -43.1830   21.4570  -15.5930 O.2   199  SER199     -0.2863
     69  CB       -40.4450   21.3250  -16.0440 C.3   199  SER199      0.2116
     70  OG       -40.1730   22.2000  -14.9210 O.3   199  SER199     -0.2180
     71  N        -45.8070   21.4160  -13.4580 N.3   201  ASN201     -0.1240
     72  CA       -46.1640   22.1410  -12.2430 C.3   201  ASN201      0.1653
     73  C        -47.1450   21.3970  -11.3870 C.2   201  ASN201      0.2266
     74  O        -47.0470   21.3880  -10.1400 O.2   201  ASN201     -0.2867
     75  CB       -46.7440   23.5080  -12.5840 C.3   201  ASN201      0.1155
     76  CG       -45.7070   24.4450  -13.1660 C.2   201  ASN201      0.2627
     77  OD1      -44.5210   24.3740  -12.8140 O.2   201  ASN201     -0.2716
     78  ND2      -46.1400   25.2870  -14.1200 N.am  201  ASN201     -0.0877
     79  N        -47.3350   26.9180   -5.2300 N.3   251  TRP251     -0.1241
     80  CA       -46.5940   27.6830   -6.2080 C.3   251  TRP251      0.1605
     81  C        -45.1050   27.8240   -5.8430 C.2   251  TRP251      0.2264
     82  O        -44.2650   27.7660   -6.7250 O.2   251  TRP251     -0.2867
     83  CB       -47.2320   29.0270   -6.4610 C.3   251  TRP251      0.0550
     84  CG       -48.3030   28.9410   -7.4610 C.ar  251  TRP251      0.0003
     85  CD1      -49.6250   29.2700   -7.2920 C.ar  251  TRP251      0.0946
     86  CD2      -48.1750   28.4660   -8.7980 C.ar  251  TRP251      0.0152
     87  NE1      -50.3140   29.0270   -8.4410 N.ar  251  TRP251     -0.2442
     88  CE2      -49.4510   28.5480   -9.3890 C.ar  251  TRP251      0.0810
     89  CE3      -47.1100   27.9580   -9.5490 C.ar  251  TRP251      0.0012
     90  CZ2      -49.6950   28.1500  -10.7050 C.ar  251  TRP251      0.0191
     91  CZ3      -47.3500   27.5540  -10.8740 C.ar  251  TRP251      0.0001
     92  CH2      -48.6460   27.6480  -11.4270 C.ar  251  TRP251      0.0015
     93  N        -42.9800   25.1030   -7.1290 N.3   254  CYS254     -0.1235
     94  CA       -42.6360   25.2490   -8.5610 C.3   254  CYS254      0.1677
     95  C        -41.7610   26.4420   -8.8630 C.2   254  CYS254      0.2270
     96  O        -41.5630   26.7950  -10.0330 O.2   254  CYS254     -0.2867
     97  CB       -43.9180   25.3800   -9.3820 C.3   254  CYS254      0.0956
     98  SG       -44.9510   23.9290   -9.1340 S.3   254  CYS254     -0.0801
     99  N        -42.2690   29.7810   -7.8400 N.3   256  LEU256     -0.1245
    100  CA       -42.9500   31.0880   -8.0050 C.3   256  LEU256      0.1561
    101  C        -43.3680   31.6810   -6.6790 C.2   256  LEU256      0.2260
    102  O        -44.1080   31.0470   -5.9190 O.2   256  LEU256     -0.2867
    103  CB       -44.1520   30.9210   -8.8910 C.3   256  LEU256      0.0270
    104  CG       -43.6360   30.4290  -10.2220 C.3   256  LEU256      0.0019
    105  CD1      -44.7680   30.2050  -11.1830 C.3   256  LEU256      0.0001
    106  CD2      -42.6750   31.4580  -10.8280 C.3   256  LEU256      0.0001
    107  N        -36.8060   18.6590  -20.7950 N.3   333  THR333     -0.1218
    108  CA       -36.7700   20.0640  -21.2300 C.3   333  THR333      0.1862
    109  C        -35.3520   20.6300  -21.3550 C.2   333  THR333      0.2287
    110  O        -35.1960   21.7570  -21.7950 O.2   333  THR333     -0.2866
    111  CB       -37.4740   20.9410  -20.1850 C.3   333  THR333      0.1770
    112  OG1      -36.8260   20.7450  -18.9220 O.3   333  THR333     -0.2211
    113  CG2      -38.9060   20.5140  -20.0400 C.3   333  THR333      0.0375
    114  N        -31.2080   21.1350  -14.5350 N.3   346  LYS346     -0.1231
    115  CA       -32.6080   21.4530  -14.4350 C.3   346  LYS346      0.1693
    116  C        -32.7900   22.8370  -15.0610 C.2   346  LYS346      0.2593
    117  O        -31.9920   23.7610  -14.8260 O.2   346  LYS346     -0.2718
    118  CB       -33.1120   21.4400  -12.9400 C.3   346  LYS346      0.0285
    119  CG       -34.5940   21.7320  -12.8320 C.3   346  LYS346      0.0035
    120  CD       -35.4750   20.7280  -13.5260 C.3   346  LYS346      0.0206
    121  CE       -36.9500   20.9750  -13.3850 C.3   346  LYS346      0.1093
    122  NZ       -37.4210   21.8930  -14.4220 N.3   346  LYS346     -0.1314
    123  N        -33.8520   22.9450  -15.8440 N.am  347  THR347     -0.1939
    124  CA       -34.2370   24.1420  -16.5050 C.3   347  THR347      0.2028
    125  C        -35.2800   24.8610  -15.7210 C.2   347  THR347      0.2643
    126  O        -35.8590   24.3010  -14.8090 O.2   347  THR347     -0.2714
    127  CB       -34.8760   23.8360  -17.8800 C.3   347  THR347      0.1808
    128  OG1      -35.9680   22.9330  -17.6910 O.3   347  THR347     -0.2208
    129  CG2      -33.8480   23.2220  -18.7750 C.3   347  THR347      0.0379
    130  N        -35.5130   26.1270  -16.0740 N.am  348  GLY348     -0.1939
    131  CA       -36.6620   26.8660  -15.6050 C.3   348  GLY348      0.2014
    132  C        -37.0760   27.9720  -16.5210 C.2   348  GLY348      0.2639
    133  O        -36.2400   28.4710  -17.2700 O.2   348  GLY348     -0.2714
    134  N        -38.3630   28.3270  -16.5180 N.am  349  THR349     -0.1950
    135  CA       -38.7910   29.5380  -17.2450 C.3   349  THR349      0.1897
    136  C        -39.8170   30.3460  -16.4150 C.2   349  THR349      0.2313
    137  O        -40.8670   29.8250  -16.0790 O.2   349  THR349     -0.2863
    138  CB       -39.3800   29.2040  -18.6440 C.3   349  THR349      0.1794
    139  OG1      -38.4420   28.4160  -19.3810 O.3   349  THR349     -0.2208
    140  CG2      -39.6480   30.4820  -19.4640 C.3   349  THR349      0.0378
    141  N        -42.3560   33.6340  -16.1010 N.3   351  ASP351     -0.1239
    142  CA       -43.1110   34.6480  -16.8110 C.3   351  ASP351      0.1674
    143  C        -42.9500   35.8890  -15.9630 C.2   351  ASP351      0.2266
    144  O        -43.5390   35.9490  -14.8890 O.2   351  ASP351     -0.2867
    145  CB       -44.5900   34.2200  -16.9130 C.3   351  ASP351      0.1410
    146  CG       -45.3600   34.9780  -17.9950 C.2   351  ASP351      0.3668
    147  OD1      -45.2680   34.6280  -19.1900 O.co2 351  ASP351     -0.2456
    148  OD2      -46.0870   35.9180  -17.6650 O.co2 351  ASP351     -0.2456
    149  N        -39.8670   36.9400  -20.3760 N.3   357  PHE357     -0.1241
    150  CA       -39.6840   35.6280  -19.7740 C.3   357  PHE357      0.1605
    151  C        -38.1980   35.4830  -19.4940 C.2   357  PHE357      0.2264
    152  O        -37.3770   35.8630  -20.3280 O.2   357  PHE357     -0.2867
    153  CB       -40.0940   34.5030  -20.7370 C.3   357  PHE357      0.0534
    154  CG       -41.5310   34.5650  -21.2160 C.ar  357  PHE357     -0.0203
    155  CD1      -41.9270   35.4890  -22.1760 C.ar  357  PHE357     -0.0042
    156  CD2      -42.4840   33.6450  -20.7530 C.ar  357  PHE357     -0.0042
    157  CE1      -43.2470   35.5300  -22.6370 C.ar  357  PHE357     -0.0003
    158  CE2      -43.7960   33.6790  -21.2190 C.ar  357  PHE357     -0.0003
    159  CZ       -44.1780   34.6270  -22.1560 C.ar  357  PHE357     -0.0000
    160  N        -35.0800   32.7230  -18.7040 N.3   359  SER359     -0.1217
    161  CA       -34.7710   31.3120  -18.8400 C.3   359  SER359      0.1889
    162  C        -33.6210   30.9870  -17.9210 C.2   359  SER359      0.2288
    163  O        -32.6150   31.7170  -17.8980 O.2   359  SER359     -0.2866
    164  CB       -34.4430   30.9940  -20.3090 C.3   359  SER359      0.2089
    165  OG       -33.9890   29.6750  -20.5130 O.3   359  SER359     -0.2183
    166  N        -37.0630   30.9680  -24.5550 N.3   386  LEU386     -0.1231
    167  CA       -37.4190   29.6240  -24.1010 C.3   386  LEU386      0.1693
    168  C        -36.2990   28.6660  -24.4360 C.2   386  LEU386      0.2592
    169  O        -35.9020   28.5400  -25.5840 O.2   386  LEU386     -0.2718
    170  CB       -38.6910   29.1440  -24.7760 C.3   386  LEU386      0.0284
    171  CG       -39.3140   27.8760  -24.2180 C.3   386  LEU386      0.0019
    172  CD1      -40.0960   28.2250  -22.9630 C.3   386  LEU386      0.0001
    173  CD2      -40.2330   27.2430  -25.2550 C.3   386  LEU386      0.0001
    174  N        -35.7530   28.0190  -23.4260 N.am  387  GLY387     -0.1957
    175  CA       -34.6800   27.0620  -23.6470 C.3   387  GLY387      0.1869
    176  C        -33.2820   27.6220  -23.8170 C.2   387  GLY387      0.2309
    177  O        -32.3080   26.8520  -23.8670 O.2   387  GLY387     -0.2863
@<TRIPOS>BOND
     1   169   168    2
     2   173   171    1
     3   170   171    1
     4   170   167    1
     5   166   167    1
     6   168   167    1
     7   168   174   am
     8   171   172    1
     9   177   176    2
    10   176   175    1
    11    40    39    1
    12   175   174    1
    13    45    42    1
    14    38    39   ar
    15    38    36   ar
    16    39    37   ar
    17   157   155   ar
    18   157   159   ar
    19    44    43    2
    20   155   154   ar
    21   159   158   ar
    22    42    43    1
    23    42    41    1
    24   110   109    2
    25    63    62    1
    26    36    34   ar
    27    43    46   am
    28    37    35   ar
    29   109   108    1
    30   108   107    1
    31   108   111    1
    32   158   156   ar
    33   154   156   ar
    34   154   153    1
    35    62    61    2
    36    62    64    1
    37    41    31   am
    38   153   150    1
    39    61    60    1
    40   165   164    1
    41    49    48    2
    42    34    35   ar
    43    34    33    1
    44    32    31    2
    45   149   150    1
    46   152   151    2
    47   164   161    1
    48    48    47    1
    49    46    47    1
    50   111   113    1
    51   111   112    1
    52    31    30    1
    53    50    47    1
    54    50    51    1
    55    53    51   am
    56    60    59    1
    57   150   151    1
    58    59    58    1
    59   140   138    1
    60    51    52    2
    61   139   138    1
    62    33    30    1
    63   147   146   ar
    64    30    29    1
    65   161   160    1
    66   161   162    1
    67   129   127    1
    68    58    55    1
    69   138   135    1
    70    55    56    1
    71    55    54    1
    72    57    56    2
    73   146   148   ar
    74   146   145    1
    75   162   163    2
    76   127   128    1
    77   127   124    1
    78    24    23    2
    79    29    23   am
    80    56    65   am
    81    23    22    1
    82   133   132    2
    83   135   134    1
    84   135   136    1
    85    25    22    1
    86    25    26    1
    87   145   142    1
    88   142   141    1
    89   142   143    1
    90   132   134   am
    91   132   131    1
    92   124   123    1
    93   124   125    1
    94   136   137    2
    95    65    66    1
    96    22    21    1
    97    28    26   am
    98   130   125   am
    99   130   131    1
   100    69    66    1
   101    69    70    1
   102    26    27    2
   103   143   144    2
   104   123   116   am
   105    17    19   ar
   106    17    16   ar
   107   125   126    2
   108    19    20   ar
   109    68    67    2
   110    66    67    1
   111    21    13   am
   112    15    16    1
   113    15    12    1
   114    16    18   ar
   115   116   117    2
   116   116   115    1
   117    20    18   ar
   118    13    14    2
   119    13    12    1
   120   114   115    1
   121   115   118    1
   122   122   121    1
   123    12    11    1
   124    78    76   am
   125    10     9    1
   126     9     6    1
   127   120   121    1
   128   120   119    1
   129    71    72    1
   130    76    77    2
   131    76    75    1
   132   118   119    1
   133    75    72    1
   134     5     6    1
   135     5     3   am
   136     6     7    1
   137    72    73    1
   138     7     8    2
   139     2     3    1
   140     2     1    1
   141    92    91   ar
   142    92    90   ar
   143    73    74    2
   144     3     4    2
   145   105   104    1
   146    91    89   ar
   147   106   104    1
   148    90    88   ar
   149   104   103    1
   150    96    95    2
   151    89    86   ar
   152    88    86   ar
   153    88    87   ar
   154    97    98    1
   155    97    94    1
   156   103   100    1
   157    95    94    1
   158    86    84   ar
   159    94    93    1
   160    87    85   ar
   161   100    99    1
   162   100   101    1
   163    84    85   ar
   164    84    83    1
   165    82    81    2
   166   101   102    2
   167    83    80    1
   168    80    81    1
   169    80    79    1
