@<TRIPOS>MOLECULE
tmp/4r1lB00.pdb
 162 156 0 0 0
SMALL
GASTEIGER

@<TRIPOS>ATOM
      1  N         -3.2830   39.1510   49.0740 N.3    87  SER87      -0.1217
      2  CA        -2.3820   38.9200   50.2120 C.3    87  SER87       0.1889
      3  C         -1.1740   38.0870   49.7780 C.2    87  SER87       0.2288
      4  O         -1.2070   37.4450   48.7280 O.2    87  SER87      -0.2866
      5  CB        -3.1180   38.2310   51.3630 C.3    87  SER87       0.2089
      6  OG        -3.7880   37.0410   50.9760 O.3    87  SER87      -0.2183
      7  N          0.1270   44.5860   46.2180 N.3   130  PHE130     -0.1227
      8  CA         0.4720   44.7950   47.6380 C.3   130  PHE130      0.1736
      9  C         -0.2650   45.9960   48.1740 C.2   130  PHE130      0.2596
     10  O         -0.1340   47.0830   47.6260 O.2   130  PHE130     -0.2718
     11  CB         2.0040   44.9810   47.8500 C.3   130  PHE130      0.0547
     12  CG         2.8640   43.8190   47.4040 C.ar  130  PHE130     -0.0202
     13  CD1        2.8000   42.5870   48.0590 C.ar  130  PHE130     -0.0042
     14  CD2        3.7600   43.9600   46.3420 C.ar  130  PHE130     -0.0042
     15  CE1        3.5650   41.4950   47.6180 C.ar  130  PHE130     -0.0003
     16  CE2        4.5490   42.8760   45.9210 C.ar  130  PHE130     -0.0003
     17  CZ         4.4390   41.6460   46.5580 C.ar  130  PHE130     -0.0000
     18  N         -1.0070   45.8210   49.2670 N.am  131  THR131     -0.1939
     19  CA        -1.8290   46.8890   49.8380 C.3   131  THR131      0.2028
     20  C         -0.9870   48.0510   50.4410 C.2   131  THR131      0.2642
     21  O         -1.5200   49.1460   50.5510 O.2   131  THR131     -0.2714
     22  CB        -2.7570   46.3250   50.9130 C.3   131  THR131      0.1808
     23  OG1       -1.9790   45.8700   52.0050 O.3   131  THR131     -0.2208
     24  CG2       -3.6650   45.2200   50.3870 C.3   131  THR131      0.0379
     25  N          0.2690   47.7990   50.8360 N.am  132  GLY132     -0.1954
     26  CA         1.1500   48.8180   51.4020 C.3   132  GLY132      0.1869
     27  C          1.4970   49.9510   50.4520 C.2   132  GLY132      0.2309
     28  O          1.7140   51.0870   50.8780 O.2   132  GLY132     -0.2863
     29  N          6.0980   48.3310   59.7280 N.3   202  GLY202     -0.1210
     30  CA         5.1340   47.2510   59.9210 C.3   202  GLY202      0.1956
     31  C          5.5050   45.9770   59.1920 C.2   202  GLY202      0.2612
     32  O          6.6790   45.7710   58.8800 O.2   202  GLY202     -0.2717
     33  N          4.4910   45.1240   58.8870 N.am  203  ALA203     -0.1965
     34  CA         4.5640   43.8460   58.1460 C.3   203  ALA203      0.1728
     35  C          5.3230   42.7440   58.9110 C.2   203  ALA203      0.2616
     36  O          4.8700   41.6110   58.9130 O.2   203  ALA203     -0.2715
     37  CB         5.2170   44.0430   56.7910 C.3   203  ALA203      0.0334
     38  N          6.4970   43.0470   59.4990 N.am  204  GLU204     -0.1964
     39  CA         7.3530   42.1020   60.2170 C.3   204  GLU204      0.1718
     40  C          7.2120   42.1470   61.7480 C.2   204  GLU204      0.2458
     41  O          7.3920   43.2200   62.3280 O.2   204  GLU204     -0.2730
     42  CB         8.8410   42.3990   59.9200 C.3   204  GLU204      0.0428
     43  CG         9.3760   42.2100   58.5120 C.3   204  GLU204      0.1163
     44  CD        10.8210   42.6680   58.3440 C.2   204  GLU204      0.3649
     45  OE1       11.2740   43.5390   59.1210 O.co2 204  GLU204     -0.2457
     46  OE2       11.4930   42.1820   57.4070 O.co2 204  GLU204     -0.2457
     47  N          7.0630   40.9990   62.4550 N.am  205  PRO205     -0.2716
     48  CA         7.1740   41.0460   63.9210 C.3   205  PRO205      0.1536
     49  C          8.5730   41.5310   64.3160 C.2   205  PRO205      0.2598
     50  O          9.5820   41.1540   63.6870 O.2   205  PRO205     -0.2715
     51  CB         6.9190   39.5960   64.3550 C.3   205  PRO205      0.0310
     52  CG         6.2480   38.9480   63.1730 C.3   205  PRO205      0.0237
     53  CD         6.8750   39.6100   61.9800 C.3   205  PRO205      0.0939
     54  N          8.6380   42.4020   65.3190 N.am  206  HIS206     -0.1974
     55  CA         9.9070   42.9460   65.7820 C.3   206  HIS206      0.1656
     56  C          9.7350   43.3840   67.1900 C.2   206  HIS206      0.2291
     57  O          8.6310   43.7570   67.5830 O.2   206  HIS206     -0.2864
     58  CB        10.3990   44.1090   64.8810 C.3   206  HIS206      0.0771
     59  CG         9.4370   45.2570   64.8140 C.ar  206  HIS206      0.0820
     60  ND1        8.3210   45.2190   63.9830 N.ar  206  HIS206     -0.2267
     61  CD2        9.4340   46.4250   65.4950 C.ar  206  HIS206      0.1154
     62  CE1        7.6800   46.3580   64.1920 C.ar  206  HIS206      0.1986
     63  NE2        8.3210   47.1280   65.0740 N.ar  206  HIS206     -0.2212
     64  N          4.9940   51.6470   65.1520 N.3   223  ASN223     -0.1225
     65  CA         4.4980   50.3460   64.7440 C.3   223  ASN223      0.1785
     66  C          3.1650   50.5230   64.0130 C.2   223  ASN223      0.2598
     67  O          2.2550   51.2050   64.5010 O.2   223  ASN223     -0.2718
     68  CB         4.3720   49.3970   65.9460 C.3   223  ASN223      0.1169
     69  CG         4.4380   47.9340   65.5750 C.2   223  ASN223      0.2627
     70  OD1        4.5810   47.5580   64.3990 O.2   223  ASN223     -0.2716
     71  ND2        4.3690   47.0680   66.5860 N.am  223  ASN223     -0.0877
     72  N          3.1020   49.9370   62.8170 N.am  224  SER224     -0.1938
     73  CA         1.9930   49.9610   61.8660 C.3   224  SER224      0.2055
     74  C          1.4500   48.5580   61.6100 C.2   224  SER224      0.2643
     75  O          2.1700   47.6870   61.0970 O.2   224  SER224     -0.2714
     76  CB         2.4570   50.5770   60.5460 C.3   224  SER224      0.2130
     77  OG         1.4450   50.5030   59.5540 O.3   224  SER224     -0.2179
     78  N          0.1850   48.3360   61.9760 N.am  225  PHE225     -0.1959
     79  CA        -0.4260   47.0290   61.7690 C.3   225  PHE225      0.1771
     80  C         -1.4320   47.0660   60.6450 C.2   225  PHE225      0.2620
     81  O         -2.2120   48.0080   60.5080 O.2   225  PHE225     -0.2715
     82  CB        -1.1150   46.5210   63.0530 C.3   225  PHE225      0.0574
     83  CG        -1.7300   45.1460   62.9170 C.ar  225  PHE225     -0.0200
     84  CD1       -0.9320   44.0070   62.9030 C.ar  225  PHE225     -0.0042
     85  CD2       -3.1060   44.9920   62.7800 C.ar  225  PHE225     -0.0042
     86  CE1       -1.4990   42.7330   62.7350 C.ar  225  PHE225     -0.0003
     87  CE2       -3.6750   43.7210   62.6210 C.ar  225  PHE225     -0.0003
     88  CZ        -2.8660   42.5980   62.6110 C.ar  225  PHE225     -0.0000
     89  N         -1.4610   45.9890   59.9050 N.am  226  GLY226     -0.1954
     90  CA        -2.4280   45.8070   58.8360 C.3   226  GLY226      0.1869
     91  C         -2.3720   44.4330   58.2240 C.2   226  GLY226      0.2309
     92  O         -1.4300   43.6720   58.4670 O.2   226  GLY226     -0.2863
     93  N         -4.2410   42.5630   54.3910 N.3   227  THR227     -0.1203
     94  CA        -5.0150   42.7010   53.1530 C.3   227  THR227      0.1994
     95  C         -6.5080   42.5090   53.4340 C.2   227  THR227      0.2617
     96  O         -7.3110   43.3190   52.9670 O.2   227  THR227     -0.2717
     97  CB        -4.5050   41.6800   52.1130 C.3   227  THR227      0.1784
     98  OG1       -3.1270   41.9580   51.8820 O.3   227  THR227     -0.2211
     99  CG2       -5.2790   41.7310   50.7860 C.3   227  THR227      0.0376
    100  N         -6.8650   41.4700   54.2240 N.am  228  GLU228     -0.1979
    101  CA        -8.2400   41.1590   54.5850 C.3   228  GLU228      0.1602
    102  C         -8.9440   42.3430   55.2350 C.2   228  GLU228      0.2287
    103  O        -10.1490   42.5160   55.0460 O.2   228  GLU228     -0.2864
    104  CB        -8.3090   39.9530   55.5280 C.3   228  GLU228      0.0415
    105  CG        -7.8620   38.6370   54.9010 C.3   228  GLU228      0.1163
    106  CD        -6.3650   38.3800   54.8460 C.2   228  GLU228      0.3649
    107  OE1       -5.5600   39.2660   55.2170 O.co2 228  GLU228     -0.2457
    108  OE2       -5.9960   37.2670   54.4210 O.co2 228  GLU228     -0.2457
    109  N         -5.5530   46.6940   54.3830 N.3   230  GLY230     -0.1210
    110  CA        -4.1030   46.7030   54.2840 C.3   230  GLY230      0.1940
    111  C         -3.5820   47.5080   55.4530 C.2   230  GLY230      0.2453
    112  O         -4.0060   47.2520   56.5750 O.2   230  GLY230     -0.2732
    113  N         -2.7640   48.5620   55.2510 N.am  231  PRO231     -0.2728
    114  CA        -2.3960   49.4180   56.4020 C.3   231  PRO231      0.1401
    115  C         -3.5780   50.2890   56.8980 C.2   231  PRO231      0.2269
    116  O         -4.5870   50.4340   56.1960 O.2   231  PRO231     -0.2865
    117  CB        -1.2900   50.2950   55.8170 C.3   231  PRO231      0.0296
    118  CG        -1.6250   50.4040   54.3700 C.3   231  PRO231      0.0237
    119  CD        -2.1830   49.0730   53.9870 C.3   231  PRO231      0.0939
    120  N         -7.5550   35.7010   62.2000 N.3   285  THR285     -0.1218
    121  CA        -6.3650   36.2690   61.5780 C.3   285  THR285      0.1862
    122  C         -5.1130   35.3860   61.6640 C.2   285  THR285      0.2287
    123  O         -4.2040   35.5670   60.8330 O.2   285  THR285     -0.2866
    124  CB        -6.0300   37.6130   62.2180 C.3   285  THR285      0.1770
    125  OG1       -5.7290   37.4100   63.6110 O.3   285  THR285     -0.2211
    126  CG2       -7.1420   38.6250   62.0350 C.3   285  THR285      0.0375
    127  N         -3.1390   35.7110   64.0420 N.3   287  ASP287     -0.1239
    128  CA        -2.2310   36.5880   64.7700 C.3   287  ASP287      0.1674
    129  C         -2.5170   36.5110   66.2450 C.2   287  ASP287      0.2266
    130  O         -3.6740   36.6280   66.6670 O.2   287  ASP287     -0.2867
    131  CB        -2.3200   38.0450   64.2920 C.3   287  ASP287      0.1410
    132  CG        -1.8850   38.2560   62.8690 C.2   287  ASP287      0.3668
    133  OD1       -0.8490   37.6720   62.4730 O.co2 287  ASP287     -0.2456
    134  OD2       -2.5820   38.9970   62.1440 O.co2 287  ASP287     -0.2456
    135  N          2.5460   42.2900   67.9470 N.3   308  ILE308     -0.1245
    136  CA         2.1370   40.9560   67.5070 C.3   308  ILE308      0.1561
    137  C          3.2580   39.9670   67.8670 C.2   308  ILE308      0.2260
    138  O          4.4030   40.1030   67.4080 O.2   308  ILE308     -0.2867
    139  CB         1.7370   40.8650   66.0060 C.3   308  ILE308      0.0252
    140  CG1        0.5880   41.8460   65.6350 C.3   308  ILE308      0.0019
    141  CG2        1.4220   39.4260   65.5830 C.3   308  ILE308      0.0019
    142  CD1       -0.8020   41.6080   66.2130 C.3   308  ILE308      0.0001
    143  N          2.5020   35.0450   63.9700 N.3   311  ARG311     -0.1245
    144  CA         1.4100   34.3600   63.2820 C.3   311  ARG311      0.1563
    145  C          1.5470   32.8720   63.5610 C.2   311  ARG311      0.2260
    146  O          2.6810   32.4130   63.6720 O.2   311  ARG311     -0.2867
    147  CB         1.4050   34.6720   61.7730 C.3   311  ARG311      0.0307
    148  CG         0.0300   34.4540   61.1360 C.3   311  ARG311      0.0489
    149  CD         0.0170   34.7570   59.6580 C.3   311  ARG311      0.2205
    150  NE        -0.9230   35.8130   59.2870 N.pl3 311  ARG311     -0.0865
    151  CZ        -1.1500   36.1970   58.0320 C.cat 311  ARG311      0.5346
    152  NH1       -0.5290   35.5940   57.0230 N.pl3 311  ARG311      0.1354
    153  NH2       -2.0090   37.1760   57.7750 N.pl3 311  ARG311      0.1354
    154  N          9.4290   40.7350   53.4460 N.3   400  LYS400     -0.1245
    155  CA         9.5260   40.3270   54.8490 C.3   400  LYS400      0.1561
    156  C         10.6880   39.3870   55.0190 C.2   400  LYS400      0.2260
    157  O         10.8170   38.4450   54.2260 O.2   400  LYS400     -0.2867
    158  CB         8.2330   39.6510   55.3530 C.3   400  LYS400      0.0271
    159  CG         6.9830   40.4900   55.3370 C.3   400  LYS400      0.0035
    160  CD         5.8430   39.7610   56.0310 C.3   400  LYS400      0.0206
    161  CE         4.5520   40.5120   55.8330 C.3   400  LYS400      0.1093
    162  NZ         3.4760   40.0420   56.7390 N.3   400  LYS400     -0.1314
@<TRIPOS>BOND
     1    16    14   ar
     2    16    17   ar
     3     7     8    1
     4    14    12   ar
     5    17    15   ar
     6    12    11    1
     7    12    13   ar
     8    15    13   ar
     9    10     9    2
    10     8    11    1
    11     8     9    1
    12     9    18   am
    13     4     3    2
    14     1     2    1
    15    18    19    1
    16     3     2    1
    17    19    20    1
    18    19    22    1
    19     2     5    1
    20    24    22    1
    21    20    21    2
    22    20    25   am
    23    27    28    2
    24    27    26    1
    25    99    97    1
    26    25    26    1
    27    22    23    1
    28     6     5    1
    29    98    97    1
    30    97    94    1
    31    96    95    2
    32    94    95    1
    33    94    93    1
    34    95   100   am
    35   154   155    1
    36   119   118    1
    37   119   113    1
    38   100   101    1
    39   157   156    2
    40   110   109    1
    41   110   111    1
    42   118   117    1
    43   108   106   ar
    44   101   102    1
    45   101   104    1
    46   106   105    1
    47   106   107   ar
    48   155   156    1
    49   155   158    1
    50   105   104    1
    51   103   102    2
    52   113   111   am
    53   113   114    1
    54   159   158    1
    55   159   160    1
    56   111   112    2
    57   117   114    1
    58   161   160    1
    59   161   162    1
    60   116   115    2
    61   114   115    1
    62    37    34    1
    63   152   151    1
    64    46    44   ar
    65   153   151    1
    66   151   150    2
    67    34    33    1
    68    34    35    1
    69    91    92    2
    70    91    90    1
    71    44    43    1
    72    44    45   ar
    73    43    42    1
    74    90    89    1
    75    32    31    2
    76    33    31   am
    77    35    36    2
    78    35    38   am
    79    31    30    1
    80   150   149    1
    81    38    39    1
    82    77    76    1
    83   149   148    1
    84    29    30    1
    85    89    80   am
    86    42    39    1
    87    39    40    1
    88    81    80    2
    89    76    73    1
    90    80    79    1
    91   123   122    2
    92    75    74    2
    93   148   147    1
    94   121   122    1
    95   121   120    1
    96   121   124    1
    97    74    73    1
    98    74    78   am
    99    40    41    2
   100    40    47   am
   101    79    78    1
   102    79    82    1
   103   147   144    1
   104    73    72    1
   105    53    47    1
   106    53    52    1
   107   126   124    1
   108   134   132   ar
   109   124   125    1
   110    47    48    1
   111   133   132   ar
   112    88    87   ar
   113    88    86   ar
   114    87    85   ar
   115    86    84   ar
   116    85    83   ar
   117    72    66   am
   118   132   131    1
   119    84    83   ar
   120    83    82    1
   121    52    51    1
   122   144   145    1
   123   144   143    1
   124   145   146    2
   125    50    49    2
   126    48    49    1
   127    48    51    1
   128    60    62   ar
   129    60    59   ar
   130    66    67    2
   131    66    65    1
   132   127   128    1
   133    62    63   ar
   134   131   128    1
   135    49    54   am
   136    70    69    2
   137    65    64    1
   138    65    68    1
   139   128   129    1
   140    59    58    1
   141    59    61   ar
   142    58    55    1
   143    63    61   ar
   144    54    55    1
   145    69    68    1
   146    69    71   am
   147   141   139    1
   148   140   139    1
   149   140   142    1
   150    55    56    1
   151   139   136    1
   152   129   130    2
   153    56    57    2
   154   138   137    2
   155   136   137    1
   156   136   135    1
