@<TRIPOS>MOLECULE
tmp/4r1lC01.pdb
 131 122 0 0 0
SMALL
GASTEIGER

@<TRIPOS>ATOM
      1  N         26.2440   -3.4450   68.8140 N.3   131  SER131     -0.1202
      2  CA        26.2560   -1.9690   68.7780 C.3   131  SER131      0.2020
      3  C         27.7040   -1.4250   68.8050 C.2   131  SER131      0.2619
      4  O         27.9090   -0.2230   68.9150 O.2   131  SER131     -0.2717
      5  CB        25.4550   -1.3780   69.9340 C.3   131  SER131      0.2103
      6  OG        26.2380   -1.3450   71.1170 O.3   131  SER131     -0.2182
      7  N         28.6990   -2.3040   68.7150 N.am  132  SER132     -0.1951
      8  CA        30.0940   -1.8940   68.6240 C.3   132  SER132      0.1924
      9  C         30.3870   -1.3890   67.2160 C.2   132  SER132      0.2314
     10  O         29.7790   -1.8540   66.2500 O.2   132  SER132     -0.2863
     11  CB        31.0140   -3.0560   68.9860 C.3   132  SER132      0.2116
     12  OG        32.3590   -2.7500   68.6480 O.3   132  SER132     -0.2180
     13  N         27.8700    1.2040   65.6750 N.3   158  ALA158     -0.1231
     14  CA        27.7270    2.2460   66.6940 C.3   158  ALA158      0.1694
     15  C         26.6340    3.2690   66.3880 C.2   158  ALA158      0.2593
     16  O         26.2920    3.5280   65.2220 O.2   158  ALA158     -0.2718
     17  CB        29.0480    2.9860   66.8620 C.3   158  ALA158      0.0304
     18  N         26.1420    3.8770   67.4790 N.am  159  GLY159     -0.1942
     19  CA        25.1860    4.9800   67.4740 C.3   159  GLY159      0.2014
     20  C         23.8070    4.7650   66.9030 C.2   159  GLY159      0.2639
     21  O         23.3820    3.6290   66.6480 O.2   159  GLY159     -0.2714
     22  N         23.1040    5.9040   66.7130 N.am  160  ASN160     -0.1958
     23  CA        21.7310    6.0250   66.2100 C.3   160  ASN160      0.1819
     24  C         20.8190    5.1860   67.1170 C.2   160  ASN160      0.2622
     25  O         20.3080    4.1370   66.7140 O.2   160  ASN160     -0.2715
     26  CB        21.6410    5.6120   64.7150 C.3   160  ASN160      0.1195
     27  CG        20.3750    6.0360   64.0080 C.2   160  ASN160      0.2630
     28  OD1       20.2750    5.8970   62.7950 O.2   160  ASN160     -0.2716
     29  ND2       19.3460    6.5260   64.7270 N.am  160  ASN160     -0.0877
     30  N         20.6790    5.6270   68.3670 N.am  161  SER161     -0.1936
     31  CA        19.9250    4.9330   69.4180 C.3   161  SER161      0.2055
     32  C         18.4780    4.6540   69.0300 C.2   161  SER161      0.2642
     33  O         17.9860    3.5810   69.3740 O.2   161  SER161     -0.2714
     34  CB        19.9420    5.7360   70.7030 C.3   161  SER161      0.2130
     35  OG        21.2750    5.7820   71.1700 O.3   161  SER161     -0.2179
     36  N         17.8070    5.5850   68.3110 N.am  162  LYS162     -0.1977
     37  CA        16.4260    5.3740   67.8550 C.3   162  LYS162      0.1596
     38  C         16.3450    4.1530   66.9360 C.2   162  LYS162      0.2287
     39  O         15.3940    3.3850   67.0450 O.2   162  LYS162     -0.2864
     40  CB        15.8620    6.6140   67.1320 C.3   162  LYS162      0.0298
     41  CG        15.4860    7.7580   68.0510 C.3   162  LYS162      0.0038
     42  CD        14.7050    8.8190   67.2970 C.3   162  LYS162      0.0206
     43  CE        14.2390    9.9240   68.2080 C.3   162  LYS162      0.1093
     44  NZ        13.2520   10.8110   67.5340 N.3   162  LYS162     -0.1314
     45  N         28.8240   -1.0360   75.0650 N.3   179  ILE179     -0.1245
     46  CA        29.6730   -0.5540   76.1750 C.3   179  ILE179      0.1561
     47  C         28.7020   -0.1990   77.3250 C.2   179  ILE179      0.2260
     48  O         27.5560    0.1790   77.0400 O.2   179  ILE179     -0.2867
     49  CB        30.6400    0.6160   75.7930 C.3   179  ILE179      0.0252
     50  CG1       29.8550    1.9050   75.4390 C.3   179  ILE179      0.0019
     51  CG2       31.6180    0.1940   74.6900 C.3   179  ILE179      0.0019
     52  CD1       30.6350    3.1380   75.2900 C.3   179  ILE179      0.0001
     53  N         26.6400    3.0260   76.9910 N.3   182  TYR182     -0.1241
     54  CA        25.7040    3.0330   75.8630 C.3   182  TYR182      0.1605
     55  C         24.4460    2.2050   76.1910 C.2   182  TYR182      0.2264
     56  O         23.3590    2.5740   75.7510 O.2   182  TYR182     -0.2867
     57  CB        26.3370    2.5420   74.5670 C.3   182  TYR182      0.0534
     58  CG        25.4710    2.8780   73.3810 C.ar  182  TYR182     -0.0201
     59  CD1       25.1100    4.2000   73.1080 C.ar  182  TYR182     -0.0009
     60  CD2       24.9920    1.8780   72.5360 C.ar  182  TYR182     -0.0009
     61  CE1       24.2970    4.5140   72.0250 C.ar  182  TYR182      0.0417
     62  CE2       24.1880    2.1830   71.4430 C.ar  182  TYR182      0.0417
     63  CZ        23.8440    3.5010   71.1940 C.ar  182  TYR182      0.1957
     64  OH        23.0320    3.8090   70.1410 O.3   182  TYR182     -0.2866
     65  N         22.2090    4.5670   77.9770 N.3   185  ARG185     -0.1245
     66  CA        21.6980    5.4890   76.9600 C.3   185  ARG185      0.1563
     67  C         20.5060    4.8630   76.2190 C.2   185  ARG185      0.2260
     68  O         19.4900    5.5380   76.0370 O.2   185  ARG185     -0.2867
     69  CB        22.8180    5.8720   75.9720 C.3   185  ARG185      0.0307
     70  CG        22.4100    6.7250   74.7760 C.3   185  ARG185      0.0489
     71  CD        21.8230    8.0740   75.1610 C.3   185  ARG185      0.2205
     72  NE        21.4340    8.8360   73.9730 N.pl3 185  ARG185     -0.0865
     73  CZ        20.4490    9.7280   73.9460 C.cat 185  ARG185      0.5346
     74  NH1       19.7080    9.9440   75.0260 N.pl3 185  ARG185      0.1354
     75  NH2       20.1680   10.3800   72.8260 N.pl3 185  ARG185      0.1354
     76  N         34.2100    6.4590   75.7330 N.3   324  LYS324     -0.1245
     77  CA        33.2030    5.8800   74.8260 C.3   324  LYS324      0.1561
     78  C         33.7340    4.5310   74.2990 C.2   324  LYS324      0.2260
     79  O         33.4720    4.1420   73.1620 O.2   324  LYS324     -0.2867
     80  CB        32.8500    6.8630   73.6880 C.3   324  LYS324      0.0271
     81  CG        32.3750    8.2340   74.1870 C.3   324  LYS324      0.0035
     82  CD        32.3340    9.2860   73.0610 C.3   324  LYS324      0.0206
     83  CE        31.9780   10.6780   73.5690 C.3   324  LYS324      0.1093
     84  NZ        32.0460   11.7180   72.4990 N.3   324  LYS324     -0.1314
     85  N         36.7280    3.7570   73.5820 N.3   326  VAL326     -0.1245
     86  CA        37.8330    3.9330   72.6360 C.3   326  VAL326      0.1561
     87  C         39.0940    4.3460   73.4010 C.2   326  VAL326      0.2260
     88  O         39.0440    5.2530   74.2200 O.2   326  VAL326     -0.2867
     89  CB        37.4190    4.9820   71.5520 C.3   326  VAL326      0.0252
     90  CG1       38.5700    5.3340   70.5980 C.3   326  VAL326      0.0019
     91  CG2       36.1680    4.5150   70.7850 C.3   326  VAL326      0.0019
     92  N         26.7510    9.7120   80.4680 N.3   356  GLN356     -0.1245
     93  CA        27.5860    9.6370   79.2620 C.3   356  GLN356      0.1566
     94  C         28.9110   10.3500   79.4990 C.2   356  GLN356      0.2260
     95  O         28.9470   11.3750   80.1770 O.2   356  GLN356     -0.2867
     96  CB        26.8750   10.2370   78.0230 C.3   356  GLN356      0.0367
     97  CG        25.5350    9.5820   77.6080 C.3   356  GLN356      0.0905
     98  CD        25.6370    8.1820   77.0580 C.2   356  GLN356      0.2608
     99  OE1       25.7820    7.9730   75.8480 O.2   356  GLN356     -0.2717
    100  NE2       25.4960    7.1940   77.9250 N.am  356  GLN356     -0.0878
    101  N         39.1750   14.3530   65.9380 N.3   387  LYS387     -0.1245
    102  CA        38.1600   13.3330   65.6640 C.3   387  LYS387      0.1561
    103  C         38.7630   12.2290   64.7820 C.2   387  LYS387      0.2260
    104  O         38.6120   11.0580   65.0950 O.2   387  LYS387     -0.2867
    105  CB        36.9400   14.0040   64.9810 C.3   387  LYS387      0.0271
    106  CG        35.7920   13.0930   64.5500 C.3   387  LYS387      0.0035
    107  CD        34.8920   13.8330   63.5510 C.3   387  LYS387      0.0206
    108  CE        33.7020   13.0420   63.0360 C.3   387  LYS387      0.1093
    109  NZ        32.6540   12.8430   64.0750 N.3   387  LYS387     -0.1314
    110  N         39.5290    9.0340   67.0220 N.3   391  LEU391     -0.1231
    111  CA        38.3050    8.3220   66.6290 C.3   391  LEU391      0.1693
    112  C         37.1340    8.5630   67.6210 C.2   391  LEU391      0.2592
    113  O         36.1900    7.7690   67.6710 O.2   391  LEU391     -0.2718
    114  CB        38.5560    6.8080   66.4680 C.3   391  LEU391      0.0284
    115  CG        39.6850    6.3890   65.5070 C.3   391  LEU391      0.0019
    116  CD1       39.8570    4.9000   65.5060 C.3   391  LEU391      0.0001
    117  CD2       39.4600    6.8750   64.1160 C.3   391  LEU391      0.0001
    118  N         37.1730    9.6950   68.3600 N.am  392  VAL392     -0.1966
    119  CA        36.0950   10.1920   69.2210 C.3   392  VAL392      0.1727
    120  C         36.0290   11.6920   68.9800 C.2   392  VAL392      0.2616
    121  O         37.0680   12.3080   68.7220 O.2   392  VAL392     -0.2715
    122  CB        36.1560    9.8450   70.7400 C.3   392  VAL392      0.0290
    123  CG1       36.2710    8.3570   70.9960 C.3   392  VAL392      0.0023
    124  CG2       37.2550   10.5960   71.4480 C.3   392  VAL392      0.0023
    125  N         34.8190   12.2790   69.0530 N.am  393  THR393     -0.1951
    126  CA        34.6370   13.7110   68.8660 C.3   393  THR393      0.1897
    127  C         34.8080   14.4020   70.2240 C.2   393  THR393      0.2313
    128  O         33.9580   14.2390   71.1050 O.2   393  THR393     -0.2863
    129  CB        33.2790   14.0500   68.2050 C.3   393  THR393      0.1794
    130  OG1       33.1150   13.3230   66.9850 O.3   393  THR393     -0.2208
    131  CG2       33.1270   15.5460   67.9180 C.3   393  THR393      0.0378
@<TRIPOS>BOND
     1    28    27    2
     2   108   107    1
     3   108   109    1
     4   107   106    1
     5    27    26    1
     6    27    29   am
     7   117   115    1
     8   106   105    1
     9    26    23    1
    10   103   104    2
    11   103   102    1
    12   105   102    1
    13    16    15    2
    14   116   115    1
    15   115   114    1
    16   102   101    1
    17    13    14    1
    18    23    22    1
    19    23    24    1
    20    10     9    2
    21    15    14    1
    22    15    18   am
    23   114   111    1
    24   111   110    1
    25   111   112    1
    26    21    20    2
    27    14    17    1
    28    22    20   am
    29    25    24    2
    30    20    19    1
    31    38    39    2
    32    38    37    1
    33   130   129    1
    34    24    30   am
    35    40    37    1
    36    40    41    1
    37     9     8    1
    38    42    41    1
    39    42    43    1
    40    19    18    1
    41    44    43    1
    42   112   113    2
    43   112   118   am
    44    37    36    1
    45   131   129    1
    46   129   126    1
    47    36    32   am
    48   118   119    1
    49    30    31    1
    50     8     7    1
    51     8    11    1
    52    12    11    1
    53     7     3   am
    54   121   120    2
    55     2     3    1
    56     2     1    1
    57     2     5    1
    58     3     4    2
    59   126   125    1
    60   126   127    1
    61   120   125   am
    62   120   119    1
    63    32    33    2
    64    32    31    1
    65   119   122    1
    66    31    34    1
    67     5     6    1
    68    64    63    1
    69   127   128    2
    70    90    89    1
    71    34    35    1
    72   122   123    1
    73   122   124    1
    74    91    89    1
    75    63    62   ar
    76    63    61   ar
    77    62    60   ar
    78    89    86    1
    79    61    59   ar
    80    84    83    1
    81    60    58   ar
    82    86    87    1
    83    86    85    1
    84    75    73    1
    85    82    83    1
    86    82    81    1
    87    59    58   ar
    88    79    78    2
    89    58    57    1
    90    87    88    2
    91    80    81    1
    92    80    77    1
    93    73    72    2
    94    73    74    1
    95    72    71    1
    96    78    77    1
    97    57    54    1
    98    51    49    1
    99    70    71    1
   100    70    69    1
   101    77    76    1
   102    45    46    1
   103    52    50    1
   104    50    49    1
   105    56    55    2
   106    49    46    1
   107    99    98    2
   108    54    55    1
   109    54    53    1
   110    69    66    1
   111    68    67    2
   112    46    47    1
   113    67    66    1
   114    66    65    1
   115    48    47    2
   116    98    97    1
   117    98   100   am
   118    97    96    1
   119    96    93    1
   120    93    94    1
   121    93    92    1
   122    94    95    2
