@<TRIPOS>MOLECULE
tmp/4r1lA02.pdb
 122 118 0 0 0
SMALL
GASTEIGER

@<TRIPOS>ATOM
      1  N          1.5730   47.7490   33.6540 N.3   132  SER132     -0.1202
      2  CA         2.6460   48.7240   33.7410 C.3   132  SER132      0.2020
      3  C          3.2570   48.6960   35.1480 C.2   132  SER132      0.2619
      4  O          2.5560   48.4150   36.1320 O.2   132  SER132     -0.2717
      5  CB         2.1310   50.1170   33.4050 C.3   132  SER132      0.2103
      6  OG         3.1100   51.1010   33.7080 O.3   132  SER132     -0.2182
      7  N          4.5420   49.0130   35.2350 N.am  133  GLY133     -0.1956
      8  CA         5.2250   49.1320   36.5120 C.3   133  GLY133      0.1869
      9  C          4.6170   50.2670   37.3160 C.2   133  GLY133      0.2309
     10  O          4.1330   51.2580   36.7490 O.2   133  GLY133     -0.2863
     11  N          7.0850   55.1150   37.9600 N.3   136  PHE136     -0.1227
     12  CA         6.5700   55.0150   36.5880 C.3   136  PHE136      0.1736
     13  C          5.1670   55.5630   36.5170 C.2   136  PHE136      0.2596
     14  O          4.2970   55.1030   37.2520 O.2   136  PHE136     -0.2718
     15  CB         6.5850   53.5680   36.0900 C.3   136  PHE136      0.0547
     16  CG         7.9290   52.9080   35.9910 C.ar  136  PHE136     -0.0202
     17  CD1        8.8270   53.2740   35.0010 C.ar  136  PHE136     -0.0042
     18  CD2        8.2540   51.8330   36.8090 C.ar  136  PHE136     -0.0042
     19  CE1       10.0500   52.6070   34.8650 C.ar  136  PHE136     -0.0003
     20  CE2        9.4800   51.1710   36.6730 C.ar  136  PHE136     -0.0003
     21  CZ        10.3630   51.5560   35.6950 C.ar  136  PHE136     -0.0000
     22  N          4.9380   56.5240   35.6240 N.am  137  THR137     -0.1939
     23  CA         3.6480   57.2050   35.5140 C.3   137  THR137      0.2028
     24  C          2.5450   56.2780   34.9390 C.2   137  THR137      0.2642
     25  O          1.3970   56.5080   35.2770 O.2   137  THR137     -0.2714
     26  CB         3.7620   58.4850   34.7040 C.3   137  THR137      0.1808
     27  OG1        4.4060   58.2360   33.4520 O.3   137  THR137     -0.2208
     28  CG2        4.5140   59.5400   35.4590 C.3   137  THR137      0.0379
     29  N          2.8830   55.2440   34.1570 N.am  138  GLY138     -0.1954
     30  CA         1.9030   54.2820   33.6380 C.3   138  GLY138      0.1869
     31  C          1.1570   53.5180   34.7320 C.2   138  GLY138      0.2309
     32  O         -0.0040   53.1320   34.5510 O.2   138  GLY138     -0.2863
     33  N         -2.7380   55.1780   35.0740 N.3   142  PHE142     -0.1241
     34  CA        -3.8560   54.3490   34.6500 C.3   142  PHE142      0.1605
     35  C         -4.6640   53.8940   35.8540 C.2   142  PHE142      0.2264
     36  O         -5.8890   53.8370   35.7420 O.2   142  PHE142     -0.2867
     37  CB        -3.4220   53.1430   33.8260 C.3   142  PHE142      0.0534
     38  CG        -3.2040   53.4910   32.3870 C.ar  142  PHE142     -0.0203
     39  CD1       -4.2810   53.6740   31.5300 C.ar  142  PHE142     -0.0042
     40  CD2       -1.9170   53.6300   31.8760 C.ar  142  PHE142     -0.0042
     41  CE1       -4.0770   53.9990   30.1910 C.ar  142  PHE142     -0.0003
     42  CE2       -1.7140   53.9110   30.5290 C.ar  142  PHE142     -0.0003
     43  CZ        -2.7940   54.0960   29.6910 C.ar  142  PHE142     -0.0000
     44  N         -3.8250   47.0030   29.9260 N.3   177  HIS177     -0.1241
     45  CA        -2.7760   47.9540   29.5860 C.3   177  HIS177      0.1621
     46  C         -1.4520   47.2230   29.6140 C.2   177  HIS177      0.2264
     47  O         -1.0610   46.6690   30.6400 O.2   177  HIS177     -0.2867
     48  CB        -2.7590   49.1920   30.4970 C.3   177  HIS177      0.0745
     49  CG        -1.6010   50.0960   30.2080 C.ar  177  HIS177      0.0817
     50  ND1       -0.7380   50.4780   31.1920 N.ar  177  HIS177     -0.2268
     51  CD2       -1.1570   50.5820   29.0210 C.ar  177  HIS177      0.1154
     52  CE1        0.1870   51.2200   30.5940 C.ar  177  HIS177      0.1986
     53  NE2       -0.0180   51.2950   29.2870 N.ar  177  HIS177     -0.2212
     54  N          2.6790   47.0770   27.2400 N.3   179  ILE179     -0.1245
     55  CA         3.5280   47.5390   26.1230 C.3   179  ILE179      0.1561
     56  C          3.3010   46.5250   24.9700 C.2   179  ILE179      0.2260
     57  O          3.0180   45.3540   25.2560 O.2   179  ILE179     -0.2867
     58  CB         5.0350   47.7290   26.5050 C.3   179  ILE179      0.0252
     59  CG1        5.7360   46.3810   26.8030 C.3   179  ILE179      0.0019
     60  CG2        5.1830   48.7290   27.6620 C.3   179  ILE179      0.0019
     61  CD1        7.1640   46.4130   26.9240 C.3   179  ILE179      0.0001
     62  N          1.1700   51.1640   24.5850 N.3   208  GLY208     -0.1210
     63  CA         2.0200   52.3410   24.4380 C.3   208  GLY208      0.1956
     64  C          3.4260   52.1550   24.9660 C.2   208  GLY208      0.2611
     65  O          3.9210   51.0270   25.0330 O.2   208  GLY208     -0.2717
     66  N          4.0870   53.2910   25.3020 N.am  209  ALA209     -0.1979
     67  CA         5.4210   53.4540   25.9060 C.3   209  ALA209      0.1597
     68  C          6.5330   53.3590   24.8790 C.2   209  ALA209      0.2287
     69  O          7.6220   53.8650   25.1410 O.2   209  ALA209     -0.2864
     70  CB         5.6680   52.4260   27.0090 C.3   209  ALA209      0.0319
     71  N         -1.6460   54.3860   22.7610 N.3   230  SER230     -0.1202
     72  CA        -1.6210   55.2580   23.9370 C.3   230  SER230      0.2020
     73  C         -0.3050   56.0260   24.0370 C.2   230  SER230      0.2619
     74  O          0.7630   55.4180   24.2160 O.2   230  SER230     -0.2717
     75  CB        -1.8210   54.4250   25.2020 C.3   230  SER230      0.2103
     76  OG        -1.6750   55.1970   26.3850 O.3   230  SER230     -0.2182
     77  N         -0.3780   57.3500   23.9340 N.am  231  PHE231     -0.1961
     78  CA         0.8180   58.1770   24.0080 C.3   231  PHE231      0.1771
     79  C          0.8950   58.9360   25.3180 C.2   231  PHE231      0.2620
     80  O         -0.1080   59.4440   25.8240 O.2   231  PHE231     -0.2715
     81  CB         0.8710   59.1790   22.8400 C.3   231  PHE231      0.0574
     82  CG         2.0910   60.0630   22.8340 C.ar  231  PHE231     -0.0200
     83  CD1        3.3400   59.5530   22.4870 C.ar  231  PHE231     -0.0042
     84  CD2        1.9950   61.4150   23.1650 C.ar  231  PHE231     -0.0042
     85  CE1        4.4820   60.3690   22.5300 C.ar  231  PHE231     -0.0003
     86  CE2        3.1440   62.2360   23.1820 C.ar  231  PHE231     -0.0003
     87  CZ         4.3680   61.7110   22.8470 C.ar  231  PHE231     -0.0000
     88  N          2.1140   59.0870   25.8000 N.am  232  GLY232     -0.1954
     89  CA         2.3600   59.8740   26.9880 C.3   232  GLY232      0.1869
     90  C          3.8250   60.0270   27.3040 C.2   232  GLY232      0.2309
     91  O          4.6710   59.3540   26.7150 O.2   232  GLY232     -0.2863
     92  N          2.0250   61.7620   32.2640 N.3   236  GLY236     -0.1210
     93  CA         2.2840   60.3700   31.9440 C.3   236  GLY236      0.1940
     94  C          1.2650   59.9400   30.9080 C.2   236  GLY236      0.2453
     95  O          1.1420   60.5970   29.8810 O.2   236  GLY236     -0.2732
     96  N          0.4690   58.8800   31.1610 N.am  237  PRO237     -0.2728
     97  CA        -0.5490   58.4970   30.1710 C.3   237  PRO237      0.1401
     98  C         -1.6830   59.5430   30.0940 C.2   237  PRO237      0.2269
     99  O         -1.7710   60.4340   30.9520 O.2   237  PRO237     -0.2865
    100  CB        -1.0450   57.1370   30.6920 C.3   237  PRO237      0.0296
    101  CG        -0.7550   57.1270   32.1450 C.3   237  PRO237      0.0237
    102  CD         0.4910   57.9370   32.3170 C.3   237  PRO237      0.0939
    103  N         11.7260   47.5970   26.5830 N.3   324  LYS324     -0.1231
    104  CA        10.7160   47.1220   27.5570 C.3   324  LYS324      0.1693
    105  C          9.8910   48.3430   28.0820 C.2   324  LYS324      0.2593
    106  O          9.4520   48.3750   29.2350 O.2   324  LYS324     -0.2718
    107  CB        11.3610   46.3210   28.7100 C.3   324  LYS324      0.0285
    108  CG        12.1680   45.1130   28.2230 C.3   324  LYS324      0.0035
    109  CD        13.0480   44.5290   29.3250 C.3   324  LYS324      0.0206
    110  CE        13.9680   43.4360   28.8270 C.3   324  LYS324      0.1093
    111  NZ        14.9240   42.9830   29.8770 N.3   324  LYS324     -0.1314
    112  N          9.6850   49.3200   27.1920 N.am  325  GLY325     -0.1942
    113  CA         8.9350   50.5470   27.4400 C.3   325  GLY325      0.2014
    114  C          9.5940   51.5370   28.3820 C.2   325  GLY325      0.2638
    115  O          8.9750   52.5360   28.7600 O.2   325  GLY325     -0.2714
    116  N         10.8560   51.2700   28.7670 N.am  326  VAL326     -0.1977
    117  CA        11.6370   52.0890   29.7050 C.3   326  VAL326      0.1596
    118  C         12.6700   52.9020   28.9070 C.2   326  VAL326      0.2287
    119  O         13.3920   52.3490   28.0760 O.2   326  VAL326     -0.2864
    120  CB        12.2980   51.1840   30.7940 C.3   326  VAL326      0.0276
    121  CG1       13.1990   51.9740   31.7430 C.3   326  VAL326      0.0022
    122  CG2       11.2480   50.4010   31.5810 C.3   326  VAL326      0.0022
@<TRIPOS>BOND
     1    83    85   ar
     2    83    82   ar
     3    85    87   ar
     4    71    72    1
     5    82    81    1
     6    82    84   ar
     7    81    78    1
     8    87    86   ar
     9    84    86   ar
    10    77    78    1
    11    77    73   am
    12    72    73    1
    13    72    75    1
    14    78    79    1
    15    73    74    2
    16    63    62    1
    17    63    64    1
    18    68    69    2
    19    68    67    1
    20    64    65    2
    21    64    66   am
    22    56    57    2
    23    56    55    1
    24    75    76    1
    25    66    67    1
    26    79    88   am
    27    79    80    2
    28    88    89    1
    29    67    70    1
    30    55    58    1
    31    55    54    1
    32    58    59    1
    33    58    60    1
    34   103   104    1
    35    91    90    2
    36    59    61    1
    37    89    90    1
    38   112   113    1
    39   112   105   am
    40   113   114    1
    41   104   105    1
    42   104   107    1
    43   119   118    2
    44   105   106    2
    45   108   107    1
    46   108   109    1
    47   114   115    2
    48   114   116   am
    49   116   117    1
    50   110   109    1
    51   110   111    1
    52   118   117    1
    53    51    53   ar
    54    51    49   ar
    55    53    52   ar
    56    45    46    1
    57    45    44    1
    58    45    48    1
    59    46    47    2
    60    43    41   ar
    61    43    42   ar
    62   117   120    1
    63    95    94    2
    64    98    97    1
    65    98    99    2
    66    97   100    1
    67    97    96    1
    68    41    39   ar
    69    49    48    1
    70    49    50   ar
    71    42    40   ar
    72    52    50   ar
    73   100   101    1
    74   120   122    1
    75   120   121    1
    76    94    96   am
    77    94    93    1
    78    96   102    1
    79    39    38   ar
    80    40    38   ar
    81    93    92    1
    82   101   102    1
    83    38    37    1
    84     5     6    1
    85     5     2    1
    86    27    26    1
    87    30    29    1
    88    30    31    1
    89     1     2    1
    90     2     3    1
    91    37    34    1
    92    29    24   am
    93    32    31    2
    94    34    33    1
    95    34    35    1
    96    26    28    1
    97    26    23    1
    98    19    17   ar
    99    19    21   ar
   100    24    25    2
   101    24    23    1
   102    17    16   ar
   103     3     7   am
   104     3     4    2
   105     7     8    1
   106    23    22    1
   107    22    13   am
   108    21    20   ar
   109    36    35    2
   110    16    15    1
   111    16    18   ar
   112    15    12    1
   113     8     9    1
   114    13    12    1
   115    13    14    2
   116    12    11    1
   117    20    18   ar
   118    10     9    2
