@<TRIPOS>MOLECULE
tmp/4r1lD01.pdb
 89 83 0 0 0
SMALL
GASTEIGER

@<TRIPOS>ATOM
      1  N         34.2840    0.9620   52.0140 N.3   125  SER125     -0.1202
      2  CA        32.8380    0.9570   52.1920 C.3   125  SER125      0.2020
      3  C         32.4910    0.9390   53.6900 C.2   125  SER125      0.2619
      4  O         33.2410    0.3970   54.4960 O.2   125  SER125     -0.2717
      5  CB        32.2190   -0.2510   51.4860 C.3   125  SER125      0.2103
      6  OG        30.8430   -0.3740   51.8230 O.3   125  SER125     -0.2182
      7  N         31.3460    1.5080   54.0430 N.am  126  GLY126     -0.1956
      8  CA        30.8430    1.4980   55.4060 C.3   126  GLY126      0.1869
      9  C         30.5150    0.0690   55.7990 C.2   126  GLY126      0.2309
     10  O         30.1280   -0.7400   54.9580 O.2   126  GLY126     -0.2863
     11  N         25.3830   -1.9070   56.1430 N.3   129  PHE129     -0.1241
     12  CA        25.7440   -1.7360   54.7240 C.3   129  PHE129      0.1605
     13  C         26.3670   -3.0050   54.1880 C.2   129  PHE129      0.2264
     14  O         27.3630   -3.4890   54.7460 O.2   129  PHE129     -0.2867
     15  CB        26.7120   -0.5510   54.5180 C.3   129  PHE129      0.0534
     16  CG        26.1750    0.7950   54.9510 C.ar  129  PHE129     -0.0203
     17  CD1       25.1250    1.4040   54.2550 C.ar  129  PHE129     -0.0042
     18  CD2       26.7640    1.4920   56.0050 C.ar  129  PHE129     -0.0042
     19  CE1       24.6420    2.6660   54.6380 C.ar  129  PHE129     -0.0003
     20  CE2       26.2940    2.7590   56.3790 C.ar  129  PHE129     -0.0003
     21  CZ        25.2350    3.3420   55.6890 C.ar  129  PHE129     -0.0000
     22  N         28.1550   -3.5660   51.4970 N.3   131  GLY131     -0.1225
     23  CA        29.4890   -3.4110   50.9220 C.3   131  GLY131      0.1811
     24  C         30.6420   -3.6790   51.8790 C.2   131  GLY131      0.2280
     25  O         31.7540   -3.9910   51.4410 O.2   131  GLY131     -0.2866
     26  N         32.4290   -7.3940   50.8180 N.3   135  PHE135     -0.1241
     27  CA        33.8050   -7.4690   50.3250 C.3   135  PHE135      0.1605
     28  C         34.7160   -8.0460   51.3860 C.2   135  PHE135      0.2264
     29  O         35.6760   -8.7220   51.0220 O.2   135  PHE135     -0.2867
     30  CB        34.3520   -6.0990   49.8400 C.3   135  PHE135      0.0534
     31  CG        33.8330   -5.7120   48.4680 C.ar  135  PHE135     -0.0203
     32  CD1       34.3600   -6.2970   47.3160 C.ar  135  PHE135     -0.0042
     33  CD2       32.7820   -4.8080   48.3320 C.ar  135  PHE135     -0.0042
     34  CE1       33.8360   -5.9990   46.0470 C.ar  135  PHE135     -0.0003
     35  CE2       32.2780   -4.4770   47.0540 C.ar  135  PHE135     -0.0003
     36  CZ        32.8070   -5.0800   45.9220 C.ar  135  PHE135     -0.0000
     37  N         38.5120   -0.9310   47.2360 N.3   170  HIS170     -0.1241
     38  CA        37.0790   -0.7920   47.0160 C.3   170  HIS170      0.1621
     39  C         36.6450    0.5790   47.5210 C.2   170  HIS170      0.2264
     40  O         36.8140    0.9140   48.7040 O.2   170  HIS170     -0.2867
     41  CB        36.2530   -1.9190   47.6600 C.3   170  HIS170      0.0745
     42  CG        34.7800   -1.6930   47.4940 C.ar  170  HIS170      0.0817
     43  ND1       33.9310   -1.6490   48.5860 N.ar  170  HIS170     -0.2268
     44  CD2       34.0740   -1.3810   46.3810 C.ar  170  HIS170      0.1154
     45  CE1       32.7310   -1.3780   48.0960 C.ar  170  HIS170      0.1986
     46  NE2       32.7750   -1.2070   46.7700 N.ar  170  HIS170     -0.2212
     47  N         33.7020    4.0740   46.3370 N.3   172  ILE172     -0.1245
     48  CA        32.7020    4.6400   45.4170 C.3   172  ILE172      0.1561
     49  C         33.4790    5.6030   44.4820 C.2   172  ILE172      0.2260
     50  O         34.4750    6.1690   44.9410 O.2   172  ILE172     -0.2867
     51  CB        31.4850    5.3000   46.1270 C.3   172  ILE172      0.0252
     52  CG1       31.8940    6.5470   46.9150 C.3   172  ILE172      0.0019
     53  CG2       30.7530    4.2820   46.9880 C.3   172  ILE172      0.0019
     54  CD1       30.8010    7.3680   47.4260 C.3   172  ILE172      0.0001
     55  N         31.7580    1.0670   42.5990 N.3   201  GLY201     -0.1210
     56  CA        30.3340    0.8280   42.4020 C.3   201  GLY201      0.1956
     57  C         29.4580    1.8490   43.0930 C.2   201  GLY201      0.2611
     58  O         29.8990    2.9720   43.3370 O.2   201  GLY201     -0.2717
     59  N         28.2070    1.4620   43.4010 N.am  202  ALA202     -0.1979
     60  CA        27.1700    2.2100   44.1320 C.3   202  ALA202      0.1597
     61  C         26.6370    3.4450   43.3500 C.2   202  ALA202      0.2287
     62  O         25.4300    3.6650   43.3530 O.2   202  ALA202     -0.2864
     63  CB        27.6920    2.6670   45.4920 C.3   202  ALA202      0.0319
     64  N         31.5180   -2.3520   39.5460 N.3   223  SER223     -0.1217
     65  CA        30.9520   -3.3060   40.4920 C.3   223  SER223      0.1889
     66  C         29.4840   -3.0170   40.7380 C.2   223  SER223      0.2288
     67  O         29.1380   -1.9500   41.2480 O.2   223  SER223     -0.2866
     68  CB        31.7230   -3.2480   41.8060 C.3   223  SER223      0.2089
     69  OG        31.1520   -4.0580   42.8250 O.3   223  SER223     -0.2183
     70  N         27.3070   -6.6380   47.1680 N.3   230  PRO230     -0.2116
     71  CA        28.2770   -6.7910   46.0520 C.3   230  PRO230      0.1372
     72  C         28.3440   -8.2240   45.5080 C.2   230  PRO230      0.2244
     73  O         27.8630   -9.1690   46.1580 O.2   230  PRO230     -0.2868
     74  CB        29.6220   -6.4150   46.6880 C.3   230  PRO230      0.0268
     75  CG        29.4400   -6.5830   48.1540 C.3   230  PRO230      0.0207
     76  CD        27.9870   -6.4010   48.4620 C.3   230  PRO230      0.0892
     77  N         28.5330    9.6920   51.6650 N.3   400  GLY400     -0.1210
     78  CA        28.2870    8.4750   50.8960 C.3   400  GLY400      0.1956
     79  C         28.1370    8.7930   49.4260 C.2   400  GLY400      0.2611
     80  O         28.8890    9.6320   48.9030 O.2   400  GLY400     -0.2717
     81  N         27.1480    8.1280   48.7560 N.am  401  LYS401     -0.1979
     82  CA        26.8270    8.3540   47.3420 C.3   401  LYS401      0.1596
     83  C         26.6690    9.8380   47.0980 C.2   401  LYS401      0.2287
     84  O         25.9710   10.5100   47.8730 O.2   401  LYS401     -0.2864
     85  CB        25.5540    7.6030   46.9080 C.3   401  LYS401      0.0298
     86  CG        25.6420    6.0820   46.9140 C.3   401  LYS401      0.0038
     87  CD        24.2920    5.4710   46.5400 C.3   401  LYS401      0.0206
     88  CE        24.3140    3.9660   46.5460 C.3   401  LYS401      0.1093
     89  NZ        22.9710    3.3840   46.2930 N.3   401  LYS401     -0.1314
@<TRIPOS>BOND
     1    64    65    1
     2    65    66    1
     3    65    68    1
     4    66    67    2
     5    68    69    1
     6    56    55    1
     7    56    57    1
     8    57    58    2
     9    57    59   am
    10    61    62    2
    11    61    60    1
    12    59    60    1
    13    60    63    1
    14    49    50    2
    15    49    48    1
    16    48    51    1
    17    48    47    1
    18    72    71    1
    19    72    73    2
    20    36    34   ar
    21    36    35   ar
    22    34    32   ar
    23    71    74    1
    24    71    70    1
    25    51    52    1
    26    51    53    1
    27    89    88    1
    28    44    46   ar
    29    44    42   ar
    30    87    88    1
    31    87    86    1
    32    74    75    1
    33    46    45   ar
    34    85    86    1
    35    85    82    1
    36    52    54    1
    37    38    37    1
    38    38    39    1
    39    38    41    1
    40    35    33   ar
    41    83    82    1
    42    83    84    2
    43    70    76    1
    44    32    31   ar
    45    82    81    1
    46    42    41    1
    47    42    43   ar
    48    39    40    2
    49    45    43   ar
    50    75    76    1
    51    33    31   ar
    52    31    30    1
    53    81    79   am
    54    80    79    2
    55    79    78    1
    56    30    27    1
    57    27    26    1
    58    27    28    1
    59    78    77    1
    60    23    22    1
    61    23    24    1
    62    29    28    2
    63    25    24    2
    64     5     6    1
    65     5     2    1
    66     1     2    1
    67     2     3    1
    68     3     7   am
    69     3     4    2
    70     7     8    1
    71    13    12    1
    72    13    14    2
    73    17    19   ar
    74    17    16   ar
    75    15    12    1
    76    15    16    1
    77    19    21   ar
    78    12    11    1
    79    16    18   ar
    80    10     9    2
    81     8     9    1
    82    21    20   ar
    83    18    20   ar
