@<TRIPOS>MOLECULE
tmp/4r1mA00.pdb
 167 159 0 0 0
SMALL
GASTEIGER

@<TRIPOS>ATOM
      1  N          7.2320   55.0520   38.2140 N.3   136  PHE136     -0.1227
      2  CA         6.7010   54.9260   36.8470 C.3   136  PHE136      0.1736
      3  C          5.3200   55.5780   36.7870 C.2   136  PHE136      0.2596
      4  O          4.4110   55.2400   37.5650 O.2   136  PHE136     -0.2718
      5  CB         6.6480   53.4620   36.3600 C.3   136  PHE136      0.0547
      6  CG         7.9930   52.7910   36.2320 C.ar  136  PHE136     -0.0202
      7  CD1        8.8290   53.0710   35.1550 C.ar  136  PHE136     -0.0042
      8  CD2        8.4290   51.8780   37.1870 C.ar  136  PHE136     -0.0042
      9  CE1       10.0850   52.4640   35.0460 C.ar  136  PHE136     -0.0003
     10  CE2        9.6850   51.2660   37.0780 C.ar  136  PHE136     -0.0003
     11  CZ        10.4990   51.5530   36.0030 C.ar  136  PHE136     -0.0000
     12  N          5.1870   56.5460   35.8850 N.am  137  THR137     -0.1953
     13  CA         3.9700   57.3240   35.7450 C.3   137  THR137      0.1897
     14  C          2.8610   56.4620   35.1160 C.2   137  THR137      0.2313
     15  O          1.6960   56.7700   35.3680 O.2   137  THR137     -0.2863
     16  CB         4.2180   58.6150   34.9680 C.3   137  THR137      0.1794
     17  OG1        4.7990   58.3470   33.6750 O.3   137  THR137     -0.2208
     18  CG2        5.0740   59.5630   35.7490 C.3   137  THR137      0.0378
     19  N          1.4210   51.2330   24.6060 N.3   208  GLY208     -0.1210
     20  CA         2.2410   52.4250   24.4240 C.3   208  GLY208      0.1956
     21  C          3.6470   52.2240   24.9330 C.2   208  GLY208      0.2612
     22  O          4.1470   51.1010   24.9220 O.2   208  GLY208     -0.2717
     23  N          4.2980   53.3140   25.3900 N.am  209  ALA209     -0.1965
     24  CA         5.6490   53.3780   25.9800 C.3   209  ALA209      0.1728
     25  C          6.7360   53.0740   24.9610 C.2   209  ALA209      0.2619
     26  O          7.8390   53.6050   25.1310 O.2   209  ALA209     -0.2715
     27  CB         5.7910   52.4220   27.1720 C.3   209  ALA209      0.0334
     28  N          6.4720   52.2440   23.9250 N.am  210  GLU210     -0.1918
     29  CA         7.5430   51.9410   22.9880 C.3   210  GLU210      0.1934
     30  C          7.0720   52.0760   21.5340 C.2   210  GLU210      0.2501
     31  O          5.9250   51.7640   21.2070 O.2   210  GLU210     -0.2726
     32  CB         8.1590   50.5320   23.2300 C.2   210  GLU210      0.0111
     33  CG         7.2330   49.3270   23.1900 C.2   210  GLU210      0.0838
     34  CD         7.8550   47.9580   23.4540 C.2   210  GLU210      0.3877
     35  OE1        8.9250   47.8920   24.1060 O.co2 210  GLU210     -0.2406
     36  OE2        7.2370   46.9410   23.0570 O.co2 210  GLU210     -0.2406
     37  N          7.9780   52.5730   20.6560 N.am  211  PRO211     -0.2713
     38  CA         7.6420   52.6650   19.2230 C.3   211  PRO211      0.1536
     39  C          7.4220   51.2800   18.6440 C.2   211  PRO211      0.2598
     40  O          8.1470   50.3360   18.9670 O.2   211  PRO211     -0.2715
     41  CB         8.8640   53.3630   18.6030 C.3   211  PRO211      0.0310
     42  CG         9.6310   53.9470   19.7790 C.3   211  PRO211      0.0237
     43  CD         9.3770   52.9890   20.8970 C.3   211  PRO211      0.0939
     44  N          6.3730   51.1430   17.8510 N.am  212  HIS212     -0.1974
     45  CA         5.9790   49.8790   17.2240 C.3   212  HIS212      0.1656
     46  C          5.2540   50.1950   15.9490 C.2   212  HIS212      0.2291
     47  O          4.7030   51.2920   15.8350 O.2   212  HIS212     -0.2864
     48  CB         5.1040   49.0400   18.1800 C.3   212  HIS212      0.0771
     49  CG         3.8280   49.7210   18.5850 C.ar  212  HIS212      0.0820
     50  ND1        3.8050   50.6840   19.5920 N.ar  212  HIS212     -0.2267
     51  CD2        2.5690   49.5560   18.1100 C.ar  212  HIS212      0.1154
     52  CE1        2.5380   51.0620   19.7010 C.ar  212  HIS212      0.1986
     53  NE2        1.7550   50.4170   18.8320 N.ar  212  HIS212     -0.2212
     54  N         -3.2750   52.6890   20.4430 N.3   229  ASN229     -0.1225
     55  CA        -2.0300   53.3560   20.7470 C.3   229  ASN229      0.1785
     56  C         -2.2850   54.5370   21.6950 C.2   229  ASN229      0.2598
     57  O         -3.2280   55.3300   21.5510 O.2   229  ASN229     -0.2718
     58  CB        -1.3030   53.8000   19.4800 C.3   229  ASN229      0.1169
     59  CG         0.2020   53.9580   19.6610 C.2   229  ASN229      0.2627
     60  OD1        0.8090   53.5090   20.6600 O.2   229  ASN229     -0.2716
     61  ND2        0.8550   54.5640   18.6620 N.am  229  ASN229     -0.0877
     62  N         -1.4390   54.5690   22.7110 N.am  230  SER230     -0.1938
     63  CA        -1.3690   55.4780   23.8570 C.3   230  SER230      0.2055
     64  C         -0.0600   56.2200   23.8650 C.2   230  SER230      0.2643
     65  O          0.9850   55.5780   23.9430 O.2   230  SER230     -0.2714
     66  CB        -1.5050   54.6610   25.1440 C.3   230  SER230      0.2130
     67  OG        -1.2660   55.4050   26.3340 O.3   230  SER230     -0.2179
     68  N         -0.0930   57.5480   23.8420 N.am  231  PHE231     -0.1959
     69  CA         1.1270   58.3420   23.9470 C.3   231  PHE231      0.1771
     70  C          1.1550   59.1120   25.2830 C.2   231  PHE231      0.2620
     71  O          0.1170   59.5860   25.7650 O.2   231  PHE231     -0.2715
     72  CB         1.2630   59.3030   22.7680 C.3   231  PHE231      0.0574
     73  CG         2.5040   60.1630   22.7780 C.ar  231  PHE231     -0.0200
     74  CD1        3.7570   59.6100   22.5220 C.ar  231  PHE231     -0.0042
     75  CD2        2.4140   61.5400   22.9630 C.ar  231  PHE231     -0.0042
     76  CE1        4.9030   60.4080   22.5180 C.ar  231  PHE231     -0.0003
     77  CE2        3.5610   62.3340   22.9720 C.ar  231  PHE231     -0.0003
     78  CZ         4.7920   61.7690   22.7060 C.ar  231  PHE231     -0.0000
     79  N          2.3520   59.2070   25.8600 N.am  232  GLY232     -0.1954
     80  CA         2.5900   59.9450   27.0880 C.3   232  GLY232      0.1869
     81  C          4.0530   60.0840   27.4440 C.2   232  GLY232      0.2309
     82  O          4.9200   59.4450   26.8370 O.2   232  GLY232     -0.2863
     83  N          6.4890   61.4930   31.2430 N.3   233  THR233     -0.1203
     84  CA         6.4580   61.9960   32.6260 C.3   233  THR233      0.1994
     85  C          6.3430   63.5320   32.6770 C.2   233  THR233      0.2617
     86  O          5.5470   64.0330   33.4710 O.2   233  THR233     -0.2717
     87  CB         7.6940   61.5350   33.3790 C.3   233  THR233      0.1784
     88  OG1        7.6770   60.1100   33.3520 O.3   233  THR233     -0.2211
     89  CG2        7.7150   62.0130   34.8330 C.3   233  THR233      0.0376
     90  N          7.1030   64.2680   31.8190 N.am  234  GLU234     -0.1979
     91  CA         7.1160   65.7360   31.7650 C.3   234  GLU234      0.1602
     92  C          5.7230   66.2890   31.4940 C.2   234  GLU234      0.2287
     93  O          5.3880   67.3650   31.9900 O.2   234  GLU234     -0.2864
     94  CB         8.0920   66.2460   30.6900 C.3   234  GLU234      0.0415
     95  CG         9.5500   65.9010   30.9380 C.3   234  GLU234      0.1163
     96  CD         9.9950   64.5170   30.5070 C.2   234  GLU234      0.3649
     97  OE1        9.1410   63.6760   30.1440 O.co2 234  GLU234     -0.2457
     98  OE2       11.2190   64.2830   30.5000 O.co2 234  GLU234     -0.2457
     99  N          2.4210   61.7400   32.1430 N.3   236  GLY236     -0.1225
    100  CA         2.6460   60.3370   31.8530 C.3   236  GLY236      0.1811
    101  C          1.5850   59.9390   30.8480 C.2   236  GLY236      0.2280
    102  O          1.4100   60.6490   29.8560 O.2   236  GLY236     -0.2866
    103  N         10.5780   67.6960   23.4020 N.3   291  THR291     -0.1218
    104  CA        10.3890   66.2600   23.6830 C.3   291  THR291      0.1862
    105  C         11.4390   65.3550   23.0170 C.2   291  THR291      0.2287
    106  O         11.6950   64.2290   23.4850 O.2   291  THR291     -0.2866
    107  CB         9.0020   65.7960   23.1760 C.3   291  THR291      0.1770
    108  OG1        9.0200   65.7750   21.7440 O.3   291  THR291     -0.2211
    109  CG2        7.8580   66.6490   23.6960 C.3   291  THR291      0.0375
    110  N         10.8610   63.9090   20.3520 N.3   293  ASP293     -0.1239
    111  CA        10.0340   62.9550   19.6000 C.3   293  ASP293      0.1674
    112  C          9.6900   63.5060   18.2120 C.2   293  ASP293      0.2266
    113  O          9.2300   64.6430   18.0840 O.2   293  ASP293     -0.2867
    114  CB         8.7300   62.6260   20.3750 C.3   293  ASP293      0.1410
    115  CG         8.9640   61.8650   21.6540 C.2   293  ASP293      0.3668
    116  OD1        9.7850   60.9260   21.6410 O.co2 293  ASP293     -0.2456
    117  OD2        8.3120   62.1890   22.6580 O.co2 293  ASP293     -0.2456
    118  N          2.1480   58.0890   14.4330 N.3   313  ARG313     -0.1231
    119  CA         2.9120   57.3490   15.4340 C.3   313  ARG313      0.1694
    120  C          4.3710   57.8940   15.4450 C.2   313  ARG313      0.2591
    121  O          4.8350   58.4140   14.4380 O.2   313  ARG313     -0.2718
    122  CB         2.8470   55.8130   15.2180 C.3   313  ARG313      0.0321
    123  CG         3.3130   55.2500   13.8940 C.3   313  ARG313      0.0489
    124  CD         3.1670   53.7120   13.8390 C.3   313  ARG313      0.2205
    125  NE         1.7690   53.2350   13.8440 N.pl3 313  ARG313     -0.0865
    126  CZ         1.1860   52.5790   14.8510 C.cat 313  ARG313      0.5346
    127  NH1        1.8740   52.2800   15.9440 N.pl3 313  ARG313      0.1354
    128  NH2       -0.0820   52.1890   14.7560 N.pl3 313  ARG313      0.1354
    129  N          5.0380   57.8760   16.6160 N.am  314  ILE314     -0.1980
    130  CA         6.4150   58.3960   16.7640 C.3   314  ILE314      0.1595
    131  C          7.3670   57.4610   16.0320 C.2   314  ILE314      0.2287
    132  O          7.5420   56.3350   16.5050 O.2   314  ILE314     -0.2864
    133  CB         6.8180   58.5450   18.2850 C.3   314  ILE314      0.0276
    134  CG1        5.7280   59.1940   19.1730 C.3   314  ILE314      0.0022
    135  CG2        8.2030   59.1530   18.4650 C.3   314  ILE314      0.0022
    136  CD1        5.2160   60.5980   18.7620 C.3   314  ILE314      0.0001
    137  N         13.4570   59.5830   17.3140 N.3   317  ARG317     -0.1245
    138  CA        13.9000   60.6590   18.1840 C.3   317  ARG317      0.1563
    139  C         15.0820   61.4490   17.5860 C.2   317  ARG317      0.2260
    140  O         15.8910   60.8970   16.8520 O.2   317  ARG317     -0.2867
    141  CB        14.2900   60.1040   19.5560 C.3   317  ARG317      0.0307
    142  CG        13.0590   59.7300   20.3720 C.3   317  ARG317      0.0489
    143  CD        13.4190   59.3360   21.7640 C.3   317  ARG317      0.2205
    144  NE        13.9100   60.4300   22.6110 N.pl3 317  ARG317     -0.0865
    145  CZ        13.1620   61.1430   23.4510 C.cat 317  ARG317      0.5346
    146  NH1       11.8540   60.9520   23.5110 N.pl3 317  ARG317      0.1354
    147  NH2       13.7140   62.0750   24.2110 N.pl3 317  ARG317      0.1354
    148  N         14.4140   52.9130   23.9010 N.3   322  ILE322     -0.1245
    149  CA        13.4130   52.3200   24.7890 C.3   322  ILE322      0.1561
    150  C         13.4850   50.8110   24.6610 C.2   322  ILE322      0.2260
    151  O         13.3950   50.2920   23.5470 O.2   322  ILE322     -0.2867
    152  CB        11.9870   52.8690   24.4680 C.3   322  ILE322      0.0252
    153  CG1       11.9950   54.4350   24.4230 C.3   322  ILE322      0.0019
    154  CG2       10.9400   52.3120   25.4740 C.3   322  ILE322      0.0019
    155  CD1       10.8160   55.0880   23.9090 C.3   322  ILE322      0.0001
    156  N          9.8060   48.9210   27.6370 N.3   325  GLY325     -0.1225
    157  CA         9.0160   50.0920   28.0160 C.3   325  GLY325      0.1811
    158  C          9.7440   51.1200   28.8640 C.2   325  GLY325      0.2280
    159  O          9.1440   52.1150   29.2670 O.2   325  GLY325     -0.2866
    160  N         12.8060   53.9730   29.3280 N.3   327  ASN327     -0.1240
    161  CA        13.6490   54.9400   28.6240 C.3   327  ASN327      0.1653
    162  C         15.0660   54.9290   29.1860 C.2   327  ASN327      0.2266
    163  O         15.2590   55.1000   30.3980 O.2   327  ASN327     -0.2867
    164  CB        13.0610   56.3420   28.7300 C.3   327  ASN327      0.1155
    165  CG        11.7030   56.5480   28.1310 C.2   327  ASN327      0.2627
    166  OD1       11.1040   55.6740   27.5040 O.2   327  ASN327     -0.2716
    167  ND2       11.2410   57.7650   28.2230 N.am  327  ASN327     -0.0877
@<TRIPOS>BOND
     1   124   125    1
     2   124   123    1
     3   125   126    2
     4   123   122    1
     5   118   119    1
     6   121   120    2
     7   128   126    1
     8   126   127    1
     9   122   119    1
    10   119   120    1
    11   120   129   am
    12    47    46    2
    13    46    45    1
    14   131   132    2
    15   131   130    1
    16   129   130    1
    17   130   133    1
    18   140   139    2
    19    45    44    1
    20    45    48    1
    21   137   138    1
    22   139   138    1
    23    44    39   am
    24   113   112    2
    25    51    49   ar
    26    51    53   ar
    27    48    49    1
    28   138   141    1
    29   112   111    1
    30   133   135    1
    31   133   134    1
    32    49    50   ar
    33    41    38    1
    34    41    42    1
    35    39    40    2
    36    39    38    1
    37    61    59   am
    38   136   134    1
    39    53    52   ar
    40    38    37    1
    41    58    59    1
    42    58    55    1
    43   141   142    1
    44    50    52   ar
    45   111   110    1
    46   111   114    1
    47    59    60    2
    48    42    43    1
    49   142   143    1
    50   114   115    1
    51    54    55    1
    52    37    43    1
    53    37    30   am
    54    55    56    1
    55    31    30    2
    56    30    29    1
    57    57    56    2
    58   116   115   ar
    59   115   117   ar
    60    56    62   am
    61   108   107    1
    62   143   144    1
    63    76    74   ar
    64    76    78   ar
    65    74    73   ar
    66   144   145    2
    67    78    77   ar
    68    62    63    1
    69    72    73    1
    70    72    69    1
    71    73    75   ar
    72    75    77   ar
    73    29    32    1
    74    29    28    1
    75   105   106    2
    76   105   104    1
    77    36    34   ar
    78   107   104    1
    79   107   109    1
    80    33    32    2
    81    33    34    1
    82   103   104    1
    83   145   146    1
    84   145   147    1
    85    34    35   ar
    86   151   150    2
    87    68    64   am
    88    68    69    1
    89    63    64    1
    90    63    66    1
    91    64    65    2
    92   148   149    1
    93   155   153    1
    94    28    25   am
    95    69    70    1
    96   153   152    1
    97    20    19    1
    98    20    21    1
    99   152   149    1
   100   152   154    1
   101   150   149    1
   102    22    21    2
   103    21    23   am
   104    25    26    2
   105    25    24    1
   106    66    67    1
   107    70    71    2
   108    70    79   am
   109    23    24    1
   110    79    80    1
   111    24    27    1
   112    82    81    2
   113    80    81    1
   114   166   165    2
   115   156   157    1
   116   157   158    1
   117   165   167   am
   118   165   164    1
   119   161   164    1
   120   161   162    1
   121   161   160    1
   122   158   159    2
   123   162   163    2
   124   102   101    2
   125    97    96   ar
   126    98    96   ar
   127    96    95    1
   128    94    95    1
   129    94    91    1
   130   101   100    1
   131    83    84    1
   132    92    91    1
   133    92    93    2
   134    91    90    1
   135    90    85   am
   136   100    99    1
   137    84    85    1
   138    84    87    1
   139    85    86    2
   140    88    87    1
   141    87    89    1
   142    17    16    1
   143    16    13    1
   144    16    18    1
   145     9     7   ar
   146     9    11   ar
   147    14    15    2
   148    14    13    1
   149     7     6   ar
   150    13    12    1
   151    12     3   am
   152    11    10   ar
   153     6     5    1
   154     6     8   ar
   155     5     2    1
   156     3     2    1
   157     3     4    2
   158     2     1    1
   159    10     8   ar
