@<TRIPOS>MOLECULE
tmp/4r1qE01.pdb
 95 92 0 0 0
SMALL
GASTEIGER

@<TRIPOS>ATOM
      1  N         39.7330   31.3830   35.0100 N.3   185  MET185     -0.1245
      2  CA        41.1120   31.7620   34.7370 C.3   185  MET185      0.1570
      3  C         41.3980   31.3820   33.2920 C.2   185  MET185      0.2261
      4  O         41.1280   30.2500   32.8810 O.2   185  MET185     -0.2867
      5  CB        42.0770   31.0370   35.6690 C.3   185  MET185      0.0387
      6  CG        43.5480   31.3150   35.3650 C.3   185  MET185      0.0595
      7  SD        44.6870   30.4200   36.4520 S.3   185  MET185     -0.1393
      8  CE        46.2320   30.5960   35.5540 C.3   185  MET185      0.0692
      9  N         41.4580   35.9200   40.2270 N.3   279  PHE279     -0.1241
     10  CA        42.4930   36.9240   40.4630 C.3   279  PHE279      0.1605
     11  C         42.7610   37.7480   39.2170 C.2   279  PHE279      0.2264
     12  O         43.3480   38.8140   39.3000 O.2   279  PHE279     -0.2867
     13  CB        43.7900   36.3040   41.0050 C.3   279  PHE279      0.0534
     14  CG        44.4530   35.3200   40.0710 C.ar  279  PHE279     -0.0203
     15  CD1       45.1790   35.7560   38.9720 C.ar  279  PHE279     -0.0042
     16  CD2       44.3830   33.9560   40.3220 C.ar  279  PHE279     -0.0042
     17  CE1       45.7980   34.8510   38.1240 C.ar  279  PHE279     -0.0003
     18  CE2       44.9990   33.0440   39.4850 C.ar  279  PHE279     -0.0003
     19  CZ        45.7100   33.4930   38.3810 C.ar  279  PHE279     -0.0000
     20  N         39.3440   30.8890   41.0070 N.3   306  GLU306     -0.1245
     21  CA        39.6260   30.9850   39.5770 C.3   306  GLU306      0.1567
     22  C         38.4270   30.6190   38.6960 C.2   306  GLU306      0.2260
     23  O         38.5770   30.0090   37.6360 O.2   306  GLU306     -0.2867
     24  CB        40.8750   30.1490   39.2410 C.3   306  GLU306      0.0388
     25  CG        42.1460   30.7010   39.9040 C.3   306  GLU306      0.1160
     26  CD        42.9230   29.6620   40.7040 C.2   306  GLU306      0.3649
     27  OE1       42.3050   28.7130   41.2220 O.co2 306  GLU306     -0.2457
     28  OE2       44.1640   29.7890   40.8130 O.co2 306  GLU306     -0.2457
     29  N         43.5960   22.3930   47.1740 N.3   331  GLU331     -0.1245
     30  CA        44.3680   22.1430   45.9640 C.3   331  GLU331      0.1567
     31  C         45.7050   21.5080   46.3300 C.2   331  GLU331      0.2260
     32  O         46.3460   21.9380   47.2870 O.2   331  GLU331     -0.2867
     33  CB        44.5730   23.4460   45.1860 C.3   331  GLU331      0.0388
     34  CG        45.4680   23.2910   43.9880 C.3   331  GLU331      0.1160
     35  CD        45.5160   24.5250   43.1110 C.2   331  GLU331      0.3649
     36  OE1       45.2000   25.6350   43.5840 O.co2 331  GLU331     -0.2457
     37  OE2       45.8860   24.3800   41.9300 O.co2 331  GLU331     -0.2457
     38  N         49.4310   21.0900   46.3130 N.3   333  TYR333     -0.1241
     39  CA        50.4050   22.1370   46.0010 C.3   333  TYR333      0.1605
     40  C         51.8100   21.6210   45.7150 C.2   333  TYR333      0.2264
     41  O         52.3610   21.9030   44.6650 O.2   333  TYR333     -0.2867
     42  CB        50.4080   23.2520   47.0490 C.3   333  TYR333      0.0534
     43  CG        50.0540   24.5850   46.4360 C.ar  333  TYR333     -0.0201
     44  CD1       48.7360   25.0160   46.3850 C.ar  333  TYR333     -0.0009
     45  CD2       51.0360   25.3920   45.8630 C.ar  333  TYR333     -0.0009
     46  CE1       48.4020   26.2330   45.8080 C.ar  333  TYR333      0.0417
     47  CE2       50.7150   26.6070   45.2820 C.ar  333  TYR333      0.0417
     48  CZ        49.3930   27.0260   45.2580 C.ar  333  TYR333      0.1957
     49  OH        49.0660   28.2360   44.6770 O.3   333  TYR333     -0.2866
     50  N         45.7400   26.7220   49.2240 N.3   348  HIS348     -0.1226
     51  CA        45.4730   27.5780   48.0800 C.3   348  HIS348      0.1752
     52  C         46.2390   28.8710   48.3030 C.2   348  HIS348      0.2595
     53  O         46.8380   29.0460   49.3620 O.2   348  HIS348     -0.2718
     54  CB        43.9840   27.8400   47.8610 C.3   348  HIS348      0.0759
     55  CG        43.6360   28.0700   46.4210 C.ar  348  HIS348      0.0818
     56  ND1       43.2140   29.2890   45.9350 N.ar  348  HIS348     -0.2268
     57  CD2       43.6890   27.2390   45.3530 C.ar  348  HIS348      0.1154
     58  CE1       43.0050   29.1950   44.6330 C.ar  348  HIS348      0.1986
     59  NE2       43.2840   27.9600   44.2550 N.ar  348  HIS348     -0.2212
     60  N         46.2320   29.7690   47.3210 N.am  349  MET349     -0.1979
     61  CA        46.9840   31.0090   47.4620 C.3   349  MET349      0.1605
     62  C         46.5470   31.8190   48.6900 C.2   349  MET349      0.2287
     63  O         47.3550   32.5360   49.2720 O.2   349  MET349     -0.2864
     64  CB        46.9600   31.8490   46.1760 C.3   349  MET349      0.0413
     65  CG        45.5930   32.3160   45.7090 C.3   349  MET349      0.0598
     66  SD        45.7260   33.2190   44.1300 S.3   349  MET349     -0.1393
     67  CE        46.2940   31.9190   43.0320 C.3   349  MET349      0.0692
     68  N         50.3330   37.4700   42.6490 N.3   370  ILE370     -0.1245
     69  CA        49.2530   36.9220   41.8220 C.3   370  ILE370      0.1561
     70  C         48.0030   37.7890   41.8960 C.2   370  ILE370      0.2260
     71  O         47.3340   37.8320   42.9250 O.2   370  ILE370     -0.2867
     72  CB        48.8900   35.4850   42.2600 C.3   370  ILE370      0.0252
     73  CG1       50.1510   34.6240   42.3400 C.3   370  ILE370      0.0019
     74  CG2       47.8740   34.8730   41.3030 C.3   370  ILE370      0.0019
     75  CD1       49.8810   33.1390   42.4910 C.3   370  ILE370      0.0001
     76  N         42.7480   19.4770   39.8280 N.3   446  HIS446     -0.1226
     77  CA        43.6680   19.9730   40.8480 C.3   446  HIS446      0.1752
     78  C         42.9010   20.6470   42.0050 C.2   446  HIS446      0.2596
     79  O         43.4020   20.7250   43.1340 O.2   446  HIS446     -0.2718
     80  CB        44.6600   20.9430   40.2070 C.3   446  HIS446      0.0759
     81  CG        44.0210   22.1660   39.6280 C.ar  446  HIS446      0.0818
     82  ND1       42.9700   22.1070   38.7390 N.ar  446  HIS446     -0.2268
     83  CD2       44.2770   23.4820   39.8190 C.ar  446  HIS446      0.1154
     84  CE1       42.6040   23.3360   38.4090 C.ar  446  HIS446      0.1986
     85  NE2       43.3810   24.1880   39.0500 N.ar  446  HIS446     -0.2212
     86  N         41.6920   21.1380   41.7180 N.am  447  HIS447     -0.1975
     87  CA        40.8020   21.6740   42.7580 C.3   447  HIS447      0.1656
     88  C         39.9460   20.5560   43.3180 C.2   447  HIS447      0.2291
     89  O         39.3830   19.7530   42.5630 O.2   447  HIS447     -0.2864
     90  CB        39.8670   22.7480   42.2020 C.3   447  HIS447      0.0771
     91  CG        40.5270   24.0670   41.9620 C.ar  447  HIS447      0.0820
     92  ND1       39.9270   25.0740   41.2380 N.ar  447  HIS447     -0.2267
     93  CD2       41.7320   24.5470   42.3500 C.ar  447  HIS447      0.1154
     94  CE1       40.7380   26.1160   41.1800 C.ar  447  HIS447      0.1986
     95  NE2       41.8390   25.8230   41.8470 N.ar  447  HIS447     -0.2212
@<TRIPOS>BOND
     1     4     3    2
     2     3     2    1
     3     2     1    1
     4     2     5    1
     5     6     5    1
     6     6     7    1
     7     8     7    1
     8    23    22    2
     9    17    19   ar
    10    17    15   ar
    11    19    18   ar
    12    84    82   ar
    13    84    85   ar
    14    22    21    1
    15    82    81   ar
    16    15    14   ar
    17    85    83   ar
    18    11    12    2
    19    11    10    1
    20    24    21    1
    21    24    25    1
    22    18    16   ar
    23    21    20    1
    24    81    83   ar
    25    81    80    1
    26    76    77    1
    27    25    26    1
    28    14    16   ar
    29    14    13    1
    30    80    77    1
    31     9    10    1
    32    10    13    1
    33    26    28   ar
    34    26    27   ar
    35    77    78    1
    36    94    92   ar
    37    94    95   ar
    38    92    91   ar
    39    74    72    1
    40    86    78   am
    41    86    87    1
    42    69    70    1
    43    69    72    1
    44    69    68    1
    45    95    93   ar
    46    70    71    2
    47    37    35   ar
    48    91    90    1
    49    91    93   ar
    50    78    79    2
    51    90    87    1
    52    72    73    1
    53    73    75    1
    54    89    88    2
    55    87    88    1
    56    67    66    1
    57    35    36   ar
    58    35    34    1
    59    34    33    1
    60    66    65    1
    61    59    58   ar
    62    59    57   ar
    63    58    56   ar
    64    41    40    2
    65    49    48    1
    66    33    30    1
    67    48    47   ar
    68    48    46   ar
    69    47    45   ar
    70    57    55   ar
    71    65    64    1
    72    40    39    1
    73    46    44   ar
    74    45    43   ar
    75    56    55   ar
    76    30    31    1
    77    30    29    1
    78    39    38    1
    79    39    42    1
    80    64    61    1
    81    31    32    2
    82    44    43   ar
    83    55    54    1
    84    43    42    1
    85    60    61    1
    86    60    52   am
    87    61    62    1
    88    54    51    1
    89    51    52    1
    90    51    50    1
    91    52    53    2
    92    62    63    2
