@<TRIPOS>MOLECULE
tmp/4r1rE01.pdb
 140 135 0 0 0
SMALL
GASTEIGER

@<TRIPOS>ATOM
      1  N        -16.7450   36.7770   30.2970 N.2   204  PRO204     -0.2571
      2  CA       -16.2280   36.2270   29.0600 C.3   204  PRO204      0.2026
      3  C        -14.9030   36.8150   28.6570 C.2   204  PRO204      0.2684
      4  O        -14.5890   37.9720   29.0590 O.2   204  PRO204     -0.2709
      5  CB       -17.2710   36.4460   27.9520 C.2   204  PRO204      0.0085
      6  CG       -18.4190   37.1950   28.6400 C.2   204  PRO204      0.0180
      7  CD       -18.0770   37.4040   30.1100 C.2   204  PRO204      0.0938
      8  N        -14.1750   36.0150   27.8720 N.am  205  THR205     -0.1932
      9  CA       -12.8210   36.3730   27.4050 C.3   205  THR205      0.2017
     10  C        -12.8180   37.7490   26.6790 C.2   205  THR205      0.2521
     11  O        -11.9870   38.6170   26.9830 O.2   205  THR205     -0.2726
     12  CB       -12.2440   35.2730   26.4970 C.3   205  THR205      0.1807
     13  OG1      -12.7390   33.9980   26.8940 O.3   205  THR205     -0.2208
     14  CG2      -10.7110   35.1980   26.5680 C.3   205  THR205      0.0379
     15  N        -13.7390   38.0430   25.7220 N.am  206  PRO206     -0.2503
     16  CA       -13.7680   39.3320   24.9860 C.3   206  PRO206      0.1487
     17  C        -13.8650   40.5550   25.8840 C.2   206  PRO206      0.2276
     18  O        -13.1150   41.5560   25.6570 O.2   206  PRO206     -0.2865
     19  CB       -14.9880   39.2330   24.1030 C.3   206  PRO206      0.0556
     20  CG       -15.5950   37.8570   24.3130 C.2   206  PRO206     -0.0078
     21  CD       -14.7700   37.0970   25.3060 C.2   206  PRO206      0.0634
     22  N        -19.6720   37.7250   20.8730 N.3   220  SER220     -0.1202
     23  CA       -19.1140   36.3870   20.7430 C.3   220  SER220      0.2020
     24  C        -20.1220   35.4130   20.1390 C.2   220  SER220      0.2619
     25  O        -19.7480   34.3610   19.6010 O.2   220  SER220     -0.2717
     26  CB       -18.6560   35.8650   22.1110 C.3   220  SER220      0.2103
     27  OG       -18.0890   36.9240   22.8690 O.3   220  SER220     -0.2182
     28  N        -21.3860   35.7700   20.2320 N.am  221  CYS221     -0.1969
     29  CA       -22.4550   34.9330   19.6760 C.3   221  CYS221      0.1712
     30  C        -23.3830   35.7380   18.7780 C.2   221  CYS221      0.2296
     31  O        -23.8650   36.8150   19.1630 O.2   221  CYS221     -0.2864
     32  CB       -23.3270   34.3220   20.7720 C.3   221  CYS221      0.0983
     33  SG       -22.5600   34.3580   22.4140 S.3   221  CYS221     -0.0798
     34  N        -14.2560   37.6390   15.5670 N.3   247  ARG247     -0.1231
     35  CA       -14.1700   36.6120   16.5920 C.3   247  ARG247      0.1694
     36  C        -15.4920   36.1650   17.2070 C.2   247  ARG247      0.2592
     37  O        -15.4960   35.7240   18.3690 O.2   247  ARG247     -0.2718
     38  CB       -13.2040   37.0550   17.7090 C.3   247  ARG247      0.0321
     39  CG       -11.7290   36.9120   17.3740 C.3   247  ARG247      0.0489
     40  CD       -10.8640   37.5540   18.4470 C.3   247  ARG247      0.2205
     41  NE        -9.5390   37.9220   17.9650 N.pl3 247  ARG247     -0.0865
     42  CZ        -8.4240   37.9620   18.6870 C.cat 247  ARG247      0.5346
     43  NH1       -8.4160   37.6550   19.9810 N.pl3 247  ARG247      0.1354
     44  NH2       -7.2720   38.3160   18.1230 N.pl3 247  ARG247      0.1354
     45  N        -16.5910   36.2350   16.4640 N.am  248  ALA248     -0.1966
     46  CA       -17.8810   35.8200   17.0060 C.3   248  ALA248      0.1728
     47  C        -18.2180   34.3850   16.6380 C.2   248  ALA248      0.2616
     48  O        -18.0140   33.9960   15.4890 O.2   248  ALA248     -0.2715
     49  CB       -18.9710   36.7310   16.4600 C.3   248  ALA248      0.0334
     50  N        -18.7610   33.5900   17.5480 N.am  249  GLY249     -0.1955
     51  CA       -19.2580   32.2500   17.2080 C.3   249  GLY249      0.1869
     52  C        -20.5810   32.4870   16.4650 C.2   249  GLY249      0.2309
     53  O        -21.3050   33.4560   16.7340 O.2   249  GLY249     -0.2863
     54  N        -15.9580   29.7510   14.2920 N.3   297  ALA297     -0.1245
     55  CA       -16.6940   28.4870   14.3520 C.3   297  ALA297      0.1562
     56  C        -18.1750   28.7300   14.1050 C.2   297  ALA297      0.2260
     57  O        -18.6760   29.8440   14.2780 O.2   297  ALA297     -0.2867
     58  CB       -16.4120   27.7880   15.6720 C.3   297  ALA297      0.0290
     59  N        -26.9940   28.2130   18.7790 N.3   433  ASN433     -0.1225
     60  CA       -25.6840   28.8130   18.4040 C.3   433  ASN433      0.1785
     61  C        -24.6350   27.7210   18.1850 C.2   433  ASN433      0.2597
     62  O        -24.9630   26.5410   17.9990 O.2   433  ASN433     -0.2718
     63  CB       -25.1830   29.7910   19.4830 C.3   433  ASN433      0.1169
     64  CG       -24.7310   29.1090   20.7750 C.2   433  ASN433      0.2627
     65  OD1      -25.3730   28.1580   21.2170 O.2   433  ASN433     -0.2716
     66  ND2      -23.6620   29.5460   21.4160 N.am  433  ASN433     -0.0877
     67  N        -23.4060   28.1550   18.2070 N.am  434  LEU434     -0.1966
     68  CA       -22.2540   27.2870   18.0140 C.3   434  LEU434      0.1728
     69  C        -22.2510   26.1510   19.0490 C.2   434  LEU434      0.2616
     70  O        -22.1380   24.9710   18.7050 O.2   434  LEU434     -0.2715
     71  CB       -20.9860   28.1230   18.1640 C.3   434  LEU434      0.0311
     72  CG       -19.6930   27.3150   18.1000 C.3   434  LEU434      0.0022
     73  CD1      -19.5700   26.4840   16.8230 C.3   434  LEU434      0.0001
     74  CD2      -18.4490   28.2090   18.1480 C.3   434  LEU434      0.0001
     75  N        -22.3930   26.5150   20.3170 N.am  435  CYS435     -0.1968
     76  CA       -22.2840   25.5280   21.4110 C.3   435  CYS435      0.1712
     77  C        -23.6230   25.0300   21.9280 C.2   435  CYS435      0.2296
     78  O        -23.7150   24.3600   22.9690 O.2   435  CYS435     -0.2864
     79  CB       -21.4760   26.1290   22.5570 C.3   435  CYS435      0.0983
     80  SG       -19.9010   26.8480   21.9830 S.3   435  CYS435     -0.0798
     81  N        -26.2920   26.4180   23.3630 N.3   437  GLU437     -0.1245
     82  CA       -26.8880   26.8600   24.6230 C.3   437  GLU437      0.1567
     83  C        -27.7340   28.1130   24.4580 C.2   437  GLU437      0.2260
     84  O        -28.5980   28.3920   25.3040 O.2   437  GLU437     -0.2867
     85  CB       -25.7880   27.0170   25.6660 C.3   437  GLU437      0.0388
     86  CG       -25.2710   28.4180   25.9230 C.3   437  GLU437      0.1160
     87  CD       -24.2320   28.7890   24.8820 C.2   437  GLU437      0.3649
     88  OE1      -24.0750   27.9870   23.9450 O.co2 437  GLU437     -0.2457
     89  OE2      -23.6210   29.8600   25.0500 O.co2 437  GLU437     -0.2457
     90  N        -22.6860   37.0950   27.4830 N.3   460  LEU460     -0.1245
     91  CA       -22.5830   36.0790   28.5200 C.3   460  LEU460      0.1561
     92  C        -21.7280   36.4480   29.7240 C.2   460  LEU460      0.2260
     93  O        -21.0100   37.4380   29.7800 O.2   460  LEU460     -0.2867
     94  CB       -22.0440   34.7790   27.9270 C.3   460  LEU460      0.0270
     95  CG       -22.3300   34.4020   26.4810 C.3   460  LEU460      0.0019
     96  CD1      -21.5650   33.1170   26.1670 C.3   460  LEU460      0.0001
     97  CD2      -23.8140   34.2190   26.1930 C.3   460  LEU460      0.0001
     98  N        -23.6190   27.7580   29.5910 N.3   616  MET616     -0.1231
     99  CA       -22.6090   27.5640   28.5490 C.3   616  MET616      0.1690
    100  C        -21.3360   26.9250   29.0690 C.2   616  MET616      0.2472
    101  O        -21.0060   27.0300   30.2600 O.2   616  MET616     -0.2730
    102  CB       -22.1470   28.8970   27.9850 C.3   616  MET616      0.0400
    103  CG       -21.0680   29.5440   28.8590 C.3   616  MET616      0.0596
    104  SD       -21.7550   30.3770   30.2710 S.3   616  MET616     -0.1393
    105  CE       -22.9600   31.5640   29.7240 C.3   616  MET616      0.0692
    106  N        -20.6110   26.2470   28.1900 N.am  617  PRO617     -0.2492
    107  CA       -19.3220   25.7030   28.5330 C.3   617  PRO617      0.1619
    108  C        -18.3890   26.8510   28.8300 C.2   617  PRO617      0.2606
    109  O        -18.7280   28.0280   28.5060 O.2   617  PRO617     -0.2715
    110  CB       -18.9060   24.9710   27.2820 C.3   617  PRO617      0.0570
    111  CG       -19.9950   25.1740   26.2380 C.2   617  PRO617     -0.0077
    112  CD       -21.0770   26.0100   26.8290 C.2   617  PRO617      0.0634
    113  N        -17.2560   26.5390   29.4160 N.am  618  SER618     -0.1936
    114  CA       -16.2360   27.5530   29.7420 C.3   618  SER618      0.2055
    115  C        -14.9180   26.8430   30.0280 C.2   618  SER618      0.2643
    116  O        -14.8590   25.8700   30.7790 O.2   618  SER618     -0.2714
    117  CB       -16.6660   28.3580   30.9720 C.3   618  SER618      0.2130
    118  OG       -16.7320   27.5110   32.1090 O.3   618  SER618     -0.2179
    119  N        -13.8540   27.3080   29.4270 N.am  619  GLU619     -0.1963
    120  CA       -12.5480   26.6830   29.6550 C.3   619  GLU619      0.1733
    121  C        -11.5950   27.6860   30.2560 C.2   619  GLU619      0.2617
    122  O        -10.9250   27.4240   31.2610 O.2   619  GLU619     -0.2715
    123  CB       -11.9470   26.1980   28.3280 C.3   619  GLU619      0.0429
    124  CG       -10.4980   25.7130   28.4620 C.3   619  GLU619      0.1163
    125  CD       -10.3960   24.2710   28.9590 C.2   619  GLU619      0.3649
    126  OE1      -10.6820   23.2950   28.1680 O.co2 619  GLU619     -0.2457
    127  OE2      -10.0250   24.0350   30.1700 O.co2 619  GLU619     -0.2457
    128  N        -11.6210   28.7770   29.6160 N.am  620  THR620     -0.1937
    129  CA       -10.7280   29.8640   29.8530 C.3   620  THR620      0.2028
    130  C        -11.1270   30.6840   31.1080 C.2   620  THR620      0.2642
    131  O        -10.2680   31.0410   31.9290 O.2   620  THR620     -0.2714
    132  CB       -10.7270   30.6120   28.5420 C.3   620  THR620      0.1808
    133  OG1      -10.5370   29.6700   27.4760 O.3   620  THR620     -0.2208
    134  CG2       -9.6330   31.6490   28.4480 C.3   620  THR620      0.0379
    135  N        -12.4190   30.9900   31.2630 N.am  621  SER621     -0.1949
    136  CA       -12.9230   31.7590   32.4410 C.3   621  SER621      0.1924
    137  C        -12.7160   30.9440   33.7320 C.2   621  SER621      0.2314
    138  O        -12.2710   31.4670   34.7640 O.2   621  SER621     -0.2863
    139  CB       -14.4210   32.0720   32.2990 C.3   621  SER621      0.2116
    140  OG       -14.9470   31.4290   31.1510 O.3   621  SER621     -0.2180
@<TRIPOS>BOND
     1    56    57    2
     2    56    55    1
     3    54    55    1
     4    55    58    1
     5    48    47    2
     6    34    35    1
     7    49    46    1
     8    45    46    1
     9    45    36   am
    10    52    53    2
    11    52    51    1
    12    35    36    1
    13    35    38    1
    14    47    46    1
    15    47    50   am
    16    73    72    1
    17    36    37    2
    18    51    50    1
    19    39    38    1
    20    39    40    1
    21    41    40    1
    22    41    42    2
    23    62    61    2
    24    68    71    1
    25    68    67    1
    26    68    69    1
    27    72    74    1
    28    72    71    1
    29    44    42    1
    30    61    67   am
    31    61    60    1
    32    60    59    1
    33    60    63    1
    34    42    43    1
    35    70    69    2
    36    30    31    2
    37    30    29    1
    38    69    75   am
    39    63    64    1
    40    25    24    2
    41    29    28    1
    42    29    32    1
    43    24    28   am
    44    24    23    1
    45    75    76    1
    46    23    22    1
    47    23    26    1
    48    32    33    1
    49    64    65    2
    50    64    66   am
    51    76    77    1
    52    76    79    1
    53    77    78    2
    54    80    79    1
    55    26    27    1
    56    81    82    1
    57    88    87   ar
    58    19    20    1
    59    19    16    1
    60    20    21    2
    61    83    82    1
    62    83    84    2
    63    82    85    1
    64    87    89   ar
    65    87    86    1
    66    16    15    1
    67    16    17    1
    68    21    15    1
    69    18    17    2
    70    85    86    1
    71    15    10   am
    72    96    95    1
    73    97    95    1
    74   111   112    2
    75   111   110    1
    76    95    94    1
    77    12    14    1
    78    12    13    1
    79    12     9    1
    80    10    11    2
    81    10     9    1
    82   112   106    1
    83   110   107    1
    84     9     8    1
    85   133   132    1
    86    90    91    1
    87     8     3   am
    88    94    91    1
    89     5     6    2
    90     5     2    1
    91   102    99    1
    92   102   103    1
    93   126   125   ar
    94   106   107    1
    95   106   100   am
    96   123   124    1
    97   123   120    1
    98   134   132    1
    99   124   125    1
   100   109   108    2
   101    91    92    1
   102   107   108    1
   103   132   129    1
   104    99   100    1
   105    99    98    1
   106     6     7    1
   107     3     4    2
   108     3     2    1
   109   108   113   am
   110   103   104    1
   111   125   127   ar
   112     2     1    1
   113   100   101    2
   114   113   114    1
   115   119   120    1
   116   119   115   am
   117   128   129    1
   118   128   121   am
   119   120   121    1
   120   105   104    1
   121    92    93    2
   122   114   115    1
   123   114   117    1
   124   129   130    1
   125   115   116    2
   126     7     1    2
   127   121   122    2
   128   117   118    1
   129   130   135   am
   130   130   131    2
   131   140   139    1
   132   135   136    1
   133   139   136    1
   134   136   137    1
   135   137   138    2
