@<TRIPOS>MOLECULE
tmp/4r1vA00.pdb
 202 194 0 0 0
SMALL
GASTEIGER

@<TRIPOS>ATOM
      1  N        112.0190   20.3270  132.7450 N.3    30  ILE30      -0.1231
      2  CA       112.5940   20.5180  134.0900 C.3    30  ILE30       0.1692
      3  C        111.9320   19.6660  135.1800 C.2    30  ILE30       0.2593
      4  O        112.4450   19.5480  136.2870 O.2    30  ILE30      -0.2718
      5  CB       112.6380   22.0210  134.5150 C.3    30  ILE30       0.0266
      6  CG1      111.2460   22.5610  134.8230 C.3    30  ILE30       0.0019
      7  CG2      113.2940   22.8720  133.4280 C.3    30  ILE30       0.0020
      8  CD1      111.2500   23.9220  135.5040 C.3    30  ILE30       0.0001
      9  N        110.7940   19.0600  134.8570 N.am   31  GLY31      -0.1942
     10  CA       110.1030   18.1610  135.7820 C.3    31  GLY31       0.2014
     11  C        109.0800   17.3590  135.0140 C.2    31  GLY31       0.2638
     12  O        108.6460   17.7840  133.9580 O.2    31  GLY31      -0.2714
     13  N        108.7160   16.2020  135.5430 N.am   32  ARG32      -0.1977
     14  CA       107.8620   15.2430  134.8360 C.3    32  ARG32       0.1597
     15  C        106.7370   14.7430  135.7380 C.2    32  ARG32       0.2287
     16  O        106.9780   14.0770  136.7270 O.2    32  ARG32      -0.2864
     17  CB       108.6640   14.0080  134.3620 C.3    32  ARG32       0.0334
     18  CG       109.8190   14.3230  133.4390 C.3    32  ARG32       0.0492
     19  CD       110.7220   13.1160  133.2270 C.3    32  ARG32       0.2205
     20  NE       111.9040   13.4720  132.4310 N.pl3  32  ARG32      -0.0865
     21  CZ       111.9320   13.5500  131.1030 C.cat  32  ARG32       0.5346
     22  NH1      110.8400   13.3010  130.3900 N.pl3  32  ARG32       0.1354
     23  NH2      113.0530   13.8930  130.4820 N.pl3  32  ARG32       0.1354
     24  N        106.9110   19.7720  132.8870 N.3    38  VAL38      -0.1245
     25  CA       107.1050   21.0950  133.4040 C.3    38  VAL38       0.1561
     26  C        108.3330   21.6910  132.7100 C.2    38  VAL38       0.2260
     27  O        109.3500   21.0090  132.5250 O.2    38  VAL38      -0.2867
     28  CB       107.3790   21.0230  134.9150 C.3    38  VAL38       0.0252
     29  CG1      107.5050   22.3940  135.5250 C.3    38  VAL38       0.0019
     30  CG2      106.2660   20.2030  135.6250 C.3    38  VAL38       0.0019
     31  N        107.5300   27.8840  136.6040 N.3    54  ALA54      -0.1245
     32  CA       107.4540   26.5020  136.1630 C.3    54  ALA54       0.1562
     33  C        106.0990   26.4020  135.4690 C.2    54  ALA54       0.2260
     34  O        105.0530   26.7010  136.0600 O.2    54  ALA54      -0.2867
     35  CB       107.5220   25.5720  137.3460 C.3    54  ALA54       0.0290
     36  N        103.4690   24.1230  133.2820 N.3    56  LYS56      -0.1245
     37  CA       103.0920   22.7500  133.1260 C.3    56  LYS56       0.1561
     38  C        102.0100   22.6170  132.0930 C.2    56  LYS56       0.2260
     39  O        100.9810   23.3180  132.1440 O.2    56  LYS56      -0.2867
     40  CB       102.5910   22.1710  134.4400 C.3    56  LYS56       0.0271
     41  CG       102.4010   20.6780  134.3570 C.3    56  LYS56       0.0035
     42  CD       102.0310   20.0320  135.6590 C.3    56  LYS56       0.0206
     43  CE       101.5500   18.5900  135.4360 C.3    56  LYS56       0.1093
     44  NZ       101.3260   17.9980  136.7000 N.3    56  LYS56      -0.1314
     45  N        102.3280   26.4880  147.7110 N.3    86  LEU86      -0.1245
     46  CA       102.5900   26.9580  146.3590 C.3    86  LEU86       0.1561
     47  C        101.4220   27.7630  145.8170 C.2    86  LEU86       0.2260
     48  O        100.2770   27.3370  145.9110 O.2    86  LEU86      -0.2867
     49  CB       102.8360   25.7630  145.4530 C.3    86  LEU86       0.0270
     50  CG       103.4400   26.1040  144.0860 C.3    86  LEU86       0.0019
     51  CD1      104.8980   26.5690  144.2160 C.3    86  LEU86       0.0001
     52  CD2      103.3380   24.9080  143.1780 C.3    86  LEU86       0.0001
     53  N        103.1140   28.3540  137.3870 N.3   101  LEU101     -0.1231
     54  CA       103.4470   28.2110  138.7780 C.3   101  LEU101      0.1678
     55  C        104.7710   28.9110  139.0670 C.2   101  LEU101      0.2434
     56  O        105.5880   29.1270  138.1720 O.2   101  LEU101     -0.2733
     57  CB       103.5730   26.7190  139.1400 C.3   101  LEU101      0.0284
     58  CG       102.3680   25.8730  138.7640 C.3   101  LEU101      0.0019
     59  CD1      102.6470   24.4050  138.8320 C.3   101  LEU101      0.0001
     60  CD2      101.1700   26.2200  139.6510 C.3   101  LEU101      0.0001
     61  N        105.0140   29.2560  140.3370 N.am  102  PRO102     -0.2718
     62  CA       106.3150   29.8240  140.6700 C.3   102  PRO102      0.1535
     63  C        107.4270   28.8100  140.4990 C.2   102  PRO102      0.2599
     64  O        107.3060   27.6740  140.9280 O.2   102  PRO102     -0.2715
     65  CB       106.1760   30.2270  142.1390 C.3   102  PRO102      0.0310
     66  CG       104.7510   30.1380  142.4510 C.3   102  PRO102      0.0237
     67  CD       104.1080   29.1930  141.4930 C.3   102  PRO102      0.0939
     68  N        108.5370   29.2350  139.9050 N.am  103  TYR103     -0.1960
     69  CA       109.7100   28.3650  139.7530 C.3   103  TYR103      0.1771
     70  C        110.2900   28.0440  141.1200 C.2   103  TYR103      0.2619
     71  O        110.4290   28.9400  141.9480 O.2   103  TYR103     -0.2715
     72  CB       110.7370   29.0570  138.8770 C.3   103  TYR103      0.0574
     73  CG       112.0020   28.2650  138.5850 C.ar  103  TYR103     -0.0198
     74  CD1      112.0210   27.2660  137.6320 C.ar  103  TYR103     -0.0009
     75  CD2      113.1860   28.5530  139.2410 C.ar  103  TYR103     -0.0009
     76  CE1      113.1810   26.5700  137.3460 C.ar  103  TYR103      0.0417
     77  CE2      114.3580   27.8970  138.9380 C.ar  103  TYR103      0.0417
     78  CZ       114.3590   26.8810  138.0190 C.ar  103  TYR103      0.1957
     79  OH       115.5470   26.2200  137.7110 O.3   103  TYR103     -0.2866
     80  N        110.6460   26.7830  141.3370 N.am  104  MET104     -0.1963
     81  CA       111.1750   26.3200  142.6260 C.3   104  MET104      0.1736
     82  C        112.6230   25.8670  142.4040 C.2   104  MET104      0.2616
     83  O        112.8780   24.7290  142.0360 O.2   104  MET104     -0.2715
     84  CB       110.2860   25.2070  143.1850 C.3   104  MET104      0.0427
     85  CG       108.9310   25.7430  143.5550 C.3   104  MET104      0.0599
     86  SD       108.9710   26.6580  145.1030 S.3   104  MET104     -0.1393
     87  CE       108.2640   28.1890  144.6560 C.3   104  MET104      0.0692
     88  N        113.5590   26.7910  142.6620 N.am  105  LYS105     -0.1963
     89  CA       114.9790   26.6420  142.3210 C.3   105  LYS105      0.1728
     90  C        115.5910   25.3610  142.8680 C.2   105  LYS105      0.2616
     91  O        116.4380   24.7660  142.2150 O.2   105  LYS105     -0.2715
     92  CB       115.7610   27.8600  142.8520 C.3   105  LYS105      0.0311
     93  CG       117.2540   27.8890  142.5710 C.3   105  LYS105      0.0038
     94  CD       117.8850   29.1730  143.1220 C.3   105  LYS105      0.0206
     95  CE       119.4070   29.2030  142.9570 C.3   105  LYS105      0.1093
     96  NZ       119.9330   30.4340  143.5660 N.3   105  LYS105     -0.1314
     97  N        115.1910   24.9520  144.0600 N.am  106  HIS106     -0.1959
     98  CA       115.8150   23.8100  144.6960 C.3   106  HIS106      0.1787
     99  C        115.0090   22.5380  144.5900 C.2   106  HIS106      0.2621
    100  O        115.3350   21.5500  145.2280 O.2   106  HIS106     -0.2715
    101  CB       116.2330   24.1940  146.1100 C.3   106  HIS106      0.0785
    102  CG       117.4070   25.1260  146.0960 C.ar  106  HIS106      0.0821
    103  ND1      117.3400   26.4410  146.4960 N.ar  106  HIS106     -0.2267
    104  CD2      118.6760   24.9300  145.6650 C.ar  106  HIS106      0.1154
    105  CE1      118.5260   27.0070  146.3330 C.ar  106  HIS106      0.1986
    106  NE2      119.3480   26.1130  145.8240 N.ar  106  HIS106     -0.2212
    107  N        113.9770   22.5370  143.7460 N.am  107  GLY107     -0.1940
    108  CA       113.3050   21.3140  143.3890 C.3   107  GLY107      0.2014
    109  C        112.4380   20.7540  144.5190 C.2   107  GLY107      0.2638
    110  O        112.0900   21.4600  145.4620 O.2   107  GLY107     -0.2714
    111  N        112.1330   19.4610  144.4440 N.am  108  ASP108     -0.1971
    112  CA       111.2880   18.8150  145.4390 C.3   108  ASP108      0.1709
    113  C        112.0980   18.4920  146.6750 C.2   108  ASP108      0.2293
    114  O        113.3280   18.2660  146.6310 O.2   108  ASP108     -0.2864
    115  CB       110.6240   17.5540  144.9050 C.3   108  ASP108      0.1436
    116  CG       111.6030   16.4400  144.6620 C.2   108  ASP108      0.3671
    117  OD1      112.2560   16.5080  143.5920 O.co2 108  ASP108     -0.2456
    118  OD2      111.6860   15.5020  145.4780 O.co2 108  ASP108     -0.2456
    119  N        112.1600   15.9270  148.6860 N.3   110  ARG110     -0.1231
    120  CA       112.8170   14.6300  148.8260 C.3   110  ARG110      0.1694
    121  C        114.1870   14.6040  148.1170 C.2   110  ARG110      0.2592
    122  O        115.1960   14.1830  148.6960 O.2   110  ARG110     -0.2718
    123  CB       111.9310   13.5000  148.3470 C.3   110  ARG110      0.0321
    124  CG       112.4980   12.1410  148.7540 C.3   110  ARG110      0.0489
    125  CD       111.8630   10.9560  148.0570 C.3   110  ARG110      0.2205
    126  NE       112.4880    9.7100  148.5010 N.pl3 110  ARG110     -0.0865
    127  CZ       112.6500    8.6000  147.7840 C.cat 110  ARG110      0.5346
    128  NH1      112.2440    8.5500  146.5160 N.pl3 110  ARG110      0.1354
    129  NH2      113.2580    7.5330  148.3370 N.pl3 110  ARG110      0.1354
    130  N        114.2450   15.0980  146.9000 N.am  111  ASN111     -0.1974
    131  CA       115.5470   15.1720  146.2190 C.3   111  ASN111      0.1688
    132  C        116.5390   16.0940  146.9140 C.2   111  ASN111      0.2292
    133  O        117.7340   15.8110  146.9650 O.2   111  ASN111     -0.2864
    134  CB       115.3990   15.5480  144.7470 C.3   111  ASN111      0.1181
    135  CG       114.9990   14.3690  143.8890 C.2   111  ASN111      0.2629
    136  OD1      115.6820   13.3350  143.8520 O.2   111  ASN111     -0.2716
    137  ND2      113.8790   14.5160  143.1810 N.am  111  ASN111     -0.0877
    138  N        108.1700   14.2410  148.2720 N.3   152  ARG152     -0.1231
    139  CA       108.2560   14.4410  146.8200 C.3   152  ARG152      0.1694
    140  C        107.3130   15.5210  146.2960 C.2   152  ARG152      0.2592
    141  O        107.4920   15.9800  145.1710 O.2   152  ARG152     -0.2718
    142  CB       107.9720   13.1230  146.0790 C.3   152  ARG152      0.0321
    143  CG       106.5510   12.5680  146.2760 C.3   152  ARG152      0.0489
    144  CD       106.2140   11.2900  145.4470 C.3   152  ARG152      0.2205
    145  NE       104.8940   10.8390  145.8480 N.pl3 152  ARG152     -0.0865
    146  CZ       104.6320   10.1190  146.9410 C.cat 152  ARG152      0.5346
    147  NH1      105.6100    9.5950  147.6700 N.pl3 152  ARG152      0.1354
    148  NH2      103.3720    9.8880  147.2840 N.pl3 152  ARG152      0.1354
    149  N        106.2730   15.8370  147.0750 N.am  153  ASN153     -0.1974
    150  CA       105.1930   16.7400  146.6810 C.3   153  ASN153      0.1688
    151  C        105.2660   18.1290  147.2910 C.2   153  ASN153      0.2292
    152  O        104.3450   18.9250  147.1310 O.2   153  ASN153     -0.2864
    153  CB       103.8510   16.0860  146.9720 C.3   153  ASN153      0.1181
    154  CG       103.6050   14.9090  146.0390 C.2   153  ASN153      0.2629
    155  OD1      104.0320   14.9550  144.8820 O.2   153  ASN153     -0.2716
    156  ND2      102.9220   13.8830  146.5140 N.am  153  ASN153     -0.0877
    157  N        108.0070   21.5450  147.5760 N.3   155  MET155     -0.1245
    158  CA       109.0750   22.1860  146.7810 C.3   155  MET155      0.1570
    159  C        109.8650   23.1850  147.6370 C.2   155  MET155      0.2261
    160  O        109.4000   23.5550  148.7050 O.2   155  MET155     -0.2867
    161  CB       108.4760   22.9040  145.5550 C.3   155  MET155      0.0387
    162  CG       107.6870   21.9800  144.6210 C.3   155  MET155      0.0595
    163  SD       108.6220   20.6170  143.8840 S.3   155  MET155     -0.1393
    164  CE       109.5610   21.5390  142.6800 C.3   155  MET155      0.0692
    165  N        103.0570   21.6000  147.7110 N.3   165  ALA165     -0.1231
    166  CA       102.7400   21.7020  146.2910 C.3   165  ALA165      0.1694
    167  C        101.8750   20.5060  145.8760 C.2   165  ALA165      0.2592
    168  O        101.1770   19.9640  146.7250 O.2   165  ALA165     -0.2718
    169  CB       104.0350   21.8370  145.4640 C.3   165  ALA165      0.0304
    170  N        101.8010   20.1880  144.5890 N.am  166  ASP166     -0.1974
    171  CA       101.0210   19.0260  144.1620 C.3   166  ASP166      0.1709
    172  C         99.5690   19.0640  144.6240 C.2   166  ASP166      0.2293
    173  O         99.0540   18.0540  145.1160 O.2   166  ASP166     -0.2864
    174  CB       101.6660   17.7300  144.6770 C.3   166  ASP166      0.1436
    175  CG       100.9270   16.4900  144.2370 C.2   166  ASP166      0.3671
    176  OD1      100.7410   15.6040  145.1270 O.co2 166  ASP166     -0.2456
    177  OD2      100.5340   16.4150  143.0620 O.co2 166  ASP166     -0.2456
    178  N         98.1740   21.7610  140.0320 N.3   170  ALA170     -0.1245
    179  CA        99.4780   21.0920  140.0630 C.3   170  ALA170      0.1562
    180  C         99.4240   19.6230  140.5240 C.2   170  ALA170      0.2260
    181  O        100.4680   18.9900  140.6010 O.2   170  ALA170     -0.2867
    182  CB       100.4390   21.8760  140.9460 C.3   170  ALA170      0.0290
    183  N        104.1950   12.5880  140.3640 N.3   174  TYR174     -0.1227
    184  CA       105.5430   12.9880  139.9970 C.3   174  TYR174      0.1736
    185  C        106.5750   11.8980  140.2460 C.2   174  TYR174      0.2595
    186  O        107.6910   12.0100  139.7680 O.2   174  TYR174     -0.2718
    187  CB       105.9270   14.2720  140.7370 C.3   174  TYR174      0.0548
    188  CG       105.0680   15.4670  140.3610 C.ar  174  TYR174     -0.0200
    189  CD1      105.3040   16.1640  139.1980 C.ar  174  TYR174     -0.0009
    190  CD2      104.0150   15.8830  141.1550 C.ar  174  TYR174     -0.0009
    191  CE1      104.5400   17.2350  138.8070 C.ar  174  TYR174      0.0417
    192  CE2      103.2310   16.9850  140.7860 C.ar  174  TYR174      0.0417
    193  CZ       103.4870   17.6500  139.6180 C.ar  174  TYR174      0.1957
    194  OH       102.7650   18.7380  139.2190 O.3   174  TYR174     -0.2866
    195  N        106.2210   10.8720  141.0170 N.am  175  ASP175     -0.1974
    196  CA       107.0490    9.6580  141.1130 C.3   175  ASP175      0.1709
    197  C        106.1160    8.4670  141.1460 C.2   175  ASP175      0.2293
    198  O        105.5580    8.1310  142.1980 O.2   175  ASP175     -0.2864
    199  CB       107.9460    9.6700  142.3520 C.3   175  ASP175      0.1436
    200  CG       108.9370    8.5200  142.3680 C.2   175  ASP175      0.3671
    201  OD1      108.6860    7.5380  141.6290 O.co2 175  ASP175     -0.2456
    202  OD2      109.9570    8.6120  143.0920 O.co2 175  ASP175     -0.2456
@<TRIPOS>BOND
     1    22    21    1
     2    23    21    1
     3    21    20    2
     4    38    39    2
     5    38    37    1
     6    20    19    1
     7    27    26    2
     8    26    25    1
     9     1     2    1
    10    24    25    1
    11    37    36    1
    12    37    40    1
    13    19    18    1
    14    25    28    1
    15     7     5    1
    16    18    17    1
    17    12    11    2
    18     2     5    1
    19     2     3    1
    20    41    40    1
    21    41    42    1
    22    17    14    1
    23     5     6    1
    24     6     8    1
    25    14    13    1
    26    14    15    1
    27     9     3   am
    28     9    10    1
    29    28    29    1
    30    28    30    1
    31    11    13   am
    32    11    10    1
    33     3     4    2
    34    43    42    1
    35    43    44    1
    36    33    34    2
    37    33    32    1
    38    15    16    2
    39    32    31    1
    40    32    35    1
    41    76    74   ar
    42    76    78   ar
    43    53    54    1
    44    74    73   ar
    45    79    78    1
    46    78    77   ar
    47    56    55    2
    48    73    72    1
    49    73    75   ar
    50    58    59    1
    51    58    57    1
    52    58    60    1
    53    54    55    1
    54    54    57    1
    55   191   189   ar
    56   191   193   ar
    57    72    69    1
    58    77    75   ar
    59    55    61   am
    60   189   188   ar
    61   194   193    1
    62   193   192   ar
    63    69    68    1
    64    69    70    1
    65   186   185    2
    66    68    63   am
    67   184   185    1
    68   184   183    1
    69   184   187    1
    70   178   179    1
    71   179   180    1
    72   179   182    1
    73   185   195   am
    74    61    62    1
    75    61    67    1
    76   188   187    1
    77   188   190   ar
    78    63    62    1
    79    63    64    2
    80   180   181    2
    81    62    65    1
    82   192   190   ar
    83   195   196    1
    84   196   197    1
    85   196   199    1
    86    70    80   am
    87    70    71    2
    88   197   198    2
    89    80    81    1
    90    67    66    1
    91   201   200   ar
    92    83    82    2
    93    65    66    1
    94    91    90    2
    95    89    88    1
    96    89    92    1
    97    89    90    1
    98   199   200    1
    99   200   202   ar
   100    82    81    1
   101    82    88   am
   102    93    92    1
   103    93    94    1
   104    81    84    1
   105   164   163    1
   106    90    97   am
   107    95    94    1
   108    95    96    1
   109   177   175   ar
   110    52    50    1
   111   137   135   am
   112    84    85    1
   113   108   107    1
   114   108   109    1
   115    85    86    1
   116   117   116   ar
   117   107    99   am
   118   136   135    2
   119   163   162    1
   120   135   134    1
   121    97    98    1
   122    50    51    1
   123    50    49    1
   124   171   170    1
   125   171   172    1
   126   171   174    1
   127   175   174    1
   128   175   176   ar
   129   111   109   am
   130   111   112    1
   131   109   110    2
   132   170   167   am
   133    99    98    1
   134    99   100    2
   135   162   161    1
   136   172   173    2
   137    87    86    1
   138   116   115    1
   139   116   118   ar
   140    98   101    1
   141   134   131    1
   142   155   154    2
   143   115   112    1
   144   141   140    2
   145   112   113    1
   146   144   145    1
   147   144   143    1
   148    49    46    1
   149   169   166    1
   150   161   158    1
   151   104   106   ar
   152   104   102   ar
   153    47    48    2
   154    47    46    1
   155   106   105   ar
   156   145   146    2
   157   167   166    1
   158   167   168    2
   159   154   156   am
   160   154   153    1
   161   142   143    1
   162   142   139    1
   163   102   101    1
   164   102   103   ar
   165   131   130    1
   166   131   132    1
   167   166   165    1
   168   140   139    1
   169   140   149   am
   170   105   103   ar
   171    46    45    1
   172   128   127    1
   173   114   113    2
   174   150   153    1
   175   150   149    1
   176   150   151    1
   177   158   157    1
   178   158   159    1
   179   139   138    1
   180   130   121   am
   181   132   133    2
   182   146   148    1
   183   146   147    1
   184   152   151    2
   185   159   160    2
   186   127   129    1
   187   127   126    2
   188   125   126    1
   189   125   124    1
   190   121   122    2
   191   121   120    1
   192   123   124    1
   193   123   120    1
   194   119   120    1
