@<TRIPOS>MOLECULE
tmp/4r1yA00.pdb
 209 201 0 0 0
SMALL
GASTEIGER

@<TRIPOS>ATOM
      1  N        -24.2610   22.2040   87.1930 N.3    22  VAL22      -0.1231
      2  CA       -23.4880   23.1000   88.0590 C.3    22  VAL22       0.1692
      3  C        -24.1520   23.1440   89.4340 C.2    22  VAL22       0.2592
      4  O        -25.2970   23.6030   89.5610 O.2    22  VAL22      -0.2718
      5  CB       -23.3970   24.5450   87.4870 C.3    22  VAL22       0.0266
      6  CG1      -22.5690   25.4450   88.4000 C.3    22  VAL22       0.0020
      7  CG2      -22.7990   24.5490   86.0890 C.3    22  VAL22       0.0020
      8  N        -23.4330   22.6570   90.4490 N.am   23  ILE23      -0.1966
      9  CA       -23.9490   22.5690   91.8150 C.3    23  ILE23       0.1727
     10  C        -23.2140   23.5310   92.7470 C.2    23  ILE23       0.2617
     11  O        -23.3890   23.4740   93.9630 O.2    23  ILE23      -0.2715
     12  CB       -23.8160   21.1370   92.3920 C.3    23  ILE23       0.0290
     13  CG1      -22.3450   20.6900   92.3860 C.3    23  ILE23       0.0022
     14  CG2      -24.6750   20.1760   91.5990 C.3    23  ILE23       0.0023
     15  CD1      -22.0490   19.4690   93.2280 C.3    23  ILE23       0.0001
     16  N        -22.3910   24.4030   92.1730 N.am   24  GLY24      -0.1940
     17  CA       -21.6180   25.3650   92.9520 C.3    24  GLY24       0.2014
     18  C        -20.7320   26.2180   92.0680 C.2    24  GLY24       0.2638
     19  O        -20.5650   25.9330   90.8770 O.2    24  GLY24      -0.2714
     20  N        -20.1680   27.2700   92.6550 N.am   25  ARG25      -0.1977
     21  CA       -19.3000   28.1880   91.9280 C.3    25  ARG25       0.1597
     22  C        -18.2840   28.8550   92.8560 C.2    25  ARG25       0.2287
     23  O        -18.6250   29.2840   93.9530 O.2    25  ARG25      -0.2864
     24  CB       -20.1550   29.2350   91.2110 C.3    25  ARG25       0.0334
     25  CG       -19.3690   30.3340   90.4880 C.3    25  ARG25       0.0492
     26  CD       -20.1520   30.9530   89.3120 C.3    25  ARG25       0.2205
     27  NE       -21.5970   31.0430   89.5650 N.pl3  25  ARG25      -0.0865
     28  CZ       -22.5430   30.3000   88.9770 C.cat  25  ARG25       0.5346
     29  NH1      -22.2400   29.3800   88.0600 N.pl3  25  ARG25       0.1354
     30  NH2      -23.8200   30.4850   89.3060 N.pl3  25  ARG25       0.1354
     31  N        -18.3130   24.0310   90.4680 N.3    31  VAL31      -0.1245
     32  CA       -18.4310   22.6940   90.9920 C.3    31  VAL31       0.1561
     33  C        -19.5280   21.9930   90.1950 C.2    31  VAL31       0.2260
     34  O        -20.6220   22.5430   90.0050 O.2    31  VAL31      -0.2867
     35  CB       -18.7590   22.6850   92.4900 C.3    31  VAL31       0.0252
     36  CG1      -18.6160   21.2850   93.0520 C.3    31  VAL31       0.0019
     37  CG2      -17.8450   23.6320   93.2500 C.3    31  VAL31       0.0019
     38  N        -18.8040   15.6230   94.0210 N.3    41  ALA41      -0.1245
     39  CA       -18.6880   16.9920   93.5280 C.3    41  ALA41       0.1562
     40  C        -17.3230   17.1480   92.8700 C.2    41  ALA41       0.2260
     41  O        -16.3200   16.6430   93.3720 O.2    41  ALA41      -0.2867
     42  CB       -18.8600   17.9900   94.6550 C.3    41  ALA41       0.0290
     43  N        -14.7450   19.9370   91.3770 N.3    43  LYS43      -0.1245
     44  CA       -14.3900   21.3410   91.3110 C.3    43  LYS43       0.1561
     45  C        -13.3750   21.5860   90.2100 C.2    43  LYS43       0.2260
     46  O        -12.3250   20.9460   90.1750 O.2    43  LYS43      -0.2867
     47  CB       -13.8320   21.8330   92.6590 C.3    43  LYS43       0.0271
     48  CG       -13.2620   23.2370   92.5930 C.3    43  LYS43       0.0035
     49  CD       -13.7280   24.1410   93.7170 C.3    43  LYS43       0.0206
     50  CE       -13.5390   25.6020   93.3280 C.3    43  LYS43       0.1093
     51  NZ       -12.1210   25.8970   93.0550 N.3    43  LYS43      -0.1314
     52  N        -13.6970   17.6290  105.4580 N.3    65  LEU65      -0.1245
     53  CA       -13.9990   17.2200  104.0920 C.3    65  LEU65       0.1561
     54  C        -12.7930   16.5180  103.5080 C.2    65  LEU65       0.2260
     55  O        -11.6890   17.0570  103.5190 O.2    65  LEU65      -0.2867
     56  CB       -14.3400   18.4240  103.2170 C.3    65  LEU65       0.0270
     57  CG       -14.7020   18.1040  101.7540 C.3    65  LEU65       0.0019
     58  CD1      -16.0920   17.5180  101.6740 C.3    65  LEU65       0.0001
     59  CD2      -14.6000   19.3640  100.9020 C.3    65  LEU65       0.0001
     60  N        -14.3820   15.6190   95.1090 N.3    78  LEU78      -0.1231
     61  CA       -14.7160   15.6930   96.5240 C.3    78  LEU78       0.1678
     62  C        -16.0290   14.9760   96.8130 C.2    78  LEU78       0.2434
     63  O        -16.8290   14.7850   95.9070 O.2    78  LEU78      -0.2733
     64  CB       -14.8730   17.1590   96.9180 C.3    78  LEU78       0.0284
     65  CG       -13.6460   18.0310   96.6290 C.3    78  LEU78       0.0019
     66  CD1      -14.0190   19.5020   96.5610 C.3    78  LEU78       0.0001
     67  CD2      -12.5320   17.7810   97.6490 C.3    78  LEU78       0.0001
     68  N        -16.2720   14.6130   98.0870 N.am   79  PRO79      -0.2718
     69  CA       -17.5300   13.9710   98.4550 C.3    79  PRO79       0.1535
     70  C        -18.7340   14.8770   98.2170 C.2    79  PRO79       0.2599
     71  O        -18.6410   16.0880   98.4000 O.2    79  PRO79      -0.2715
     72  CB       -17.3720   13.6990   99.9580 C.3    79  PRO79       0.0310
     73  CG       -15.9250   13.8400  100.2460 C.3    79  PRO79       0.0237
     74  CD       -15.3830   14.7850   99.2490 C.3    79  PRO79       0.0939
     75  N        -19.8500   14.2810   97.8070 N.am   80  TYR80      -0.1960
     76  CA       -21.0870   15.0190   97.5850 C.3    80  TYR80       0.1771
     77  C        -21.6250   15.4420   98.9450 C.2    80  TYR80       0.2619
     78  O        -21.6350   14.6410   99.8770 O.2    80  TYR80      -0.2715
     79  CB       -22.1010   14.1400   96.8620 C.3    80  TYR80       0.0574
     80  CG       -23.2560   14.8990   96.2510 C.ar   80  TYR80      -0.0198
     81  CD1      -23.1010   15.5700   95.0480 C.ar   80  TYR80      -0.0009
     82  CD2      -24.4980   14.9570   96.8810 C.ar   80  TYR80      -0.0009
     83  CE1      -24.1430   16.2670   94.4750 C.ar   80  TYR80       0.0417
     84  CE2      -25.5510   15.6560   96.3140 C.ar   80  TYR80       0.0417
     85  CZ       -25.3610   16.3070   95.1060 C.ar   80  TYR80       0.1957
     86  OH       -26.3790   17.0110   94.5180 O.3    80  TYR80      -0.2866
     87  N        -22.0360   16.7030   99.0640 N.am   81  MET81      -0.1963
     88  CA       -22.5520   17.2430  100.3200 C.3    81  MET81       0.1736
     89  C        -23.9870   17.7470  100.1050 C.2    81  MET81       0.2616
     90  O        -24.2110   18.9220   99.8140 O.2    81  MET81      -0.2715
     91  CB       -21.6310   18.3540  100.8240 C.3    81  MET81       0.0427
     92  CG       -20.2030   17.8710  101.1650 C.3    81  MET81       0.0599
     93  SD       -20.1220   16.6780  102.5390 S.3    81  MET81      -0.1393
     94  CE       -20.5080   17.7800  103.8670 C.3    81  MET81       0.0692
     95  N        -24.9400   16.8210  100.2420 N.am   82  LYS82      -0.1963
     96  CA       -26.3480   17.0200   99.8690 C.3    82  LYS82       0.1728
     97  C        -26.9610   18.3390  100.3570 C.2    82  LYS82       0.2616
     98  O        -27.7200   18.9740   99.6360 O.2    82  LYS82      -0.2715
     99  CB       -27.1950   15.8500  100.3970 C.3    82  LYS82       0.0311
    100  CG       -28.6290   15.7870   99.8430 C.3    82  LYS82       0.0038
    101  CD       -29.5590   15.0050  100.7720 C.3    82  LYS82       0.0206
    102  CE       -31.0040   14.9840  100.2520 C.3    82  LYS82       0.1093
    103  NZ       -31.9930   14.6550  101.3230 N.3    82  LYS82      -0.1314
    104  N        -26.6330   18.7500  101.5730 N.am   83  HIS83      -0.1959
    105  CA       -27.3120   19.8920  102.1780 C.3    83  HIS83       0.1787
    106  C        -26.5610   21.2060  102.0930 C.2    83  HIS83       0.2621
    107  O        -26.9680   22.1800  102.7290 O.2    83  HIS83      -0.2715
    108  CB       -27.6890   19.5620  103.6150 C.3    83  HIS83       0.0785
    109  CG       -28.7610   18.5260  103.7090 C.ar   83  HIS83       0.0821
    110  ND1      -30.0610   18.7660  103.3110 N.ar   83  HIS83      -0.2267
    111  CD2      -28.7240   17.2390  104.1230 C.ar   83  HIS83       0.1154
    112  CE1      -30.7790   17.6740  103.4910 C.ar   83  HIS83       0.1986
    113  NE2      -29.9920   16.7340  103.9860 N.ar   83  HIS83      -0.2212
    114  N        -25.4950   21.2470  101.2910 N.am   84  GLY84      -0.1940
    115  CA       -24.7970   22.5020  100.9980 C.3    84  GLY84       0.2014
    116  C        -24.0130   23.0820  102.1610 C.2    84  GLY84       0.2638
    117  O        -23.6290   22.3780  103.0920 O.2    84  GLY84      -0.2714
    118  N        -23.7680   24.3840  102.1070 N.am   85  ASP85      -0.1971
    119  CA       -22.9740   25.0300  103.1300 C.3    85  ASP85       0.1709
    120  C        -23.8260   25.2810  104.3690 C.2    85  ASP85       0.2293
    121  O        -25.0570   25.4580  104.2790 O.2    85  ASP85      -0.2864
    122  CB       -22.3980   26.3520  102.6290 C.3    85  ASP85       0.1436
    123  CG       -23.4560   27.4070  102.4560 C.2    85  ASP85       0.3671
    124  OD1      -24.2460   27.2870  101.5040 O.co2  85  ASP85      -0.2456
    125  OD2      -23.5100   28.3430  103.2800 O.co2  85  ASP85      -0.2456
    126  N        -23.9030   27.9800  106.3760 N.3    87  ARG87      -0.1231
    127  CA       -24.5430   29.2920  106.4700 C.3    87  ARG87       0.1694
    128  C        -25.9140   29.3130  105.7890 C.2    87  ARG87       0.2592
    129  O        -26.8930   29.7390  106.3890 O.2    87  ARG87      -0.2718
    130  CB       -23.6760   30.3980  105.8940 C.3    87  ARG87       0.0321
    131  CG       -24.0420   31.7640  106.4510 C.3    87  ARG87       0.0489
    132  CD       -23.7470   32.9020  105.4980 C.3    87  ARG87       0.2205
    133  NE       -24.1910   34.1800  106.0640 N.pl3  87  ARG87      -0.0865
    134  CZ       -24.5730   35.2390  105.3480 C.cat  87  ARG87       0.5346
    135  NH1      -24.5860   35.1810  104.0340 N.pl3  87  ARG87       0.1354
    136  NH2      -24.9640   36.3660  105.9560 N.pl3  87  ARG87       0.1354
    137  N        -25.9930   28.8450  104.5480 N.am   88  ASN88      -0.1974
    138  CA       -27.2810   28.7720  103.8700 C.3    88  ASN88       0.1688
    139  C        -28.2490   27.8000  104.5530 C.2    88  ASN88       0.2292
    140  O        -29.4550   28.0410  104.5690 O.2    88  ASN88      -0.2864
    141  CB       -27.1150   28.4030  102.3960 C.3    88  ASN88       0.1181
    142  CG       -26.6470   29.5740  101.5550 C.2    88  ASN88       0.2629
    143  OD1      -27.1960   30.6710  101.6500 O.2    88  ASN88      -0.2716
    144  ND2      -25.6370   29.3460  100.7240 N.am   88  ASN88      -0.0877
    145  N        -19.9650   29.7940  105.9290 N.3   129  ARG129     -0.1231
    146  CA       -20.0470   29.6160  104.4800 C.3   129  ARG129      0.1694
    147  C        -19.0990   28.5330  103.9620 C.2   129  ARG129      0.2592
    148  O        -19.2800   28.0560  102.8430 O.2   129  ARG129     -0.2718
    149  CB       -19.7530   30.9390  103.7490 C.3   129  ARG129      0.0321
    150  CG       -18.3070   31.4140  103.9060 C.3   129  ARG129      0.0489
    151  CD       -17.9970   32.7310  103.2150 C.3   129  ARG129      0.2205
    152  NE       -16.6750   33.1630  103.6560 N.pl3 129  ARG129     -0.0865
    153  CZ       -16.4350   34.0150  104.6500 C.cat 129  ARG129      0.5346
    154  NH1      -17.4200   34.6140  105.3060 N.pl3 129  ARG129      0.1354
    155  NH2      -15.1830   34.2890  104.9850 N.pl3 129  ARG129      0.1354
    156  N        -18.1020   28.1550  104.7720 N.am  130  ASN130     -0.1974
    157  CA       -17.0440   27.2430  104.3640 C.3   130  ASN130      0.1688
    158  C        -17.1170   25.8650  105.0460 C.2   130  ASN130      0.2292
    159  O        -16.1780   25.0670  104.9480 O.2   130  ASN130     -0.2864
    160  CB       -15.6780   27.9110  104.5990 C.3   130  ASN130      0.1181
    161  CG       -15.4050   29.0540  103.6220 C.2   130  ASN130      0.2629
    162  OD1      -15.9290   29.0710  102.5010 O.2   130  ASN130     -0.2716
    163  ND2      -14.5890   30.0220  104.0500 N.am  130  ASN130     -0.0877
    164  N        -19.6890   22.4320  105.1760 N.3   132  MET132     -0.1245
    165  CA       -20.6940   21.7470  104.3520 C.3   132  MET132      0.1570
    166  C        -21.4300   20.6860  105.1630 C.2   132  MET132      0.2261
    167  O        -20.8930   20.1720  106.1430 O.2   132  MET132     -0.2867
    168  CB       -20.0230   21.0710  103.1500 C.3   132  MET132      0.0387
    169  CG       -19.2800   22.0160  102.2050 C.3   132  MET132      0.0595
    170  SD       -20.3430   23.1660  101.3230 S.3   132  MET132     -0.1393
    171  CE       -21.2010   22.0620  100.2090 C.3   132  MET132      0.0692
    172  N        -14.6800   22.5160  105.3760 N.3   142  ALA142     -0.1231
    173  CA       -14.3740   22.4030  103.9520 C.3   142  ALA142      0.1694
    174  C        -13.5710   23.6320  103.5100 C.2   142  ALA142      0.2592
    175  O        -12.9630   24.2930  104.3560 O.2   142  ALA142     -0.2718
    176  CB       -15.6720   22.2520  103.1580 C.3   142  ALA142      0.0304
    177  N        -13.5500   23.9330  102.2080 N.am  143  ASP143     -0.1974
    178  CA       -12.8350   25.1200  101.6920 C.3   143  ASP143      0.1709
    179  C        -11.3770   25.2020  102.1820 C.2   143  ASP143      0.2293
    180  O        -10.8990   26.2390  102.6610 O.2   143  ASP143     -0.2864
    181  CB       -13.5950   26.3970  102.0430 C.3   143  ASP143      0.1436
    182  CG       -12.8240   27.6560  101.6960 C.2   143  ASP143      0.3671
    183  OD1      -12.4100   27.7920  100.5350 O.co2 143  ASP143     -0.2456
    184  OD2      -12.6360   28.5090  102.5940 O.co2 143  ASP143     -0.2456
    185  N         -9.7710   22.2010   97.7100 N.3   147  ALA147     -0.1245
    186  CA       -11.1040   22.8190   97.7250 C.3   147  ALA147      0.1562
    187  C        -11.0880   24.3180   98.0600 C.2   147  ALA147      0.2260
    188  O        -12.1520   24.9550   98.1320 O.2   147  ALA147     -0.2867
    189  CB       -11.9980   22.0880   98.7320 C.3   147  ALA147      0.0290
    190  N        -16.0260   31.3420   97.8830 N.3   151  TYR151     -0.1227
    191  CA       -17.3540   30.8850   97.4850 C.3   151  TYR151      0.1736
    192  C        -18.4540   31.9260   97.7530 C.2   151  TYR151      0.2595
    193  O        -19.6160   31.6850   97.4330 O.2   151  TYR151     -0.2718
    194  CB       -17.6750   29.5580   98.1810 C.3   151  TYR151      0.0548
    195  CG       -16.7480   28.4320   97.7660 C.ar  151  TYR151     -0.0200
    196  CD1      -16.9610   27.7430   96.5910 C.ar  151  TYR151     -0.0009
    197  CD2      -15.6500   28.0720   98.5520 C.ar  151  TYR151     -0.0009
    198  CE1      -16.1100   26.7230   96.1910 C.ar  151  TYR151      0.0417
    199  CE2      -14.8030   27.0490   98.1750 C.ar  151  TYR151      0.0417
    200  CZ       -15.0460   26.3760   96.9870 C.ar  151  TYR151      0.1957
    201  OH       -14.2250   25.3650   96.5880 O.3   151  TYR151     -0.2866
    202  N        -18.0870   33.0660   98.3450 N.am  152  ASP152     -0.1974
    203  CA       -18.9920   34.2170   98.4720 C.3   152  ASP152      0.1709
    204  C        -18.1570   35.4970   98.5450 C.2   152  ASP152      0.2293
    205  O        -17.6620   35.8620   99.6060 O.2   152  ASP152     -0.2864
    206  CB       -19.8790   34.0740   99.7180 C.3   152  ASP152      0.1436
    207  CG       -20.9650   35.1450   99.8080 C.2   152  ASP152      0.3671
    208  OD1      -20.9230   36.1510   99.0510 O.co2 152  ASP152     -0.2456
    209  OD2      -21.8700   34.9810  100.6550 O.co2 152  ASP152     -0.2456
@<TRIPOS>BOND
     1     7     5    1
     2     1     2    1
     3     5     2    1
     4     5     6    1
     5     2     3    1
     6    29    28    1
     7    28    30    1
     8    28    27    2
     9    26    27    1
    10    26    25    1
    11     3     4    2
    12     3     8   am
    13    34    33    2
    14    46    45    2
    15    33    32    1
    16    45    44    1
    17     8     9    1
    18    31    32    1
    19    25    24    1
    20    19    18    2
    21    32    35    1
    22    24    21    1
    23    44    43    1
    24    44    47    1
    25    14    12    1
    26     9    12    1
    27     9    10    1
    28    21    20    1
    29    21    22    1
    30    18    20   am
    31    18    17    1
    32    16    10   am
    33    16    17    1
    34    13    12    1
    35    13    15    1
    36    35    36    1
    37    35    37    1
    38    48    47    1
    39    48    49    1
    40    10    11    2
    41    22    23    2
    42    40    41    2
    43    40    39    1
    44    51    50    1
    45    50    49    1
    46    39    38    1
    47    39    42    1
    48    83    81   ar
    49    83    85   ar
    50    86    85    1
    51    81    80   ar
    52    85    84   ar
    53    60    61    1
    54    63    62    2
    55   198   196   ar
    56   198   200   ar
    57    80    79    1
    58    80    82   ar
    59    84    82   ar
    60    61    62    1
    61    61    64    1
    62    66    65    1
    63   201   200    1
    64   196   195   ar
    65    65    64    1
    66    65    67    1
    67    62    68   am
    68    79    76    1
    69   200   199   ar
    70   193   192    2
    71   191   192    1
    72   191   190    1
    73   191   194    1
    74    76    75    1
    75    76    77    1
    76   185   186    1
    77   186   187    1
    78   186   189    1
    79   192   202   am
    80   195   194    1
    81   195   197   ar
    82    75    70   am
    83   187   188    2
    84    68    69    1
    85    68    74    1
    86   199   197   ar
    87    70    71    2
    88    70    69    1
    89   202   203    1
    90    69    72    1
    91   203   204    1
    92   203   206    1
    93   204   205    2
    94    77    87   am
    95    77    78    2
    96   208   207   ar
    97    87    88    1
    98    74    73    1
    99    98    97    2
   100   206   207    1
   101   207   209   ar
   102    90    89    2
   103   100    99    1
   104   100   101    1
   105    96    95    1
   106    96    97    1
   107    96    99    1
   108    72    73    1
   109    89    95   am
   110    89    88    1
   111   171   170    1
   112   102   101    1
   113   102   103    1
   114    88    91    1
   115    97   104   am
   116   183   182   ar
   117   144   142   am
   118    91    92    1
   119    59    57    1
   120   115   114    1
   121   115   116    1
   122    92    93    1
   123   114   106   am
   124   170   169    1
   125   124   123   ar
   126   142   143    2
   127   142   141    1
   128   104   105    1
   129    58    57    1
   130   178   181    1
   131   178   179    1
   132   178   177    1
   133   182   181    1
   134   182   184   ar
   135    57    56    1
   136   106   105    1
   137   106   107    2
   138   118   116   am
   139   118   119    1
   140   116   117    2
   141   105   108    1
   142   179   180    2
   143   169   168    1
   144   177   174   am
   145   141   138    1
   146   123   122    1
   147   123   125   ar
   148   162   161    2
   149    93    94    1
   150   122   119    1
   151   148   147    2
   152   119   120    1
   153   168   165    1
   154   176   173    1
   155   151   152    1
   156   151   150    1
   157    56    53    1
   158   110   112   ar
   159   110   109   ar
   160   112   113   ar
   161    54    55    2
   162    54    53    1
   163   174   173    1
   164   174   175    2
   165   108   109    1
   166   161   163   am
   167   161   160    1
   168   152   153    2
   169   109   111   ar
   170   149   150    1
   171   149   146    1
   172   138   137    1
   173   138   139    1
   174   173   172    1
   175   147   146    1
   176   147   156   am
   177   113   111   ar
   178   135   134    1
   179    53    52    1
   180   121   120    2
   181   165   166    1
   182   165   164    1
   183   157   160    1
   184   157   156    1
   185   157   158    1
   186   146   145    1
   187   137   128   am
   188   139   140    2
   189   153   155    1
   190   153   154    1
   191   159   158    2
   192   166   167    2
   193   134   136    1
   194   134   133    2
   195   132   133    1
   196   132   131    1
   197   128   129    2
   198   128   127    1
   199   130   131    1
   200   130   127    1
   201   126   127    1
