@<TRIPOS>MOLECULE
tmp/4r1yA01.pdb
 112 108 0 0 0
SMALL
GASTEIGER

@<TRIPOS>ATOM
      1  N        -28.6880   27.1760  107.7710 N.3    90  ILE90      -0.1231
      2  CA       -29.3170   27.8300  108.9340 C.3    90  ILE90       0.1692
      3  C        -30.1390   29.0800  108.5790 C.2    90  ILE90       0.2591
      4  O        -31.0210   29.4650  109.3350 O.2    90  ILE90      -0.2718
      5  CB       -28.2750   28.1500  110.0660 C.3    90  ILE90       0.0266
      6  CG1      -27.3200   29.2750  109.6590 C.3    90  ILE90       0.0019
      7  CG2      -27.5060   26.8700  110.4580 C.3    90  ILE90       0.0020
      8  CD1      -26.0430   29.3450  110.4720 C.3    90  ILE90       0.0001
      9  N        -29.8840   29.6900  107.4210 N.am   91  ARG91      -0.1980
     10  CA       -30.6880   30.8240  106.9620 C.3    91  ARG91       0.1597
     11  C        -31.9880   30.3880  106.2910 C.2    91  ARG91       0.2287
     12  O        -32.8450   31.2240  106.0180 O.2    91  ARG91      -0.2864
     13  CB       -29.9060   31.6940  105.9780 C.3    91  ARG91       0.0334
     14  CG       -28.6900   32.3500  106.5730 C.3    91  ARG91       0.0492
     15  CD       -27.8190   32.9660  105.4950 C.3    91  ARG91       0.2205
     16  NE       -28.5550   33.9190  104.6730 N.pl3  91  ARG91      -0.0865
     17  CZ       -28.8590   35.1620  105.0340 C.cat  91  ARG91       0.5346
     18  NH1      -28.4960   35.6320  106.2200 N.pl3  91  ARG91       0.1354
     19  NH2      -29.5390   35.9410  104.2020 N.pl3  91  ARG91       0.1354
     20  N        -35.4400   29.4590  106.2970 N.3    93  GLU93      -0.1245
     21  CA       -36.4560   29.6500  107.3420 C.3    93  GLU93       0.1567
     22  C        -37.6110   28.6370  107.2840 C.2    93  GLU93       0.2260
     23  O        -38.4660   28.6010  108.1820 O.2    93  GLU93      -0.2867
     24  CB       -36.9940   31.0810  107.3010 C.3    93  GLU93       0.0388
     25  CG       -37.9840   31.3480  106.1790 C.3    93  GLU93       0.1160
     26  CD       -38.4440   32.8010  106.1160 C.2    93  GLU93       0.3649
     27  OE1      -39.1380   33.1560  105.1390 O.co2  93  GLU93      -0.2457
     28  OE2      -38.1110   33.5870  107.0330 O.co2  93  GLU93      -0.2457
     29  N        -36.5520   24.9710  111.0630 N.3    96  ASN96      -0.1226
     30  CA       -36.1800   25.6200  112.3310 C.3    96  ASN96       0.1770
     31  C        -35.2790   24.7220  113.1690 C.2    96  ASN96       0.2439
     32  O        -35.7690   23.8630  113.9260 O.2    96  ASN96      -0.2733
     33  CB       -37.4260   25.9760  113.1280 C.3    96  ASN96       0.1168
     34  CG       -37.1790   27.1030  114.1640 C.2    96  ASN96       0.2627
     35  OD1      -36.1150   27.2230  114.7740 O.2    96  ASN96      -0.2716
     36  ND2      -38.1910   27.9150  114.3570 N.am   96  ASN96      -0.0877
     37  N        -33.9550   24.9210  113.0530 N.am   97  PRO97      -0.2718
     38  CA       -33.0650   24.1900  113.9310 C.3    97  PRO97       0.1535
     39  C        -33.3450   24.6070  115.3670 C.2    97  PRO97       0.2599
     40  O        -33.7970   25.7350  115.5920 O.2    97  PRO97      -0.2715
     41  CB       -31.6620   24.6380  113.5050 C.3    97  PRO97       0.0310
     42  CG       -31.8280   25.5360  112.3490 C.3    97  PRO97       0.0237
     43  CD       -33.2510   25.8790  112.1880 C.3    97  PRO97       0.0939
     44  N        -33.1300   23.6980  116.3120 N.am   98  THR98      -0.1937
     45  CA       -33.1680   24.0490  117.7350 C.3    98  THR98       0.2028
     46  C        -31.8890   24.7600  118.1230 C.2    98  THR98       0.2642
     47  O        -30.9110   24.7380  117.3760 O.2    98  THR98      -0.2714
     48  CB       -33.3630   22.7980  118.6280 C.3    98  THR98       0.1808
     49  OG1      -32.4130   21.7800  118.2890 O.3    98  THR98      -0.2208
     50  CG2      -34.7540   22.2480  118.4560 C.3    98  THR98       0.0379
     51  N        -31.8720   25.3930  119.2890 N.am   99  VAL99      -0.1977
     52  CA       -30.6230   25.9410  119.8060 C.3    99  VAL99       0.1596
     53  C        -29.6440   24.7930  119.9910 C.2    99  VAL99       0.2287
     54  O        -28.4790   24.9200  119.6390 O.2    99  VAL99      -0.2864
     55  CB       -30.8190   26.7360  121.1370 C.3    99  VAL99       0.0276
     56  CG1      -29.4820   27.1270  121.7590 C.3    99  VAL99       0.0022
     57  CG2      -31.6410   27.9600  120.8890 C.3    99  VAL99       0.0022
     58  N        -27.9990   23.9550  116.6270 N.3   102  LEU102     -0.1245
     59  CA       -27.0450   24.9710  116.2450 C.3   102  LEU102      0.1561
     60  C        -25.7370   24.8550  117.0140 C.2   102  LEU102      0.2260
     61  O        -24.6760   24.9620  116.4210 O.2   102  LEU102     -0.2867
     62  CB       -27.6370   26.3560  116.4560 C.3   102  LEU102      0.0270
     63  CG       -28.8050   26.7200  115.5420 C.3   102  LEU102      0.0019
     64  CD1      -29.4700   27.9760  116.0410 C.3   102  LEU102      0.0001
     65  CD2      -28.3440   26.8860  114.1020 C.3   102  LEU102      0.0001
     66  N        -25.4250   31.1250  116.2340 N.3   196  MET196     -0.1230
     67  CA       -26.4520   31.5990  117.1700 C.3   196  MET196      0.1702
     68  C        -27.3810   32.6750  116.6200 C.2   196  MET196      0.2593
     69  O        -28.4290   32.9420  117.2060 O.2   196  MET196     -0.2718
     70  CB       -25.7980   32.0870  118.4670 C.3   196  MET196      0.0401
     71  CG       -25.0360   30.9960  119.2110 C.3   196  MET196      0.0596
     72  SD       -25.8530   29.3760  119.2060 S.3   196  MET196     -0.1393
     73  CE       -27.2600   29.7710  120.1630 C.3   196  MET196      0.0692
     74  N        -26.9980   33.3290  115.5270 N.am  197  THR197     -0.1939
     75  CA       -27.8620   34.3080  114.8740 C.3   197  THR197      0.2028
     76  C        -28.5330   33.7160  113.6320 C.2   197  THR197      0.2642
     77  O        -29.2670   34.4160  112.9350 O.2   197  THR197     -0.2714
     78  CB       -27.0730   35.5460  114.4240 C.3   197  THR197      0.1808
     79  OG1      -25.9960   35.1320  113.5830 O.3   197  THR197     -0.2208
     80  CG2      -26.4980   36.3130  115.6340 C.3   197  THR197      0.0379
     81  N        -28.2670   32.4400  113.3570 N.am  198  ARG198     -0.1963
     82  CA       -28.7510   31.7810  112.1390 C.3   198  ARG198      0.1729
     83  C        -28.2930   32.5370  110.8960 C.2   198  ARG198      0.2617
     84  O        -29.0740   32.8000  109.9710 O.2   198  ARG198     -0.2715
     85  CB       -30.2690   31.6070  112.1820 C.3   198  ARG198      0.0348
     86  CG       -30.6710   30.5170  113.1580 C.3   198  ARG198      0.0492
     87  CD       -32.1460   30.1540  113.0520 C.3   198  ARG198      0.2205
     88  NE       -32.4770   29.6330  111.7410 N.pl3 198  ARG198     -0.0865
     89  CZ       -33.7080   29.3100  111.3450 C.cat 198  ARG198      0.5346
     90  NH1      -34.7460   29.4300  112.1720 N.pl3 198  ARG198      0.1354
     91  NH2      -33.8980   28.8300  110.1240 N.pl3 198  ARG198      0.1354
     92  N        -27.0030   32.8810  110.8920 N.am  199  GLY199     -0.1940
     93  CA       -26.3310   33.3690  109.7040 C.3   199  GLY199      0.2014
     94  C        -26.4550   34.8480  109.4330 C.2   199  GLY199      0.2638
     95  O        -26.3980   35.2470  108.2930 O.2   199  GLY199     -0.2714
     96  N        -26.5950   35.6730  110.4670 N.am  200  ALA200     -0.1977
     97  CA       -26.5080   37.1200  110.2840 C.3   200  ALA200      0.1597
     98  C        -25.0680   37.4670  109.9080 C.2   200  ALA200      0.2287
     99  O        -24.1360   36.7930  110.3580 O.2   200  ALA200     -0.2864
    100  CB       -26.9040   37.8490  111.5740 C.3   200  ALA200      0.0319
    101  N        -30.4540   34.4370  121.3360 N.3   226  TYR226     -0.1241
    102  CA       -30.5900   33.0170  121.7060 C.3   226  TYR226      0.1605
    103  C        -29.2950   32.3660  122.1730 C.2   226  TYR226      0.2264
    104  O        -29.2720   31.1670  122.4460 O.2   226  TYR226     -0.2867
    105  CB       -31.1790   32.2130  120.5360 C.3   226  TYR226      0.0534
    106  CG       -32.6580   32.4530  120.3370 C.ar  226  TYR226     -0.0201
    107  CD1      -33.1180   33.5480  119.6000 C.ar  226  TYR226     -0.0009
    108  CD2      -33.6030   31.5820  120.8840 C.ar  226  TYR226     -0.0009
    109  CE1      -34.4760   33.7630  119.4030 C.ar  226  TYR226      0.0417
    110  CE2      -34.9770   31.7900  120.6950 C.ar  226  TYR226      0.0417
    111  CZ       -35.4040   32.8810  119.9550 C.ar  226  TYR226      0.1957
    112  OH       -36.7540   33.0910  119.7650 O.3   226  TYR226     -0.2866
@<TRIPOS>BOND
     1    19    17    1
     2    16    17    2
     3    16    15    1
     4    17    18    1
     5    27    26   ar
     6    15    14    1
     7    13    14    1
     8    13    10    1
     9    12    11    2
    10    26    25    1
    11    26    28   ar
    12    25    24    1
    13    11    10    1
    14    20    21    1
    15    10     9    1
    16    22    21    1
    17    22    23    2
    18    24    21    1
    19     9     3   am
    20     1     2    1
    21    95    94    2
    22     3     2    1
    23     3     4    2
    24     2     5    1
    25    94    93    1
    26    94    96   am
    27     6     5    1
    28     6     8    1
    29    93    92    1
    30    98    97    1
    31    98    99    2
    32    84    83    2
    33     5     7    1
    34    91    89    1
    35    97    96    1
    36    97   100    1
    37    92    83   am
    38    83    82    1
    39    29    30    1
    40    89    88    2
    41    89    90    1
    42    88    87    1
    43    82    85    1
    44    82    81    1
    45    85    86    1
    46    43    42    1
    47    43    37    1
    48    30    33    1
    49    30    31    1
    50    42    41    1
    51    77    76    2
    52    87    86    1
    53    37    31   am
    54    37    38    1
    55    33    34    1
    56    31    32    2
    57    81    76   am
    58    41    38    1
    59    79    78    1
    60    76    75    1
    61    38    39    1
    62    65    63    1
    63    34    36   am
    64    34    35    2
    65    78    75    1
    66    78    80    1
    67    75    74    1
    68    39    40    2
    69    39    44   am
    70    74    68   am
    71    63    64    1
    72    63    62    1
    73    66    67    1
    74    59    62    1
    75    59    58    1
    76    59    60    1
    77    44    45    1
    78    61    60    2
    79    68    67    1
    80    68    69    2
    81    67    70    1
    82    47    46    2
    83    45    46    1
    84    45    48    1
    85    46    51   am
    86    49    48    1
    87    50    48    1
    88    70    71    1
    89    72    71    1
    90    72    73    1
    91    51    52    1
    92   109   107   ar
    93   109   111   ar
    94   107   106   ar
    95    54    53    2
    96   112   111    1
    97    52    53    1
    98    52    55    1
    99   111   110   ar
   100   106   105    1
   101   106   108   ar
   102   105   102    1
   103   110   108   ar
   104    57    55    1
   105    55    56    1
   106   101   102    1
   107   102   103    1
   108   103   104    2
