@<TRIPOS>MOLECULE
tmp/4r1yA02.pdb
 118 115 0 0 0
SMALL
GASTEIGER

@<TRIPOS>ATOM
      1  N        -12.1570   30.4100   91.3850 N.3    28  PHE28      -0.1241
      2  CA       -11.2630   29.5950   90.5460 C.3    28  PHE28       0.1605
      3  C        -11.9960   28.6820   89.5640 C.2    28  PHE28       0.2264
      4  O        -11.3920   28.2130   88.6030 O.2    28  PHE28      -0.2867
      5  CB       -10.3300   28.7180   91.3970 C.3    28  PHE28       0.0534
      6  CG        -9.4910   29.4820   92.3850 C.ar   28  PHE28      -0.0203
      7  CD1       -9.0190   30.7580   92.0960 C.ar   28  PHE28      -0.0042
      8  CD2       -9.1510   28.9060   93.6040 C.ar   28  PHE28      -0.0042
      9  CE1       -8.2410   31.4560   93.0160 C.ar   28  PHE28      -0.0003
     10  CE2       -8.3680   29.5940   94.5250 C.ar   28  PHE28      -0.0003
     11  CZ        -7.9180   30.8680   94.2320 C.ar   28  PHE28      -0.0000
     12  N         -7.1970   29.0720  107.7980 N.3   124  ARG124     -0.1231
     13  CA        -7.1070   30.4740  107.3170 C.3   124  ARG124      0.1694
     14  C         -8.4140   31.1460  106.8360 C.2   124  ARG124      0.2592
     15  O         -8.4200   32.3560  106.5930 O.2   124  ARG124     -0.2718
     16  CB        -6.0070   30.6750  106.2430 C.3   124  ARG124      0.0321
     17  CG        -4.5820   30.3740  106.7350 C.3   124  ARG124      0.0489
     18  CD        -3.5470   30.7120  105.6830 C.3   124  ARG124      0.2205
     19  NE        -3.7320   29.9180  104.4620 N.pl3 124  ARG124     -0.0865
     20  CZ        -2.9970   30.0340  103.3580 C.cat 124  ARG124      0.5346
     21  NH1       -2.0100   30.9230  103.2930 N.pl3 124  ARG124      0.1354
     22  NH2       -3.2520   29.2530  102.3130 N.pl3 124  ARG124      0.1354
     23  N         -9.4950   30.3930  106.7090 N.am  125  ASP125     -0.1974
     24  CA       -10.7700   30.9540  106.2530 C.3   125  ASP125      0.1709
     25  C        -11.9520   30.1680  106.8120 C.2   125  ASP125      0.2293
     26  O        -12.9070   29.8260  106.1030 O.2   125  ASP125     -0.2864
     27  CB       -10.8190   30.9830  104.7220 C.3   125  ASP125      0.1436
     28  CG       -11.9190   31.8860  104.1780 C.2   125  ASP125      0.3671
     29  OD1      -12.5640   32.6230  104.9580 O.co2 125  ASP125     -0.2456
     30  OD2      -12.1420   31.8480  102.9520 O.co2 125  ASP125     -0.2456
     31  N         -9.9020   24.8760   98.3020 N.3   148  ARG148     -0.1231
     32  CA        -9.7800   26.2680   98.7490 C.3   148  ARG148      0.1694
     33  C        -10.1970   27.2340   97.6470 C.2   148  ARG148      0.2592
     34  O         -9.7560   27.1050   96.5110 O.2   148  ARG148     -0.2718
     35  CB        -8.3410   26.5670   99.1730 C.3   148  ARG148      0.0321
     36  CG        -8.1630   27.9180   99.8690 C.3   148  ARG148      0.0489
     37  CD        -6.7350   28.4230   99.7090 C.3   148  ARG148      0.2205
     38  NE        -6.5640   29.7570  100.2820 N.pl3 148  ARG148     -0.0865
     39  CZ        -5.5110   30.5400  100.0760 C.cat 148  ARG148      0.5346
     40  NH1       -4.5030   30.1480   99.2960 N.pl3 148  ARG148      0.1354
     41  NH2       -5.4690   31.7320  100.6430 N.pl3 148  ARG148      0.1354
     42  N        -11.0530   28.1950   97.9920 N.am  149  ASP149     -0.1960
     43  CA       -11.5400   29.2000   97.0410 C.3   149  ASP149      0.1840
     44  C        -12.2990   30.2950   97.8010 C.2   149  ASP149      0.2621
     45  O        -12.3940   30.2630   99.0210 O.2   149  ASP149     -0.2715
     46  CB       -12.4730   28.5450   95.9940 C.3   149  ASP149      0.1450
     47  CG       -12.4520   29.2490   94.6430 C.2   149  ASP149      0.3671
     48  OD1      -12.6810   28.5740   93.6100 O.co2 149  ASP149     -0.2456
     49  OD2      -12.2170   30.4740   94.5960 O.co2 149  ASP149     -0.2456
     50  N        -12.8130   31.2710   97.0660 N.am  150  MET150     -0.1977
     51  CA       -13.8020   32.2050   97.5890 C.3   150  MET150      0.1605
     52  C        -15.1320   31.7790   97.0080 C.2   150  MET150      0.2287
     53  O        -15.3340   31.8420   95.7800 O.2   150  MET150     -0.2864
     54  CB       -13.5180   33.6320   97.1360 C.3   150  MET150      0.0413
     55  CG       -12.1620   34.1680   97.5290 C.3   150  MET150      0.0598
     56  SD       -12.0140   35.8910   97.0360 S.3   150  MET150     -0.1393
     57  CE       -12.0060   35.7460   95.2500 C.3   150  MET150      0.0692
     58  N        -14.9850   39.0720  101.1670 N.3   156  TYR156     -0.1241
     59  CA       -13.5360   39.1320  100.9750 C.3   156  TYR156      0.1605
     60  C        -13.1440   40.5000  100.4310 C.2   156  TYR156      0.2264
     61  O        -13.8010   41.0200   99.5350 O.2   156  TYR156     -0.2867
     62  CB       -13.0690   38.0290  100.0130 C.3   156  TYR156      0.0534
     63  CG       -13.3390   36.6410  100.5280 C.ar  156  TYR156     -0.0201
     64  CD1      -14.5800   36.0460  100.3540 C.ar  156  TYR156     -0.0009
     65  CD2      -12.3570   35.9270  101.2050 C.ar  156  TYR156     -0.0009
     66  CE1      -14.8450   34.7730  100.8570 C.ar  156  TYR156      0.0417
     67  CE2      -12.6060   34.6540  101.6940 C.ar  156  TYR156      0.0417
     68  CZ       -13.8520   34.0840  101.5250 C.ar  156  TYR156      0.1957
     69  OH       -14.0990   32.8150  102.0070 O.3   156  TYR156     -0.2866
     70  N         -3.8720   39.8400   98.2460 N.3   162  ALA162     -0.1231
     71  CA        -4.7150   38.7710   98.7880 C.3   162  ALA162      0.1694
     72  C         -6.1260   39.2670   99.0840 C.2   162  ALA162      0.2592
     73  O         -6.3150   40.4160   99.4910 O.2   162  ALA162     -0.2718
     74  CB        -4.0910   38.1850  100.0560 C.3   162  ALA162      0.0304
     75  N         -7.1080   38.3940   98.8650 N.am  163  LYS163     -0.1966
     76  CA        -8.4980   38.6760   99.2080 C.3   163  LYS163      0.1728
     77  C         -8.7410   38.0740  100.5760 C.2   163  LYS163      0.2616
     78  O         -8.6970   36.8600  100.7440 O.2   163  LYS163     -0.2715
     79  CB        -9.4440   38.0770   98.1690 C.3   163  LYS163      0.0311
     80  CG        -9.3060   38.5990   96.7570 C.3   163  LYS163      0.0038
     81  CD        -8.1660   37.9510   95.9800 C.3   163  LYS163      0.0206
     82  CE        -8.1990   38.3500   94.5140 C.3   163  LYS163      0.1093
     83  NZ        -7.0780   37.7420   93.7440 N.3   163  LYS163     -0.1314
     84  N         -8.9890   38.9310  101.5590 N.am  164  LEU164     -0.1964
     85  CA        -9.0140   38.5230  102.9570 C.3   164  LEU164      0.1713
     86  C        -10.4240   38.6040  103.5470 C.2   164  LEU164      0.2458
     87  O        -11.1190   39.5900  103.3400 O.2   164  LEU164     -0.2730
     88  CB        -8.0770   39.4250  103.7640 C.3   164  LEU164      0.0310
     89  CG        -6.5990   39.4350  103.3620 C.3   164  LEU164      0.0022
     90  CD1       -5.8190   40.4200  104.2290 C.3   164  LEU164      0.0001
     91  CD2       -5.9960   38.0500  103.4630 C.3   164  LEU164      0.0001
     92  N        -10.8380   37.5710  104.2990 N.am  165  PRO165     -0.2727
     93  CA       -12.1350   37.5640  104.9720 C.3   165  PRO165      0.1402
     94  C        -12.0630   38.3740  106.2740 C.2   165  PRO165      0.2269
     95  O        -12.0920   37.8170  107.3810 O.2   165  PRO165     -0.2865
     96  CB       -12.3610   36.0830  105.2420 C.3   165  PRO165      0.0296
     97  CG       -10.9830   35.5710  105.5000 C.3   165  PRO165      0.0237
     98  CD       -10.0940   36.3210  104.5470 C.3   165  PRO165      0.0939
     99  N         -1.1920   40.2650  108.4580 N.3   177  GLN177     -0.1245
    100  CA        -1.5700   39.3300  107.3840 C.3   177  GLN177      0.1566
    101  C         -1.0070   37.9110  107.5410 C.2   177  GLN177      0.2260
    102  O         -0.9170   37.1790  106.5590 O.2   177  GLN177     -0.2867
    103  CB        -1.1980   39.8820  106.0050 C.3   177  GLN177      0.0367
    104  CG        -2.0190   41.0630  105.5630 C.3   177  GLN177      0.0905
    105  CD        -1.7390   41.4200  104.1230 C.2   177  GLN177      0.2608
    106  OE1       -2.3820   40.8990  103.2060 O.2   177  GLN177     -0.2717
    107  NE2       -0.7400   42.2750  103.9090 N.am  177  GLN177     -0.0878
    108  N         -1.3500   34.1100  109.5320 N.3   179  PHE179     -0.1241
    109  CA        -2.3280   33.2420  110.1550 C.3   179  PHE179      0.1605
    110  C         -1.6630   32.0900  110.9110 C.2   179  PHE179      0.2264
    111  O         -0.5470   31.6760  110.5940 O.2   179  PHE179     -0.2867
    112  CB        -3.3030   32.7110  109.1050 C.3   179  PHE179      0.0534
    113  CG        -4.0260   33.7920  108.3090 C.ar  179  PHE179     -0.0203
    114  CD1       -3.3490   34.5570  107.3620 C.ar  179  PHE179     -0.0042
    115  CD2       -5.3910   34.0050  108.4730 C.ar  179  PHE179     -0.0042
    116  CE1       -4.0150   35.5360  106.6250 C.ar  179  PHE179     -0.0003
    117  CE2       -6.0650   34.9650  107.7300 C.ar  179  PHE179     -0.0003
    118  CZ        -5.3820   35.7320  106.8140 C.ar  179  PHE179     -0.0000
@<TRIPOS>BOND
     1     4     3    2
     2     3     2    1
     3     2     1    1
     4     2     5    1
     5     5     6    1
     6     7     6   ar
     7     7     9   ar
     8     6     8   ar
     9     9    11   ar
    10     8    10   ar
    11    48    47   ar
    12    83    82    1
    13    11    10   ar
    14    82    81    1
    15    49    47   ar
    16    47    46    1
    17    57    56    1
    18    53    52    2
    19    81    80    1
    20    46    43    1
    21    34    33    2
    22    80    79    1
    23    52    51    1
    24    56    55    1
    25    43    44    1
    26    43    42    1
    27    50    51    1
    28    50    44   am
    29    54    55    1
    30    54    51    1
    31    33    42   am
    32    33    32    1
    33    44    45    2
    34    79    76    1
    35    70    71    1
    36    31    32    1
    37    32    35    1
    38    71    72    1
    39    71    74    1
    40    75    72   am
    41    75    76    1
    42    72    73    2
    43    35    36    1
    44    76    77    1
    45    40    39    1
    46    61    60    2
    47    37    36    1
    48    37    38    1
    49    62    63    1
    50    62    59    1
    51    39    38    2
    52    39    41    1
    53    64    63   ar
    54    64    66   ar
    55    60    59    1
    56    63    65   ar
    57    77    78    2
    58    77    84   am
    59    66    68   ar
    60    59    58    1
    61    65    67   ar
    62    68    67   ar
    63    68    69    1
    64    84    85    1
    65    22    20    1
    66    30    28   ar
    67    85    86    1
    68    85    88    1
    69   106   105    2
    70    21    20    1
    71    87    86    2
    72    20    19    2
    73    89    91    1
    74    89    88    1
    75    89    90    1
    76    86    92   am
    77   107   105   am
    78   105   104    1
    79    28    27    1
    80    28    29   ar
    81    92    98    1
    82    92    93    1
    83    19    18    1
    84    98    97    1
    85    27    24    1
    86    93    96    1
    87    93    94    1
    88    96    97    1
    89   104   103    1
    90    18    17    1
    91   103   100    1
    92    26    25    2
    93    16    17    1
    94    16    13    1
    95    24    23    1
    96    24    25    1
    97    94    95    2
    98   102   101    2
    99    15    14    2
   100   116   118   ar
   101   116   114   ar
   102    23    14   am
   103   118   117   ar
   104    14    13    1
   105    13    12    1
   106   114   113   ar
   107   100   101    1
   108   100    99    1
   109   117   115   ar
   110   113   115   ar
   111   113   112    1
   112   112   109    1
   113   108   109    1
   114   109   110    1
   115   111   110    2
