@<TRIPOS>MOLECULE
tmp/4r20B01.pdb
 158 147 0 0 0
SMALL
GASTEIGER

@<TRIPOS>ATOM
      1  N         55.6360    9.1230   89.4440 N.3    60  LEU60      -0.1245
      2  CA        54.4510    8.4130   89.0380 C.3    60  LEU60       0.1561
      3  C         53.4610    9.3230   88.3250 C.2    60  LEU60       0.2260
      4  O         52.6890    8.8450   87.5330 O.2    60  LEU60      -0.2867
      5  CB        53.8160    7.7600   90.2640 C.3    60  LEU60       0.0270
      6  CG        53.3310    6.3210   90.1450 C.3    60  LEU60       0.0019
      7  CD1       54.4630    5.3940   89.7400 C.3    60  LEU60       0.0001
      8  CD2       52.7510    5.8820   91.4810 C.3    60  LEU60       0.0001
      9  N         45.1290   12.8060   92.4590 N.3    68  ALA68      -0.1231
     10  CA        45.3510   12.2460   93.8170 C.3    68  ALA68       0.1694
     11  C         46.5770   12.7880   94.5610 C.2    68  ALA68       0.2592
     12  O         46.5570   12.9680   95.7650 O.2    68  ALA68      -0.2718
     13  CB        45.4220   10.7180   93.7570 C.3    68  ALA68       0.0304
     14  N         47.6550   13.0510   93.8500 N.am   69  PHE69      -0.1976
     15  CA        48.9060   13.3810   94.5160 C.3    69  PHE69       0.1639
     16  C         49.2970   14.8110   94.2490 C.2    69  PHE69       0.2290
     17  O         50.4510   15.1900   94.4160 O.2    69  PHE69      -0.2864
     18  CB        49.9770   12.4100   94.0570 C.3    69  PHE69       0.0560
     19  CG        49.6340   10.9810   94.3530 C.ar   69  PHE69      -0.0200
     20  CD1       49.3980   10.5770   95.6480 C.ar   69  PHE69      -0.0042
     21  CD2       49.5460   10.0390   93.3400 C.ar   69  PHE69      -0.0042
     22  CE1       49.0870    9.2620   95.9270 C.ar   69  PHE69      -0.0003
     23  CE2       49.2280    8.7130   93.6150 C.ar   69  PHE69      -0.0003
     24  CZ        49.0000    8.3280   94.9100 C.ar   69  PHE69      -0.0000
     25  N         52.6920   -3.8810   83.0660 N.3   150  TYR150     -0.1227
     26  CA        53.3520   -2.6730   83.5950 C.3   150  TYR150      0.1736
     27  C         52.7070   -2.1240   84.8730 C.2   150  TYR150      0.2595
     28  O         53.3830   -1.4640   85.6710 O.2   150  TYR150     -0.2718
     29  CB        53.5530   -1.5730   82.5310 C.3   150  TYR150      0.0548
     30  CG        52.3560   -0.6990   82.1650 C.ar  150  TYR150     -0.0200
     31  CD1       51.6950    0.1130   83.1190 C.ar  150  TYR150     -0.0009
     32  CD2       51.9220   -0.6280   80.8460 C.ar  150  TYR150     -0.0009
     33  CE1       50.6230    0.9210   82.7590 C.ar  150  TYR150      0.0417
     34  CE2       50.8470    0.1750   80.4870 C.ar  150  TYR150      0.0417
     35  CZ        50.2100    0.9470   81.4360 C.ar  150  TYR150      0.1957
     36  OH        49.1610    1.7390   81.0420 O.3   150  TYR150     -0.2866
     37  N         51.4130   -2.3820   85.0610 N.am  151  ASN151     -0.1974
     38  CA        50.7440   -2.0020   86.3030 C.3   151  ASN151      0.1688
     39  C         51.2430   -2.8500   87.4460 C.2   151  ASN151      0.2292
     40  O         51.6080   -2.3320   88.5030 O.2   151  ASN151     -0.2864
     41  CB        49.2200   -2.1140   86.1880 C.3   151  ASN151      0.1181
     42  CG        48.5900   -0.8570   85.6400 C.2   151  ASN151      0.2629
     43  OD1       49.0440    0.2450   85.9300 O.2   151  ASN151     -0.2716
     44  ND2       47.5330   -1.0110   84.8440 N.am  151  ASN151     -0.0877
     45  N         54.8920   -1.8680   88.3890 N.3   154  ILE154     -0.1231
     46  CA        54.7650   -0.6590   89.2140 C.3   154  ILE154      0.1692
     47  C         54.2020   -0.9480   90.6180 C.2   154  ILE154      0.2591
     48  O         54.7280   -0.4370   91.6070 O.2   154  ILE154     -0.2718
     49  CB        53.8520    0.3860   88.5310 C.3   154  ILE154      0.0266
     50  CG1       54.5870    1.0600   87.3930 C.3   154  ILE154      0.0019
     51  CG2       53.3800    1.4640   89.5170 C.3   154  ILE154      0.0020
     52  CD1       53.7210    1.9290   86.5230 C.3   154  ILE154      0.0001
     53  N         53.1200   -1.7230   90.7220 N.am  155  VAL155     -0.1980
     54  CA        52.5260   -1.9520   92.0400 C.3   155  VAL155      0.1595
     55  C         53.5290   -2.6560   92.9360 C.2   155  VAL155      0.2287
     56  O         53.6710   -2.2710   94.0790 O.2   155  VAL155     -0.2864
     57  CB        51.1810   -2.7370   92.0180 C.3   155  VAL155      0.0276
     58  CG1       50.8230   -3.2430   93.4170 C.3   155  VAL155      0.0022
     59  CG2       50.0390   -1.8730   91.4830 C.3   155  VAL155      0.0022
     60  N         56.3600   -0.4920   94.1480 N.3   158  ILE158     -0.1245
     61  CA        55.8580    0.3790   95.2240 C.3   158  ILE158      0.1561
     62  C         55.5240   -0.4080   96.4860 C.2   158  ILE158      0.2260
     63  O         55.7540    0.0670   97.5940 O.2   158  ILE158     -0.2867
     64  CB        54.5970    1.1570   94.7730 C.3   158  ILE158      0.0252
     65  CG1       54.9370    2.1030   93.6230 C.3   158  ILE158      0.0019
     66  CG2       53.9940    1.9710   95.9170 C.3   158  ILE158      0.0019
     67  CD1       53.7230    2.6000   92.8720 C.3   158  ILE158      0.0001
     68  N         54.7310    3.1020   80.0830 N.3   172  ARG172     -0.1245
     69  CA        53.3260    3.5050   80.2490 C.3   172  ARG172      0.1563
     70  C         53.0660    4.8850   79.6410 C.2   172  ARG172      0.2260
     71  O         52.1080    5.0770   78.9100 O.2   172  ARG172     -0.2867
     72  CB        52.9490    3.5270   81.7290 C.3   172  ARG172      0.0307
     73  CG        51.5770    4.1350   82.0480 C.3   172  ARG172      0.0489
     74  CD        51.5140    4.7090   83.4530 C.3   172  ARG172      0.2205
     75  NE        52.3040    5.9320   83.5710 N.pl3 172  ARG172     -0.0865
     76  CZ        52.3120    6.7300   84.6360 C.cat 172  ARG172      0.5346
     77  NH1       51.5540    6.4560   85.6860 N.pl3 172  ARG172      0.1354
     78  NH2       53.0760    7.8180   84.6450 N.pl3 172  ARG172      0.1354
     79  N         46.2330    7.8920   83.0960 N.3   223  ALA223     -0.1231
     80  CA        47.0090    6.8700   83.8040 C.3   223  ALA223      0.1694
     81  C         46.4310    6.5870   85.1830 C.2   223  ALA223      0.2591
     82  O         46.3430    5.4400   85.5890 O.2   223  ALA223     -0.2718
     83  CB        48.4590    7.2750   83.9210 C.3   223  ALA223      0.0304
     84  N         46.0340    7.6370   85.8930 N.am  224  GLU224     -0.1979
     85  CA        45.4420    7.5090   87.2360 C.3   224  GLU224      0.1602
     86  C         44.0700    6.8190   87.2600 C.2   224  GLU224      0.2287
     87  O         43.7510    6.0590   88.1890 O.2   224  GLU224     -0.2864
     88  CB        45.3050    8.8950   87.8550 C.3   224  GLU224      0.0415
     89  CG        44.9090    8.8930   89.3150 C.3   224  GLU224      0.1163
     90  CD        45.2770   10.1950   90.0060 C.2   224  GLU224      0.3649
     91  OE1       44.4100   11.1210   90.0460 O.co2 224  GLU224     -0.2457
     92  OE2       46.4390   10.2840   90.4890 O.co2 224  GLU224     -0.2457
     93  N         44.9810    3.1360   87.0900 N.3   227  GLY227     -0.1210
     94  CA        45.5260    2.6050   88.3130 C.3   227  GLY227      0.1956
     95  C         44.3760    2.4900   89.2670 C.2   227  GLY227      0.2611
     96  O         44.0450    1.4050   89.7040 O.2   227  GLY227     -0.2717
     97  N         43.7210    3.6080   89.5280 N.am  228  ALA228     -0.1979
     98  CA        42.5900    3.6030   90.4220 C.3   228  ALA228      0.1597
     99  C         41.4570    2.7270   89.8980 C.2   228  ALA228      0.2287
    100  O         40.8500    1.9740   90.6470 O.2   228  ALA228     -0.2864
    101  CB        42.0870    5.0180   90.6430 C.3   228  ALA228      0.0319
    102  N         42.6790   -1.1370   90.4480 N.3   231  GLU231     -0.1231
    103  CA        43.1830   -1.6230   91.7190 C.3   231  GLU231      0.1699
    104  C         42.0730   -1.6530   92.7810 C.2   231  GLU231      0.2592
    105  O         41.9550   -2.6200   93.5280 O.2   231  GLU231     -0.2718
    106  CB        44.3860   -0.7680   92.1310 C.3   231  GLU231      0.0402
    107  CG        45.5520   -1.5350   92.7380 C.3   231  GLU231      0.1161
    108  CD        46.1560   -2.6010   91.8350 C.2   231  GLU231      0.3649
    109  OE1       46.3040   -2.3760   90.6080 O.co2 231  GLU231     -0.2457
    110  OE2       46.5060   -3.6730   92.3830 O.co2 231  GLU231     -0.2457
    111  N         41.2150   -0.6410   92.8020 N.am  232  THR232     -0.1953
    112  CA        40.1060   -0.5960   93.7700 C.3   232  THR232      0.1897
    113  C         38.9990   -1.6290   93.5140 C.2   232  THR232      0.2313
    114  O         38.4820   -2.2600   94.4400 O.2   232  THR232     -0.2863
    115  CB        39.4570    0.7700   93.7700 C.3   232  THR232      0.1794
    116  OG1       39.0620    1.0870   92.4430 O.3   232  THR232     -0.2208
    117  CG2       40.4340    1.8080   94.2340 C.3   232  THR232      0.0378
    118  N         39.7350   -0.2190  101.3900 N.3   292  VAL292     -0.1231
    119  CA        40.7560   -0.2100  100.3600 C.3   292  VAL292      0.1692
    120  C         42.0240    0.5300  100.7950 C.2   292  VAL292      0.2592
    121  O         43.1250    0.0320  100.5910 O.2   292  VAL292     -0.2718
    122  CB        40.2540    0.3730   99.0450 C.3   292  VAL292      0.0266
    123  CG1       39.3450   -0.6270   98.3700 C.3   292  VAL292      0.0020
    124  CG2       39.5670    1.7070   99.2480 C.3   292  VAL292      0.0020
    125  N         41.8370    1.6900  101.4220 N.am  293  SER293     -0.1952
    126  CA        42.9120    2.4920  102.0040 C.3   293  SER293      0.1924
    127  C         42.6680    2.6830  103.5230 C.2   293  SER293      0.2314
    128  O         42.0690    3.7000  103.9470 O.2   293  SER293     -0.2863
    129  CB        42.9430    3.8430  101.3120 C.3   293  SER293      0.2116
    130  OG        43.1510    3.6420   99.9400 O.3   293  SER293     -0.2180
    131  N         45.4410    8.6860  101.7410 N.3   297  ILE297     -0.1245
    132  CA        46.4950    9.4890  101.1670 C.3   297  ILE297      0.1561
    133  C         46.6350   10.7030  102.0900 C.2   297  ILE297      0.2260
    134  O         45.6460   11.3990  102.3220 O.2   297  ILE297     -0.2867
    135  CB        46.1270    9.9560   99.7320 C.3   297  ILE297      0.0252
    136  CG1       45.6960    8.7570   98.8470 C.3   297  ILE297      0.0019
    137  CG2       47.2810   10.7250   99.1010 C.3   297  ILE297      0.0019
    138  CD1       45.6240    9.0220   97.3490 C.3   297  ILE297      0.0001
    139  N         36.6330   10.8730   96.7850 N.3   358  CYS358     -0.1235
    140  CA        36.9220    9.9860   95.6420 C.3   358  CYS358      0.1677
    141  C         36.3400   10.4850   94.3280 C.2   358  CYS358      0.2270
    142  O         35.1470   10.7320   94.2460 O.2   358  CYS358     -0.2867
    143  CB        36.3640    8.5960   95.9200 C.3   358  CYS358      0.0956
    144  SG        36.8480    7.4040   94.6710 S.3   358  CYS358     -0.0801
    145  N         49.3940   -1.3270   97.5230 N.3   398  VAL398     -0.1231
    146  CA        48.8990    0.0620   97.3620 C.3   398  VAL398      0.1692
    147  C         47.4400    0.1970   97.8050 C.2   398  VAL398      0.2591
    148  O         46.9460    1.3010   97.9810 O.2   398  VAL398     -0.2718
    149  CB        48.9780    0.5740   95.9150 C.3   398  VAL398      0.0266
    150  CG1       50.3930    0.4470   95.3650 C.3   398  VAL398      0.0020
    151  CG2       48.0010   -0.1590   95.0160 C.3   398  VAL398      0.0020
    152  N         46.7530   -0.9380   97.9300 N.am  399  VAL399     -0.1980
    153  CA        45.4420   -1.0390   98.5620 C.3   399  VAL399      0.1595
    154  C         45.4470   -2.2590   99.4740 C.2   399  VAL399      0.2287
    155  O         46.3710   -3.0530   99.4280 O.2   399  VAL399     -0.2864
    156  CB        44.3150   -1.1910   97.5330 C.3   399  VAL399      0.0276
    157  CG1       43.9400    0.1500   96.9400 C.3   399  VAL399      0.0022
    158  CG2       44.7270   -2.1580   96.4340 C.3   399  VAL399      0.0022
@<TRIPOS>BOND
     1    71    70    2
     2    70    69    1
     3    68    69    1
     4    69    72    1
     5    34    32   ar
     6    34    35   ar
     7    32    30   ar
     8    36    35    1
     9    35    33   ar
    10    72    73    1
    11    73    74    1
    12    30    29    1
    13    30    31   ar
    14    29    26    1
    15    33    31   ar
    16    25    26    1
    17    79    80    1
    18    74    75    1
    19    75    76    2
    20    26    27    1
    21    80    83    1
    22    80    81    1
    23    76    78    1
    24    76    77    1
    25    44    42   am
    26    27    37   am
    27    27    28    2
    28    37    38    1
    29    81    82    2
    30    81    84   am
    31    42    43    2
    32    42    41    1
    33    84    85    1
    34    41    38    1
    35    38    39    1
    36    52    50    1
    37    93    94    1
    38    85    86    1
    39    85    88    1
    40    86    87    2
    41    50    49    1
    42    39    40    2
    43     4     3    2
    44    88    89    1
    45    94    95    1
    46     3     2    1
    47    45    46    1
    48    49    46    1
    49    49    51    1
    50     2     1    1
    51     2     5    1
    52    46    47    1
    53    95    97   am
    54    95    96    2
    55    89    90    1
    56    97    98    1
    57     7     6    1
    58    99    98    1
    59    99   100    2
    60    90    91   ar
    61    90    92   ar
    62     6     5    1
    63     6     8    1
    64    98   101    1
    65   102   103    1
    66   109   108   ar
    67    47    53   am
    68    47    48    2
    69    53    54    1
    70    59    57    1
    71   103   106    1
    72   103   104    1
    73   108   110   ar
    74   108   107    1
    75    57    54    1
    76    57    58    1
    77    54    55    1
    78   106   107    1
    79   116   115    1
    80     9    10    1
    81   104   111   am
    82   104   105    2
    83   111   112    1
    84    67    65    1
    85    55    56    2
    86    21    23   ar
    87    21    19   ar
    88   113   112    1
    89   113   114    2
    90    23    24   ar
    91    65    64    1
    92    13    10    1
    93   112   115    1
    94   115   117    1
    95    10    11    1
    96    14    15    1
    97    14    11   am
    98    18    19    1
    99    18    15    1
   100    60    61    1
   101   142   141    2
   102    16    17    2
   103    16    15    1
   104   141   140    1
   105    19    20   ar
   106    11    12    2
   107   144   143    1
   108    64    61    1
   109    64    66    1
   110    24    22   ar
   111   151   149    1
   112    61    62    1
   113   150   149    1
   114   140   143    1
   115   140   139    1
   116    20    22   ar
   117   149   146    1
   118   158   156    1
   119    62    63    2
   120   157   156    1
   121   138   136    1
   122   146   145    1
   123   146   147    1
   124   156   153    1
   125   147   152   am
   126   147   148    2
   127   152   153    1
   128   123   122    1
   129   153   154    1
   130   136   135    1
   131   122   124    1
   132   122   119    1
   133   137   135    1
   134   155   154    2
   135   135   132    1
   136   130   129    1
   137   119   120    1
   138   119   118    1
   139   121   120    2
   140   120   125   am
   141   132   131    1
   142   132   133    1
   143   129   126    1
   144   125   126    1
   145   126   127    1
   146   133   134    2
   147   127   128    2
