@<TRIPOS>MOLECULE
tmp/4r21B01.pdb
 150 139 0 0 0
SMALL
GASTEIGER

@<TRIPOS>ATOM
      1  N          0.8370   13.2390   42.4830 N.3    60  LEU60      -0.1231
      2  CA        -0.4420   12.8470   41.9060 C.3    60  LEU60       0.1693
      3  C         -1.2790   14.0080   41.4260 C.2    60  LEU60       0.2592
      4  O         -2.0910   13.8170   40.5410 O.2    60  LEU60      -0.2718
      5  CB        -1.2510   12.0490   42.9100 C.3    60  LEU60       0.0284
      6  CG        -1.0300   10.5460   42.9290 C.3    60  LEU60       0.0019
      7  CD1        0.2500   10.1150   42.2450 C.3    60  LEU60       0.0001
      8  CD2       -1.0520   10.0440   44.3680 C.3    60  LEU60       0.0001
      9  N         -1.0750   15.1930   42.0010 N.am   61  THR61      -0.1953
     10  CA        -2.0230   16.3030   41.8770 C.3    61  THR61       0.1897
     11  C         -1.4100   17.6680   41.5410 C.2    61  THR61       0.2313
     12  O         -2.0760   18.6850   41.6430 O.2    61  THR61      -0.2863
     13  CB        -2.8020   16.4760   43.2050 C.3    61  THR61       0.1794
     14  OG1       -1.9070   16.9700   44.2190 O.3    61  THR61      -0.2208
     15  CG2       -3.4420   15.1510   43.6620 C.3    61  THR61       0.0378
     16  N         -9.2590   16.1480   45.8500 N.3    68  ALA68      -0.1231
     17  CA        -9.1270   15.3090   47.0590 C.3    68  ALA68       0.1694
     18  C         -8.1190   15.8460   48.1040 C.2    68  ALA68       0.2592
     19  O         -8.4280   15.9000   49.2980 O.2    68  ALA68      -0.2718
     20  CB        -8.7950   13.8680   46.6850 C.3    68  ALA68       0.0304
     21  N         -6.9430   16.2630   47.6460 N.am   69  PHE69      -0.1976
     22  CA        -5.8690   16.7130   48.5280 C.3    69  PHE69       0.1639
     23  C         -5.5870   18.1950   48.3890 C.2    69  PHE69       0.2290
     24  O         -4.4760   18.6480   48.6540 O.2    69  PHE69      -0.2864
     25  CB        -4.6120   15.8910   48.2550 C.3    69  PHE69       0.0560
     26  CG        -4.8820   14.4180   48.2060 C.ar   69  PHE69      -0.0200
     27  CD1       -4.8910   13.6690   49.3590 C.ar   69  PHE69      -0.0042
     28  CD2       -5.1930   13.7910   47.0150 C.ar   69  PHE69      -0.0042
     29  CE1       -5.1850   12.3140   49.3190 C.ar   69  PHE69      -0.0003
     30  CE2       -5.4830   12.4380   46.9720 C.ar   69  PHE69      -0.0003
     31  CZ        -5.4850   11.6990   48.1240 C.ar   69  PHE69      -0.0000
     32  N         -2.5050    3.6420   35.3010 N.3   157  ASN157     -0.1240
     33  CA        -3.3650    3.7180   36.5080 C.3   157  ASN157      0.1653
     34  C         -2.8980    2.6380   37.4760 C.2   157  ASN157      0.2266
     35  O         -2.5580    2.9190   38.6180 O.2   157  ASN157     -0.2867
     36  CB        -4.8430    3.4470   36.2150 C.3   157  ASN157      0.1155
     37  CG        -5.5580    4.6000   35.5220 C.2   157  ASN157      0.2627
     38  OD1       -5.0550    5.7350   35.4430 O.2   157  ASN157     -0.2716
     39  ND2       -6.7740    4.3020   35.0250 N.am  157  ASN157     -0.0877
     40  N          0.4950    3.4970   38.8780 N.3   160  ILE160     -0.1231
     41  CA         0.3640    4.4380   39.9640 C.3   160  ILE160      0.1692
     42  C         -0.0550    3.6900   41.2160 C.2   160  ILE160      0.2591
     43  O          0.5590    3.8400   42.2610 O.2   160  ILE160     -0.2718
     44  CB        -0.6740    5.5090   39.6570 C.3   160  ILE160      0.0266
     45  CG1       -0.1240    6.4560   38.6050 C.3   160  ILE160      0.0019
     46  CG2       -1.0520    6.2720   40.9310 C.3   160  ILE160      0.0020
     47  CD1       -1.1890    7.1320   37.7850 C.3   160  ILE160      0.0001
     48  N         -1.0960    2.8740   41.1000 N.am  161  VAL161     -0.1980
     49  CA        -1.6120    2.1160   42.2380 C.3   161  VAL161      0.1595
     50  C         -0.5190    1.2710   42.8870 C.2   161  VAL161      0.2287
     51  O         -0.0970    1.5750   43.9850 O.2   161  VAL161     -0.2864
     52  CB        -2.8280    1.2380   41.8270 C.3   161  VAL161      0.0276
     53  CG1       -3.0380    0.0520   42.7700 C.3   161  VAL161      0.0022
     54  CG2       -4.0840    2.0920   41.7660 C.3   161  VAL161      0.0022
     55  N          2.0870    2.9980   44.7430 N.3   164  ILE164     -0.1245
     56  CA         1.6250    3.5590   46.0210 C.3   164  ILE164      0.1561
     57  C          1.4100    2.4650   47.0670 C.2   164  ILE164      0.2260
     58  O          1.5770    2.6990   48.2620 O.2   164  ILE164     -0.2867
     59  CB         0.2970    4.3400   45.8810 C.3   164  ILE164      0.0252
     60  CG1        0.4510    5.5570   44.9700 C.3   164  ILE164      0.0019
     61  CG2       -0.1900    4.8160   47.2430 C.3   164  ILE164      0.0019
     62  CD1       -0.8610    6.2410   44.6660 C.3   164  ILE164      0.0001
     63  N          0.3560    9.4500   32.4250 N.3   182  ARG182     -0.1245
     64  CA        -1.0630    9.6700   32.6410 C.3   182  ARG182      0.1563
     65  C         -1.4430   11.0850   32.2270 C.2   182  ARG182      0.2260
     66  O         -2.4280   11.2780   31.5380 O.2   182  ARG182     -0.2867
     67  CB        -1.4410    9.4240   34.1050 C.3   182  ARG182      0.0307
     68  CG        -2.9410    9.5910   34.4360 C.3   182  ARG182      0.0489
     69  CD        -3.1620    9.8980   35.9110 C.3   182  ARG182      0.2205
     70  NE        -2.5850   11.2000   36.2680 N.pl3 182  ARG182     -0.0865
     71  CZ        -2.5290   11.7000   37.5090 C.cat 182  ARG182      0.5346
     72  NH1       -3.0070   11.0210   38.5470 N.pl3 182  ARG182      0.1354
     73  NH2       -1.9910   12.9010   37.7090 N.pl3 182  ARG182      0.1354
     74  N         -8.0690   12.7570   38.4490 N.3   234  GLU234     -0.1245
     75  CA        -8.7120   12.2540   39.6750 C.3   234  GLU234      0.1567
     76  C         -9.9580   11.3790   39.4780 C.2   234  GLU234      0.2260
     77  O        -10.3520   10.6350   40.3950 O.2   234  GLU234     -0.2867
     78  CB        -9.1250   13.4140   40.5550 C.3   234  GLU234      0.0388
     79  CG        -9.3660   13.0300   41.9960 C.3   234  GLU234      0.1160
     80  CD        -8.8110   14.0890   42.9010 C.2   234  GLU234      0.3649
     81  OE1       -9.2690   15.2490   42.7990 O.co2 234  GLU234     -0.2457
     82  OE2       -7.8900   13.7770   43.6700 O.co2 234  GLU234     -0.2457
     83  N         -8.2300    8.1420   39.2110 N.3   237  GLY237     -0.1210
     84  CA        -7.6480    7.9020   40.5260 C.3   237  GLY237      0.1956
     85  C         -8.7000    7.4910   41.5250 C.2   237  GLY237      0.2611
     86  O         -8.6910    6.3590   42.0010 O.2   237  GLY237     -0.2717
     87  N         -9.6330    8.4000   41.7940 N.am  238  ALA238     -0.1979
     88  CA       -10.6780    8.1640   42.7950 C.3   238  ALA238      0.1597
     89  C        -11.8430    7.3130   42.3120 C.2   238  ALA238      0.2287
     90  O        -12.6300    6.8590   43.1380 O.2   238  ALA238     -0.2864
     91  CB       -11.2160    9.4900   43.3210 C.3   238  ALA238      0.0319
     92  N        -11.3610    1.5090   40.8200 N.3   241  GLU241     -0.1231
     93  CA       -10.7850    0.9900   42.0590 C.3   241  GLU241      0.1699
     94  C        -11.7980    1.0330   43.1940 C.2   241  GLU241      0.2592
     95  O        -12.1280    0.0050   43.7540 O.2   241  GLU241     -0.2718
     96  CB        -9.5020    1.7410   42.4510 C.3   241  GLU241      0.0402
     97  CG        -8.5050    0.8420   43.1410 C.3   241  GLU241      0.1161
     98  CD        -7.6030    0.1590   42.1750 C.2   241  GLU241      0.3649
     99  OE1       -7.3940    0.7470   41.1090 O.co2 241  GLU241     -0.2457
    100  OE2       -7.0900   -0.9360   42.4920 O.co2 241  GLU241     -0.2457
    101  N        -12.3210    2.2080   43.5020 N.am  242  THR242     -0.1953
    102  CA       -13.4840    2.3000   44.3890 C.3   242  THR242      0.1897
    103  C        -14.6700    1.4720   43.8590 C.2   242  THR242      0.2313
    104  O        -15.2900    0.6720   44.5710 O.2   242  THR242     -0.2863
    105  CB       -13.9280    3.7580   44.5210 C.3   242  THR242      0.1794
    106  OG1      -13.6080    4.4340   43.3020 O.3   242  THR242     -0.2208
    107  CG2      -13.2060    4.4500   45.6910 C.3   242  THR242      0.0378
    108  N        -14.3300    1.1090   51.5480 N.3   302  VAL302     -0.1231
    109  CA       -13.1690    1.1960   50.6380 C.3   302  VAL302      0.1692
    110  C        -12.0510    2.0730   51.2160 C.2   302  VAL302      0.2592
    111  O        -10.8950    1.9610   50.8040 O.2   302  VAL302     -0.2718
    112  CB       -13.5420    1.6940   49.2120 C.3   302  VAL302      0.0266
    113  CG1      -14.4440    0.6870   48.5060 C.3   302  VAL302      0.0020
    114  CG2      -14.1740    3.0820   49.2450 C.3   302  VAL302      0.0020
    115  N        -12.4110    2.9670   52.1310 N.am  303  SER303     -0.1952
    116  CA       -11.4260    3.7130   52.8980 C.3   303  SER303      0.1924
    117  C        -11.8160    3.5200   54.3490 C.2   303  SER303      0.2314
    118  O        -12.4520    4.3760   54.9550 O.2   303  SER303     -0.2863
    119  CB       -11.4180    5.1840   52.5130 C.3   303  SER303      0.2116
    120  OG       -11.3780    5.3290   51.0940 O.3   303  SER303     -0.2180
    121  N        -10.4580    7.4590   56.3950 N.3   306  LEU306     -0.1231
    122  CA       -10.5650    8.4630   55.3330 C.3   306  LEU306      0.1693
    123  C         -9.2590    9.2440   55.0630 C.2   306  LEU306      0.2591
    124  O         -8.2530    9.1070   55.7550 O.2   306  LEU306     -0.2718
    125  CB       -11.7130    9.4400   55.6330 C.3   306  LEU306      0.0284
    126  CG       -13.0750    8.7860   55.8770 C.3   306  LEU306      0.0019
    127  CD1      -14.2260    9.8010   55.8320 C.3   306  LEU306      0.0001
    128  CD2      -13.3480    7.6200   54.9490 C.3   306  LEU306      0.0001
    129  N         -9.2970   10.0900   54.0490 N.am  307  ILE307     -0.1980
    130  CA        -8.2080   11.0060   53.8360 C.3   307  ILE307      0.1595
    131  C         -8.1870   11.9340   55.0320 C.2   307  ILE307      0.2287
    132  O         -9.1700   12.5850   55.3000 O.2   307  ILE307     -0.2864
    133  CB        -8.4510   11.8710   52.5780 C.3   307  ILE307      0.0276
    134  CG1       -8.5530   11.0170   51.2990 C.3   307  ILE307      0.0022
    135  CG2       -7.3340   12.8920   52.4030 C.3   307  ILE307      0.0022
    136  CD1       -9.2500   11.7190   50.1450 C.3   307  ILE307      0.0001
    137  N         -4.5530    0.6260   47.6340 N.3   410  VAL410     -0.1231
    138  CA        -4.9640    1.9970   47.8510 C.3   410  VAL410      0.1692
    139  C         -6.4390    2.0320   48.3060 C.2   410  VAL410      0.2591
    140  O         -6.9840    3.0960   48.5740 O.2   410  VAL410     -0.2718
    141  CB        -4.7520    2.8120   46.5670 C.3   410  VAL410      0.0266
    142  CG1       -3.3570    2.5420   46.0130 C.3   410  VAL410      0.0020
    143  CG2       -5.8360    2.4970   45.5300 C.3   410  VAL410      0.0020
    144  N         -7.0760    0.8590   48.3550 N.am  411  VAL411     -0.1980
    145  CA        -8.3780    0.6820   48.9570 C.3   411  VAL411      0.1595
    146  C         -8.4390   -0.6890   49.5760 C.2   411  VAL411      0.2287
    147  O         -7.6110   -1.5600   49.3060 O.2   411  VAL411     -0.2864
    148  CB        -9.5110    0.7450   47.9400 C.3   411  VAL411      0.0276
    149  CG1       -9.7650    2.1860   47.5320 C.3   411  VAL411      0.0022
    150  CG2       -9.2150   -0.1590   46.7370 C.3   411  VAL411      0.0022
@<TRIPOS>BOND
     1    66    65    2
     2    65    64    1
     3    63    64    1
     4    64    67    1
     5    67    68    1
     6    68    69    1
     7    39    37   am
     8    32    33    1
     9    38    37    2
    10    37    36    1
    11    69    70    1
    12    36    33    1
    13    70    71    2
    14    33    34    1
    15    34    35    2
    16    71    73    1
    17    71    72    1
    18    47    45    1
    19    74    75    1
    20    45    44    1
    21    40    41    1
    22    83    84    1
    23    76    75    1
    24    76    77    2
    25    44    41    1
    26    44    46    1
    27    75    78    1
    28    41    42    1
    29    84    85    1
    30     4     3    2
    31    78    79    1
    32    92    93    1
    33    48    42   am
    34    48    49    1
    35    99    98   ar
    36    42    43    2
    37     3     2    1
    38     3     9   am
    39    85    87   am
    40    85    86    2
    41    11    12    2
    42    11    10    1
    43    54    52    1
    44    87    88    1
    45    52    49    1
    46    52    53    1
    47    10     9    1
    48    10    13    1
    49     2     1    1
    50     2     5    1
    51    79    80    1
    52    93    96    1
    53    93    94    1
    54    98   100   ar
    55    98    97    1
    56    49    50    1
    57     7     6    1
    58    89    88    1
    59    89    90    2
    60    96    97    1
    61    88    91    1
    62    81    80   ar
    63    50    51    2
    64    80    82   ar
    65     5     6    1
    66     6     8    1
    67    94   101   am
    68    94    95    2
    69    13    15    1
    70    13    14    1
    71   106   105    1
    72   101   102    1
    73   103   102    1
    74   103   104    2
    75   102   105    1
    76   105   107    1
    77    62    60    1
    78    55    56    1
    79    60    59    1
    80   143   141    1
    81    16    17    1
    82    59    56    1
    83    59    61    1
    84   142   141    1
    85    56    57    1
    86   141   138    1
    87    20    17    1
    88   150   148    1
    89    30    28   ar
    90    30    31   ar
    91    28    26   ar
    92    17    18    1
    93    57    58    2
    94   149   148    1
    95   137   138    1
    96    21    18   am
    97    21    22    1
    98   138   139    1
    99   148   145    1
   100    18    19    2
   101    31    29   ar
   102    26    25    1
   103    26    27   ar
   104    25    22    1
   105   139   144   am
   106   139   140    2
   107   144   145    1
   108    23    22    1
   109    23    24    2
   110   113   112    1
   111   145   146    1
   112   112   114    1
   113   112   109    1
   114   147   146    2
   115    29    27   ar
   116   136   134    1
   117   109   110    1
   118   109   108    1
   119   111   110    2
   120   120   119    1
   121   110   115   am
   122   134   133    1
   123   115   116    1
   124   135   133    1
   125   119   116    1
   126   133   130    1
   127   116   117    1
   128   130   129    1
   129   130   131    1
   130   129   123   am
   131   117   118    2
   132   128   126    1
   133   131   132    2
   134   123   122    1
   135   123   124    2
   136   122   125    1
   137   122   121    1
   138   125   126    1
   139   127   126    1
