@<TRIPOS>MOLECULE
tmp/4r29B00.pdb
 163 155 0 0 0
SMALL
GASTEIGER

@<TRIPOS>ATOM
      1  N         31.6770   -3.2450   50.3390 N.3    73  ARG73      -0.1245
      2  CA        31.0120   -3.5840   49.0830 C.3    73  ARG73       0.1563
      3  C         30.2150   -4.8930   49.2020 C.2    73  ARG73       0.2260
      4  O         29.1760   -5.0680   48.5370 O.2    73  ARG73      -0.2867
      5  CB        32.0730   -3.6920   47.9710 C.3    73  ARG73       0.0307
      6  CG        31.7270   -4.6080   46.8290 C.3    73  ARG73       0.0489
      7  CD        30.7220   -3.9760   45.8540 C.3    73  ARG73       0.2205
      8  NE        30.4210   -4.9020   44.7580 N.pl3  73  ARG73      -0.0865
      9  CZ        29.3060   -4.8850   44.0380 C.cat  73  ARG73       0.5346
     10  NH1       28.3720   -3.9820   44.2870 N.pl3  73  ARG73       0.1354
     11  NH2       29.1220   -5.7720   43.0670 N.pl3  73  ARG73       0.1354
     12  N         26.5320   -4.4670   49.7980 N.3    76  ALA76      -0.1231
     13  CA        25.7110   -3.8390   48.7640 C.3    76  ALA76       0.1694
     14  C         25.9330   -4.4700   47.3890 C.2    76  ALA76       0.2593
     15  O         26.1650   -3.7700   46.4060 O.2    76  ALA76      -0.2718
     16  CB        25.9680   -2.3210   48.7190 C.3    76  ALA76       0.0304
     17  N         25.8520   -5.7960   47.3250 N.am   77  SER77      -0.1938
     18  CA        26.1090   -6.5270   46.0800 C.3    77  SER77       0.2055
     19  C         24.8550   -7.1540   45.4680 C.2    77  SER77       0.2643
     20  O         24.9220   -7.7940   44.4150 O.2    77  SER77      -0.2714
     21  CB        27.1720   -7.6010   46.2980 C.3    77  SER77       0.2130
     22  OG        28.4290   -7.0050   46.6000 O.3    77  SER77      -0.2179
     23  N         23.7210   -6.9620   46.1360 N.am   78  THR78      -0.1950
     24  CA        22.4210   -7.3950   45.6440 C.3    78  THR78       0.1897
     25  C         21.5410   -6.1850   45.7400 C.2    78  THR78       0.2313
     26  O         21.8610   -5.2530   46.4730 O.2    78  THR78      -0.2863
     27  CB        21.8000   -8.4390   46.5640 C.3    78  THR78       0.1794
     28  OG1       21.5140   -7.8310   47.8350 O.3    78  THR78      -0.2208
     29  CG2       22.7560   -9.6210   46.7700 C.3    78  THR78       0.0378
     30  N         21.6760   -3.2140   48.5810 N.3    82  SER82      -0.1217
     31  CA        21.8810   -1.8510   48.1250 C.3    82  SER82       0.1889
     32  C         20.9930   -0.8440   48.8450 C.2    82  SER82       0.2288
     33  O         21.4360    0.2670   49.1460 O.2    82  SER82      -0.2866
     34  CB        21.6940   -1.7440   46.6120 C.3    82  SER82       0.2089
     35  OG        22.6210   -2.5860   45.9630 O.3    82  SER82      -0.2183
     36  N         24.9530    4.2780   55.2350 N.3    91  ARG91      -0.1245
     37  CA        25.5440    5.1090   54.1830 C.3    91  ARG91       0.1563
     38  C         24.4580    5.9680   53.5150 C.2    91  ARG91       0.2260
     39  O         23.2680    5.6310   53.5770 O.2    91  ARG91      -0.2867
     40  CB        26.2720    4.2450   53.1350 C.3    91  ARG91       0.0307
     41  CG        25.3400    3.3780   52.2840 C.3    91  ARG91       0.0489
     42  CD        26.0780    2.5810   51.2010 C.3    91  ARG91       0.2205
     43  NE        25.1240    1.8080   50.4000 N.pl3  91  ARG91      -0.0865
     44  CZ        25.3410    1.3790   49.1540 C.cat  91  ARG91       0.5346
     45  NH1       26.4930    1.6410   48.5320 N.pl3  91  ARG91       0.1354
     46  NH2       24.3990    0.6990   48.5210 N.pl3  91  ARG91       0.1354
     47  N         22.5310    2.2660   44.8190 N.3    95  GLN95      -0.1231
     48  CA        21.9500    2.1560   43.4980 C.3    95  GLN95       0.1698
     49  C         21.6650    0.7010   43.1440 C.2    95  GLN95       0.2592
     50  O         22.4590   -0.2020   43.4230 O.2    95  GLN95      -0.2718
     51  CB        22.8670    2.8040   42.4640 C.3    95  GLN95       0.0381
     52  CG        22.3000    2.8170   41.0370 C.3    95  GLN95       0.0905
     53  CD        22.8130    1.6520   40.2190 C.2    95  GLN95       0.2608
     54  OE1       24.0230    1.4460   40.1260 O.2    95  GLN95      -0.2717
     55  NE2       21.8970    0.8700   39.6320 N.am   95  GLN95      -0.0878
     56  N         20.4970    0.4790   42.5670 N.am   96  PHE96      -0.1976
     57  CA        20.1320   -0.8250   42.0350 C.3    96  PHE96       0.1639
     58  C         19.2570   -0.5820   40.8100 C.2    96  PHE96       0.2290
     59  O         19.1580    0.5510   40.3280 O.2    96  PHE96      -0.2864
     60  CB        19.4240   -1.6980   43.0950 C.3    96  PHE96       0.0560
     61  CG        18.1630   -1.0860   43.6690 C.ar   96  PHE96      -0.0200
     62  CD1       18.2330   -0.0560   44.5900 C.ar   96  PHE96      -0.0042
     63  CD2       16.9130   -1.5720   43.3080 C.ar   96  PHE96      -0.0042
     64  CE1       17.0800    0.4960   45.1300 C.ar   96  PHE96      -0.0003
     65  CE2       15.7490   -1.0230   43.8400 C.ar   96  PHE96      -0.0003
     66  CZ        15.8370    0.0190   44.7480 C.ar   96  PHE96      -0.0000
     67  N         26.1900   10.5540   41.2430 N.3   148  PHE148     -0.1241
     68  CA        26.0940    9.2930   40.5210 C.3   148  PHE148      0.1605
     69  C         25.6630    9.5570   39.1030 C.2   148  PHE148      0.2264
     70  O         26.2490    9.0250   38.1730 O.2   148  PHE148     -0.2867
     71  CB        25.0940    8.3250   41.1700 C.3   148  PHE148      0.0534
     72  CG        24.8650    7.0560   40.3580 C.ar  148  PHE148     -0.0203
     73  CD1       25.7360    5.9890   40.4530 C.ar  148  PHE148     -0.0042
     74  CD2       23.7890    6.9480   39.4930 C.ar  148  PHE148     -0.0042
     75  CE1       25.5230    4.8230   39.7130 C.ar  148  PHE148     -0.0003
     76  CE2       23.5810    5.7910   38.7460 C.ar  148  PHE148     -0.0003
     77  CZ        24.4510    4.7360   38.8520 C.ar  148  PHE148     -0.0000
     78  N         34.4770    2.3550   32.2010 N.3   175  GLU175     -0.1245
     79  CA        34.2760    2.0180   33.6020 C.3   175  GLU175      0.1567
     80  C         35.4330    2.5180   34.4870 C.2   175  GLU175      0.2260
     81  O         35.2110    3.0050   35.6060 O.2   175  GLU175     -0.2867
     82  CB        34.0980    0.5000   33.7470 C.3   175  GLU175      0.0388
     83  CG        34.1590   -0.0110   35.1650 C.3   175  GLU175      0.1160
     84  CD        32.8760    0.2260   35.9530 C.2   175  GLU175      0.3649
     85  OE1       31.9710    0.9550   35.4870 O.co2 175  GLU175     -0.2457
     86  OE2       32.7770   -0.3370   37.0540 O.co2 175  GLU175     -0.2457
     87  N         35.5110    6.2890   35.8250 N.3   178  ILE178     -0.1231
     88  CA        34.7050    6.7580   36.9330 C.3   178  ILE178      0.1692
     89  C         34.6940    5.8210   38.1230 C.2   178  ILE178      0.2591
     90  O         34.0600    6.1260   39.1240 O.2   178  ILE178     -0.2718
     91  CB        33.2450    6.9060   36.5040 C.3   178  ILE178      0.0266
     92  CG1       32.6950    5.5370   36.0830 C.3   178  ILE178      0.0019
     93  CG2       33.1050    7.9920   35.4210 C.3   178  ILE178      0.0020
     94  CD1       31.1950    5.4830   36.0090 C.3   178  ILE178      0.0001
     95  N         35.3610    4.6740   38.0080 N.am  179  ALA179     -0.1980
     96  CA        35.2250    3.6150   39.0090 C.3   179  ALA179      0.1597
     97  C         35.5930    4.0530   40.4190 C.2   179  ALA179      0.2287
     98  O         34.8400    3.8040   41.3600 O.2   179  ALA179     -0.2864
     99  CB        36.0150    2.3810   38.6080 C.3   179  ALA179      0.0319
    100  N         32.8990    6.3970   41.7330 N.3   182  MET182     -0.1230
    101  CA        31.6870    5.6600   42.0580 C.3   182  MET182      0.1702
    102  C         31.8900    4.9670   43.3940 C.2   182  MET182      0.2592
    103  O         31.0450    5.0480   44.2770 O.2   182  MET182     -0.2718
    104  CB        31.3820    4.6020   41.0010 C.3   182  MET182      0.0401
    105  CG        30.7650    5.1220   39.7450 C.3   182  MET182      0.0596
    106  SD        29.0260    5.5580   39.9420 S.3   182  MET182     -0.1393
    107  CE        28.5070    5.5950   38.2200 C.3   182  MET182      0.0692
    108  N         33.0160    4.2810   43.5320 N.am  183  GLY183     -0.1957
    109  CA        33.3100    3.5470   44.7470 C.3   183  GLY183      0.1869
    110  C         33.1690    4.4330   45.9630 C.2   183  GLY183      0.2309
    111  O         32.5880    4.0210   46.9680 O.2   183  GLY183     -0.2863
    112  N         29.5780    5.4880   46.7880 N.3   186  PHE186     -0.1241
    113  CA        28.9020    4.2960   47.3160 C.3   186  PHE186      0.1605
    114  C         29.3960    3.9300   48.7170 C.2   186  PHE186      0.2264
    115  O         28.9040    2.9860   49.3300 O.2   186  PHE186     -0.2867
    116  CB        29.0440    3.0940   46.3610 C.3   186  PHE186      0.0534
    117  CG        28.1710    3.1820   45.1180 C.ar  186  PHE186     -0.0203
    118  CD1       26.7900    3.3450   45.2260 C.ar  186  PHE186     -0.0042
    119  CD2       28.7330    3.0890   43.8490 C.ar  186  PHE186     -0.0042
    120  CE1       25.9880    3.4270   44.1040 C.ar  186  PHE186     -0.0003
    121  CE2       27.9390    3.1640   42.7250 C.ar  186  PHE186     -0.0003
    122  CZ        26.5530    3.3380   42.8540 C.ar  186  PHE186     -0.0000
    123  N         32.2820    2.5980   49.6760 N.3   188  TYR188     -0.1241
    124  CA        33.0530    1.3640   49.8220 C.3   188  TYR188      0.1605
    125  C         34.3480    1.6390   50.5820 C.2   188  TYR188      0.2264
    126  O         34.8620    2.7580   50.6030 O.2   188  TYR188     -0.2867
    127  CB        33.3670    0.7000   48.4610 C.3   188  TYR188      0.0534
    128  CG        32.1430    0.2770   47.6530 C.ar  188  TYR188     -0.0201
    129  CD1       30.9030    0.0520   48.2640 C.ar  188  TYR188     -0.0009
    130  CD2       32.2280    0.1010   46.2800 C.ar  188  TYR188     -0.0009
    131  CE1       29.7840   -0.3300   47.5070 C.ar  188  TYR188      0.0417
    132  CE2       31.1250   -0.2750   45.5300 C.ar  188  TYR188      0.0417
    133  CZ        29.9120   -0.4910   46.1420 C.ar  188  TYR188      0.1957
    134  OH        28.8440   -0.8710   45.3740 O.3   188  TYR188     -0.2866
    135  N         38.8860   -1.8130   49.2340 N.3   192  GLU192     -0.1231
    136  CA        38.0580   -2.4810   48.2380 C.3   192  GLU192      0.1699
    137  C         38.0330   -1.7270   46.9270 C.2   192  GLU192      0.2592
    138  O         37.9590   -2.3500   45.8780 O.2   192  GLU192     -0.2718
    139  CB        36.6380   -2.7150   48.7360 C.3   192  GLU192      0.0402
    140  CG        36.5370   -3.6860   49.9150 C.3   192  GLU192      0.1161
    141  CD        35.1520   -3.6910   50.5380 C.2   192  GLU192      0.3649
    142  OE1       34.4540   -2.6470   50.4880 O.co2 192  GLU192     -0.2457
    143  OE2       34.7520   -4.7470   51.0590 O.co2 192  GLU192     -0.2457
    144  N         38.1030   -0.3970   46.9830 N.am  193  ILE193     -0.1980
    145  CA        38.1060    0.4220   45.7650 C.3   193  ILE193      0.1595
    146  C         39.4230    0.2730   44.9930 C.2   193  ILE193      0.2287
    147  O         39.4220    0.2000   43.7670 O.2   193  ILE193     -0.2864
    148  CB        37.8650    1.9300   46.0590 C.3   193  ILE193      0.0276
    149  CG1       36.5440    2.1370   46.7950 C.3   193  ILE193      0.0022
    150  CG2       37.8710    2.7400   44.7670 C.3   193  ILE193      0.0022
    151  CD1       36.3160    3.5710   47.2370 C.3   193  ILE193      0.0001
    152  N         39.5460   -3.1040   43.3460 N.3   196  TYR196     -0.1241
    153  CA        38.7130   -3.0850   42.1390 C.3   196  TYR196      0.1605
    154  C         39.4100   -2.3840   40.9770 C.2   196  TYR196      0.2264
    155  O         39.3820   -2.8720   39.8570 O.2   196  TYR196     -0.2867
    156  CB        37.3890   -2.3950   42.4310 C.3   196  TYR196      0.0534
    157  CG        36.3980   -2.3930   41.2870 C.ar  196  TYR196     -0.0201
    158  CD1       35.4640   -3.4210   41.1480 C.ar  196  TYR196     -0.0009
    159  CD2       36.3710   -1.3490   40.3660 C.ar  196  TYR196     -0.0009
    160  CE1       34.5420   -3.4200   40.1170 C.ar  196  TYR196      0.0417
    161  CE2       35.4550   -1.3370   39.3370 C.ar  196  TYR196      0.0417
    162  CZ        34.5420   -2.3680   39.2180 C.ar  196  TYR196      0.1957
    163  OH        33.6250   -2.3410   38.1950 O.3   196  TYR196     -0.2866
@<TRIPOS>BOND
     1    78    79    1
     2    79    82    1
     3    79    80    1
     4    82    83    1
     5    80    81    2
     6    83    84    1
     7    93    91    1
     8    85    84   ar
     9    87    88    1
    10    84    86   ar
    11    94    92    1
    12    92    91    1
    13    91    88    1
    14    88    89    1
    15    95    89   am
    16    95    96    1
    17    89    90    2
    18    70    69    2
    19   163   162    1
    20   107   106    1
    21    99    96    1
    22    76    77   ar
    23    76    74   ar
    24    77    75   ar
    25    96    97    1
    26    69    68    1
    27   162   161   ar
    28   162   160   ar
    29   161   159   ar
    30    74    72   ar
    31    55    53   am
    32    75    73   ar
    33   105   106    1
    34   105   104    1
    35   155   154    2
    36   160   158   ar
    37    54    53    2
    38    53    52    1
    39    59    58    2
    40    72    73   ar
    41    72    71    1
    42   159   157   ar
    43    97    98    2
    44    68    71    1
    45    68    67    1
    46    58    57    1
    47   154   153    1
    48   104   101    1
    49    52    51    1
    50   158   157   ar
    51   157   156    1
    52   100   101    1
    53    57    56    1
    54    57    60    1
    55   101   102    1
    56   153   156    1
    57   153   152    1
    58    51    48    1
    59    56    49   am
    60   121   122   ar
    61   121   119   ar
    62   122   120   ar
    63    11     9    1
    64    60    61    1
    65    49    50    2
    66    49    48    1
    67    63    61   ar
    68    63    65   ar
    69   102   108   am
    70   102   103    2
    71    48    47    1
    72   108   109    1
    73    61    62   ar
    74   147   146    2
    75    65    66   ar
    76   119   117   ar
    77     9    10    1
    78     9     8    2
    79   120   118   ar
    80    20    19    2
    81    62    64   ar
    82   109   110    1
    83    66    64   ar
    84     8     7    1
    85   150   148    1
    86   146   145    1
    87   117   118   ar
    88   117   116    1
    89   134   133    1
    90    19    18    1
    91    19    23   am
    92   132   133   ar
    93   132   130   ar
    94    24    25    1
    95    24    23    1
    96    24    27    1
    97    25    26    2
    98   145   148    1
    99   145   144    1
   100     7     6    1
   101   138   137    2
   102    35    34    1
   103   110   111    2
   104   148   149    1
   105    18    21    1
   106    18    17    1
   107   133   131   ar
   108   130   128   ar
   109    21    22    1
   110   116   113    1
   111    15    14    2
   112    27    29    1
   113    27    28    1
   114    34    31    1
   115   112   113    1
   116   149   151    1
   117     6     5    1
   118   137   144   am
   119   137   136    1
   120   113   114    1
   121    17    14   am
   122    14    13    1
   123   131   129   ar
   124   128   129   ar
   125   128   127    1
   126     5     2    1
   127    31    30    1
   128    31    32    1
   129   136   139    1
   130   136   135    1
   131   127   124    1
   132    46    44    1
   133    45    44    1
   134     4     3    2
   135   114   115    2
   136    16    13    1
   137   139   140    1
   138    13    12    1
   139    32    33    2
   140     2     3    1
   141     2     1    1
   142    44    43    2
   143   123   124    1
   144   124   125    1
   145   140   141    1
   146    43    42    1
   147   142   141   ar
   148   141   143   ar
   149   125   126    2
   150    42    41    1
   151    41    40    1
   152    40    37    1
   153    38    39    2
   154    38    37    1
   155    37    36    1
