@<TRIPOS>MOLECULE
tmp/4r29C01.pdb
 100 92 0 0 0
SMALL
GASTEIGER

@<TRIPOS>ATOM
      1  N         20.7600   30.5890   24.0900 N.3    91  GLN91      -0.1245
      2  CA        22.1280   30.6160   23.6030 C.3    91  GLN91       0.1566
      3  C         22.5120   29.2200   23.1500 C.2    91  GLN91       0.2260
      4  O         22.1680   28.2390   23.7980 O.2    91  GLN91      -0.2867
      5  CB        23.0770   31.1190   24.6880 C.3    91  GLN91       0.0367
      6  CG        24.5570   31.1020   24.2880 C.3    91  GLN91       0.0905
      7  CD        25.2680   29.8190   24.6870 C.2    91  GLN91       0.2608
      8  OE1       25.2100   29.4060   25.8430 O.2    91  GLN91      -0.2717
      9  NE2       25.9520   29.1900   23.7320 N.am   91  GLN91      -0.0878
     10  N         25.4710   27.2050   20.0210 N.3    93  SER93      -0.1217
     11  CA        26.6870   27.4310   19.2650 C.3    93  SER93       0.1889
     12  C         26.6330   26.6400   17.9850 C.2    93  SER93       0.2288
     13  O         25.9190   25.6350   17.8940 O.2    93  SER93      -0.2866
     14  CB        27.9220   27.0420   20.0810 C.3    93  SER93       0.2089
     15  OG        28.0490   25.6320   20.1660 O.3    93  SER93      -0.2183
     16  N         33.9680   31.4260   19.7940 N.3   118  LYS118     -0.1245
     17  CA        34.2760   30.8830   21.1120 C.3   118  LYS118      0.1561
     18  C         35.7660   31.0870   21.4030 C.2   118  LYS118      0.2260
     19  O         36.6210   30.6770   20.6140 O.2   118  LYS118     -0.2867
     20  CB        33.8910   29.4110   21.2230 C.3   118  LYS118      0.0271
     21  CG        34.2070   28.8270   22.5880 C.3   118  LYS118      0.0035
     22  CD        33.2750   27.6720   22.9510 C.3   118  LYS118      0.0206
     23  CE        33.5030   27.2080   24.3900 C.3   118  LYS118      0.1093
     24  NZ        33.5320   28.3680   25.3440 N.3   118  LYS118     -0.1314
     25  N         29.5830   31.2140   19.1680 N.3   126  ILE126     -0.1245
     26  CA        28.4920   31.3240   20.1220 C.3   126  ILE126      0.1561
     27  C         27.3770   32.1500   19.4900 C.2   126  ILE126      0.2260
     28  O         27.6270   33.1750   18.8590 O.2   126  ILE126     -0.2867
     29  CB        28.9450   31.9770   21.4570 C.3   126  ILE126      0.0252
     30  CG1       30.0930   31.1840   22.0900 C.3   126  ILE126      0.0019
     31  CG2       27.7800   32.1060   22.4380 C.3   126  ILE126      0.0019
     32  CD1       29.7780   29.7200   22.2990 C.3   126  ILE126      0.0001
     33  N         24.0200   38.2620   29.0330 N.3   144  PHE144     -0.1241
     34  CA        24.7440   37.0220   28.7860 C.3   144  PHE144      0.1605
     35  C         26.2000   37.3130   28.4550 C.2   144  PHE144      0.2264
     36  O         27.1090   36.6670   28.9800 O.2   144  PHE144     -0.2867
     37  CB        24.1310   36.1910   27.6400 C.3   144  PHE144      0.0534
     38  CG        25.0130   35.0340   27.2160 C.ar  144  PHE144     -0.0203
     39  CD1       24.9260   33.8010   27.8610 C.ar  144  PHE144     -0.0042
     40  CD2       25.9630   35.1970   26.2150 C.ar  144  PHE144     -0.0042
     41  CE1       25.7600   32.7460   27.5140 C.ar  144  PHE144     -0.0003
     42  CE2       26.7970   34.1530   25.8490 C.ar  144  PHE144     -0.0003
     43  CZ        26.7020   32.9200   26.5090 C.ar  144  PHE144     -0.0000
     44  N         29.3170   36.0230   30.5250 N.3   148  TYR148     -0.1241
     45  CA        30.2850   35.2120   29.7870 C.3   148  TYR148      0.1605
     46  C         31.6990   35.7710   29.9830 C.2   148  TYR148      0.2264
     47  O         32.6380   35.0230   30.2840 O.2   148  TYR148     -0.2867
     48  CB        29.9250   35.1630   28.2920 C.3   148  TYR148      0.0534
     49  CG        30.8320   34.2800   27.4430 C.ar  148  TYR148     -0.0201
     50  CD1       30.6240   32.9080   27.3600 C.ar  148  TYR148     -0.0009
     51  CD2       31.8840   34.8240   26.7140 C.ar  148  TYR148     -0.0009
     52  CE1       31.4380   32.1050   26.5970 C.ar  148  TYR148      0.0417
     53  CE2       32.6980   34.0250   25.9340 C.ar  148  TYR148      0.0417
     54  CZ        32.4780   32.6650   25.8870 C.ar  148  TYR148      0.1957
     55  OH        33.2900   31.8640   25.1120 O.3   148  TYR148     -0.2866
     56  N         33.0680   35.2250   33.4710 N.3   151  LYS151     -0.1245
     57  CA        33.5010   33.8400   33.5880 C.3   151  LYS151      0.1561
     58  C         34.8490   33.6310   32.9040 C.2   151  LYS151      0.2260
     59  O         35.7390   32.9540   33.4380 O.2   151  LYS151     -0.2867
     60  CB        32.4630   32.9130   32.9570 C.3   151  LYS151      0.0271
     61  CG        32.8600   31.4400   32.9330 C.3   151  LYS151      0.0035
     62  CD        32.1070   30.6990   31.8190 C.3   151  LYS151      0.0206
     63  CE        31.8640   29.2250   32.1530 C.3   151  LYS151      0.1093
     64  NZ        33.0800   28.5140   32.6650 N.3   151  LYS151     -0.1314
     65  N         32.5840   28.9070   36.6840 N.3   170  GLU170     -0.1245
     66  CA        31.1750   28.7050   36.3410 C.3   170  GLU170      0.1567
     67  C         30.2210   29.0710   37.5070 C.2   170  GLU170      0.2260
     68  O         29.1660   29.6820   37.3080 O.2   170  GLU170     -0.2867
     69  CB        30.9700   27.2520   35.8850 C.3   170  GLU170      0.0388
     70  CG        29.5480   26.8630   35.6100 C.3   170  GLU170      0.1160
     71  CD        29.0010   27.4890   34.3520 C.2   170  GLU170      0.3649
     72  OE1       29.7760   27.9030   33.4720 O.co2 170  GLU170     -0.2457
     73  OE2       27.7690   27.5580   34.2320 O.co2 170  GLU170     -0.2457
     74  N         28.8720   32.8100   37.9850 N.3   173  ILE173     -0.1245
     75  CA        27.8230   33.3860   37.1370 C.3   173  ILE173      0.1561
     76  C         26.6040   32.4770   36.9200 C.2   173  ILE173      0.2260
     77  O         25.6430   32.8690   36.2630 O.2   173  ILE173     -0.2867
     78  CB        28.3870   33.8290   35.7430 C.3   173  ILE173      0.0252
     79  CG1       29.2440   32.7280   35.1020 C.3   173  ILE173      0.0019
     80  CG2       29.2110   35.1070   35.8480 C.3   173  ILE173      0.0019
     81  CD1       28.4550   31.7060   34.3240 C.3   173  ILE173      0.0001
     82  N         23.0770   33.3470   35.1880 N.3   177  MET177     -0.1245
     83  CA        22.8780   32.7010   33.8980 C.3   177  MET177      0.1570
     84  C         21.5100   31.9810   33.8810 C.2   177  MET177      0.2261
     85  O         20.7200   32.1380   32.9430 O.2   177  MET177     -0.2867
     86  CB        24.0260   31.7140   33.6890 C.3   177  MET177      0.0387
     87  CG        24.4700   31.4300   32.2720 C.3   177  MET177      0.0595
     88  SD        25.5120   32.6900   31.5000 S.3   177  MET177     -0.1393
     89  CE        24.2430   33.5460   30.6350 C.3   177  MET177      0.0692
     90  N         18.2620   32.9340   31.4240 N.3   181  PHE181     -0.1241
     91  CA        17.8000   31.8650   30.5350 C.3   181  PHE181      0.1605
     92  C         16.3870   31.4480   30.8730 C.2   181  PHE181      0.2264
     93  O         15.8310   30.5730   30.2020 O.2   181  PHE181     -0.2867
     94  CB        18.6950   30.6280   30.5920 C.3   181  PHE181      0.0534
     95  CG        19.9900   30.7730   29.8570 C.ar  181  PHE181     -0.0203
     96  CD1       20.0220   31.3030   28.5810 C.ar  181  PHE181     -0.0042
     97  CD2       21.1770   30.3750   30.4440 C.ar  181  PHE181     -0.0042
     98  CE1       21.2200   31.4360   27.8900 C.ar  181  PHE181     -0.0003
     99  CE2       22.3870   30.5040   29.7690 C.ar  181  PHE181     -0.0003
    100  CZ        22.4060   31.0400   28.4830 C.ar  181  PHE181     -0.0000
@<TRIPOS>BOND
     1    13    12    2
     2    12    11    1
     3    28    27    2
     4    25    26    1
     5    11    10    1
     6    11    14    1
     7    27    26    1
     8    16    17    1
     9    14    15    1
    10    26    29    1
    11    19    18    2
    12    17    20    1
    13    17    18    1
    14    20    21    1
    15    29    30    1
    16    29    31    1
    17    30    32    1
    18    21    22    1
    19    22    23    1
    20     3     2    1
    21     3     4    2
    22     2     1    1
    23     2     5    1
    24     9     7   am
    25     6     7    1
    26     6     5    1
    27    23    24    1
    28     7     8    2
    29    55    54    1
    30    42    40   ar
    31    42    43   ar
    32    54    53   ar
    33    54    52   ar
    34    53    51   ar
    35    40    38   ar
    36    43    41   ar
    37    52    50   ar
    38    51    49   ar
    39    38    37    1
    40    38    39   ar
    41    50    49   ar
    42    49    48    1
    43    41    39   ar
    44    37    34    1
    45    98   100   ar
    46    98    96   ar
    47    48    45    1
    48    35    34    1
    49    35    36    2
    50   100    99   ar
    51    96    95   ar
    52    34    33    1
    53    99    97   ar
    54    45    46    1
    55    45    44    1
    56    95    97   ar
    57    95    94    1
    58    46    47    2
    59    93    92    2
    60    91    94    1
    61    91    92    1
    62    91    90    1
    63    89    88    1
    64    88    87    1
    65    62    63    1
    66    62    61    1
    67    63    64    1
    68    87    86    1
    69    58    59    2
    70    58    57    1
    71    61    60    1
    72    85    84    2
    73    60    57    1
    74    56    57    1
    75    72    71   ar
    76    86    83    1
    77    84    83    1
    78    83    82    1
    79    73    71   ar
    80    81    79    1
    81    71    70    1
    82    79    78    1
    83    70    69    1
    84    78    80    1
    85    78    75    1
    86    69    66    1
    87    77    76    2
    88    66    65    1
    89    66    67    1
    90    76    75    1
    91    75    74    1
    92    68    67    2
