@<TRIPOS>MOLECULE
tmp/4r2bA00.pdb
 149 148 0 0 0
SMALL
GASTEIGER

@<TRIPOS>ATOM
      1  N         41.8150    7.6710  -40.6050 N.3    12  TRP12      -0.1227
      2  CA        42.9990    6.8480  -40.3790 C.3    12  TRP12       0.1737
      3  C         43.3130    6.5540  -38.9080 C.2    12  TRP12       0.2595
      4  O         44.4630    6.3290  -38.5470 O.2    12  TRP12      -0.2718
      5  CB        44.2100    7.4080  -41.1180 C.3    12  TRP12       0.0564
      6  CG        44.7380    8.7810  -40.7010 C.ar   12  TRP12       0.0003
      7  CD1       45.7180    9.0380  -39.7950 C.ar   12  TRP12       0.0946
      8  CD2       44.3680   10.0450  -41.2590 C.ar   12  TRP12       0.0152
      9  NE1       45.9640   10.3790  -39.7270 N.ar   12  TRP12      -0.2442
     10  CE2       45.1640   11.0260  -40.6280 C.ar   12  TRP12       0.0810
     11  CE3       43.4280   10.4500  -42.2270 C.ar   12  TRP12       0.0012
     12  CZ2       45.0530   12.4040  -40.9260 C.ar   12  TRP12       0.0191
     13  CZ3       43.3130   11.8230  -42.5150 C.ar   12  TRP12       0.0001
     14  CH2       44.1330   12.7770  -41.8750 C.ar   12  TRP12       0.0015
     15  N         42.2860    6.5560  -38.0560 N.am   13  TRP13      -0.1976
     16  CA        42.5330    6.3820  -36.6180 C.3    13  TRP13       0.1640
     17  C         42.5270    4.9110  -36.2350 C.2    13  TRP13       0.2290
     18  O         41.5300    4.3770  -35.7440 O.2    13  TRP13      -0.2864
     19  CB        41.5390    7.1800  -35.7850 C.3    13  TRP13       0.0576
     20  CG        41.8070    8.6590  -35.7980 C.ar   13  TRP13       0.0006
     21  CD1       43.0290    9.2870  -35.9040 C.ar   13  TRP13       0.0946
     22  CD2       40.8310    9.6980  -35.6620 C.ar   13  TRP13       0.0152
     23  NE1       42.8600   10.6510  -35.8610 N.ar   13  TRP13      -0.2442
     24  CE2       41.5180   10.9280  -35.7150 C.ar   13  TRP13       0.0810
     25  CE3       39.4290    9.7030  -35.5200 C.ar   13  TRP13       0.0012
     26  CZ2       40.8550   12.1640  -35.6060 C.ar   13  TRP13       0.0191
     27  CZ3       38.7610   10.9360  -35.4400 C.ar   13  TRP13       0.0001
     28  CH2       39.4830   12.1480  -35.4730 C.ar   13  TRP13       0.0015
     29  N         44.2850    6.1300  -30.9070 N.3    18  GLU18      -0.1245
     30  CA        43.3920    6.7380  -31.9050 C.3    18  GLU18       0.1567
     31  C         42.0350    6.0180  -31.9560 C.2    18  GLU18       0.2260
     32  O         40.9900    6.6610  -32.0290 O.2    18  GLU18      -0.2867
     33  CB        44.0150    6.6450  -33.3000 C.3    18  GLU18       0.0388
     34  CG        45.3270    7.4060  -33.4910 C.3    18  GLU18       0.1160
     35  CD        45.9930    7.0610  -34.8160 C.2    18  GLU18       0.3649
     36  OE1       45.9300    5.8840  -35.2630 O.co2  18  GLU18      -0.2457
     37  OE2       46.5770    7.9770  -35.4260 O.co2  18  GLU18      -0.2457
     38  N         49.6450    6.0940  -40.7340 N.3    44  GLY44      -0.1210
     39  CA        49.8600    7.2860  -39.9120 C.3    44  GLY44       0.1956
     40  C         49.9070    8.5700  -40.7240 C.2    44  GLY44       0.2612
     41  O         50.5570    8.6410  -41.7730 O.2    44  GLY44      -0.2717
     42  N         49.1980    9.5880  -40.2540 N.am   45  GLY45      -0.1956
     43  CA        49.2100   10.8880  -40.9240 C.3    45  GLY45       0.1869
     44  C         48.2830   11.0670  -42.1200 C.2    45  GLY45       0.2309
     45  O         48.1480   12.1830  -42.6300 O.2    45  GLY45      -0.2863
     46  N         37.7610   12.3730  -42.4630 N.3    67  GLN67      -0.1245
     47  CA        38.8350   12.9840  -41.6720 C.3    67  GLN67       0.1566
     48  C         39.8280   13.6570  -42.6300 C.2    67  GLN67       0.2260
     49  O         40.2660   13.0420  -43.6040 O.2    67  GLN67      -0.2867
     50  CB        39.5630   11.9260  -40.8240 C.3    67  GLN67       0.0367
     51  CG        40.5970   12.5040  -39.8570 C.3    67  GLN67       0.0905
     52  CD        41.5550   11.4640  -39.2950 C.2    67  GLN67       0.2608
     53  OE1       41.3480   10.2600  -39.4420 O.2    67  GLN67      -0.2717
     54  NE2       42.6280   11.9290  -38.6720 N.am   67  GLN67      -0.0878
     55  N         42.9530   17.0980  -43.1820 N.3    69  LEU69      -0.1245
     56  CA        43.8200   18.1350  -42.6330 C.3    69  LEU69       0.1561
     57  C         44.0850   19.3170  -43.5620 C.2    69  LEU69       0.2260
     58  O         44.4550   19.1390  -44.7150 O.2    69  LEU69      -0.2867
     59  CB        45.1650   17.5150  -42.2480 C.3    69  LEU69       0.0270
     60  CG        45.2180   16.4360  -41.1750 C.3    69  LEU69       0.0019
     61  CD1       46.5590   15.7360  -41.2230 C.3    69  LEU69       0.0001
     62  CD2       44.9960   17.1080  -39.8160 C.3    69  LEU69       0.0001
     63  N         45.8080   19.2810  -32.3810 N.3   120  HIS120     -0.1241
     64  CA        47.0700   18.5840  -32.1480 C.3   120  HIS120      0.1621
     65  C         48.2110   19.5560  -32.3630 C.2   120  HIS120      0.2264
     66  O         48.0310   20.6090  -32.9610 O.2   120  HIS120     -0.2867
     67  CB        47.2440   17.4180  -33.1160 C.3   120  HIS120      0.0745
     68  CG        46.6750   16.1210  -32.6300 C.ar  120  HIS120      0.0817
     69  ND1       47.0570   15.5360  -31.4420 N.ar  120  HIS120     -0.2268
     70  CD2       45.7930   15.2660  -33.2030 C.ar  120  HIS120      0.1154
     71  CE1       46.4250   14.3870  -31.2950 C.ar  120  HIS120      0.1986
     72  NE2       45.6580   14.1950  -32.3540 N.ar  120  HIS120     -0.2212
     73  N         56.6580   11.2770  -43.7340 N.3   168  TRP168     -0.1241
     74  CA        55.8670   12.1560  -42.8580 C.3   168  TRP168      0.1605
     75  C         56.4130   12.2590  -41.4220 C.2   168  TRP168      0.2264
     76  O         56.2500   13.2820  -40.7510 O.2   168  TRP168     -0.2867
     77  CB        54.3940   11.7320  -42.8560 C.3   168  TRP168      0.0550
     78  CG        54.0690   10.5170  -42.0060 C.ar  168  TRP168      0.0003
     79  CD1       54.0550    9.2150  -42.4140 C.ar  168  TRP168      0.0946
     80  CD2       53.6770   10.5070  -40.6170 C.ar  168  TRP168      0.0152
     81  NE1       53.6920    8.3920  -41.3650 N.ar  168  TRP168     -0.2442
     82  CE2       53.4600    9.1580  -40.2540 C.ar  168  TRP168      0.0810
     83  CE3       53.5180   11.5040  -39.6420 C.ar  168  TRP168      0.0012
     84  CZ2       53.0790    8.7760  -38.9580 C.ar  168  TRP168      0.0191
     85  CZ3       53.1330   11.1230  -38.3400 C.ar  168  TRP168      0.0001
     86  CH2       52.9240    9.7700  -38.0190 C.ar  168  TRP168      0.0015
     87  N         54.5750    4.8750  -36.6190 N.3   226  TRP226     -0.1241
     88  CA        54.8330    5.8430  -35.5310 C.3   226  TRP226      0.1605
     89  C         54.4960    5.2530  -34.1490 C.2   226  TRP226      0.2264
     90  O         55.2110    5.5050  -33.1810 O.2   226  TRP226     -0.2867
     91  CB        54.0670    7.1740  -35.7540 C.3   226  TRP226      0.0550
     92  CG        52.5630    7.0190  -35.5610 C.ar  226  TRP226      0.0003
     93  CD1       51.6570    6.7030  -36.5180 C.ar  226  TRP226      0.0946
     94  CD2       51.8200    7.1450  -34.3280 C.ar  226  TRP226      0.0152
     95  NE1       50.3960    6.6160  -35.9730 N.ar  226  TRP226     -0.2442
     96  CE2       50.4680    6.8820  -34.6310 C.ar  226  TRP226      0.0810
     97  CE3       52.1750    7.4250  -33.0000 C.ar  226  TRP226      0.0012
     98  CZ2       49.4590    6.8950  -33.6560 C.ar  226  TRP226      0.0191
     99  CZ3       51.1700    7.4570  -32.0310 C.ar  226  TRP226      0.0001
    100  CH2       49.8310    7.1940  -32.3650 C.ar  226  TRP226      0.0015
    101  N         49.3910   13.0060  -30.3880 N.3   246  TRP246     -0.1241
    102  CA        48.7100   11.7210  -30.5500 C.3   246  TRP246      0.1605
    103  C         49.5450   10.6010  -29.9060 C.2   246  TRP246      0.2264
    104  O         49.0050    9.5770  -29.4980 O.2   246  TRP246     -0.2867
    105  CB        48.3550   11.4230  -32.0110 C.3   246  TRP246      0.0550
    106  CG        49.4860   11.5940  -32.9830 C.ar  246  TRP246      0.0003
    107  CD1       50.4030   10.6420  -33.3510 C.ar  246  TRP246      0.0946
    108  CD2       49.8160   12.7770  -33.7210 C.ar  246  TRP246      0.0152
    109  NE1       51.2930   11.1690  -34.2600 N.ar  246  TRP246     -0.2442
    110  CE2       50.9560   12.4720  -34.5100 C.ar  246  TRP246      0.0810
    111  CE3       49.2620   14.0660  -33.8000 C.ar  246  TRP246      0.0012
    112  CZ2       51.5560   13.4120  -35.3610 C.ar  246  TRP246      0.0191
    113  CZ3       49.8730   15.0150  -34.6590 C.ar  246  TRP246      0.0001
    114  CH2       50.9980   14.6650  -35.4340 C.ar  246  TRP246      0.0015
    115  N         48.1370   21.1500  -35.8900 N.3   277  ASN277     -0.1240
    116  CA        47.2950   20.5800  -36.9290 C.3   277  ASN277      0.1653
    117  C         45.9390   20.2140  -36.3250 C.2   277  ASN277      0.2266
    118  O         45.8600   19.7670  -35.1930 O.2   277  ASN277     -0.2867
    119  CB        47.9510   19.3730  -37.6230 C.3   277  ASN277      0.1155
    120  CG        48.2690   18.2240  -36.6700 C.2   277  ASN277      0.2627
    121  OD1       49.1380   18.3410  -35.8100 O.2   277  ASN277     -0.2716
    122  ND2       47.5920   17.0880  -36.8540 N.am  277  ASN277     -0.0877
    123  N         42.4650   18.0060  -36.8370 N.3   279  ASP279     -0.1239
    124  CA        41.6780   17.0150  -37.5700 C.3   279  ASP279      0.1674
    125  C         40.2840   17.5740  -37.7440 C.2   279  ASP279      0.2266
    126  O         39.6670   18.0180  -36.7640 O.2   279  ASP279     -0.2867
    127  CB        41.5820   15.7020  -36.7940 C.3   279  ASP279      0.1410
    128  CG        42.9150   15.0260  -36.6540 C.2   279  ASP279      0.3668
    129  OD1       43.5620   14.7660  -37.7000 O.co2 279  ASP279     -0.2456
    130  OD2       43.3240   14.7830  -35.5000 O.co2 279  ASP279     -0.2456
    131  N         42.3810   11.2740  -26.8850 N.3   314  LYS314     -0.1245
    132  CA        43.1330   11.4220  -28.1290 C.3   314  LYS314      0.1561
    133  C         44.5560   11.9450  -27.9010 C.2   314  LYS314      0.2260
    134  O         45.4910   11.5690  -28.6210 O.2   314  LYS314     -0.2867
    135  CB        42.3540   12.3490  -29.0820 C.3   314  LYS314      0.0271
    136  CG        42.9070   12.4830  -30.4990 C.3   314  LYS314      0.0035
    137  CD        42.6540   11.2420  -31.3500 C.3   314  LYS314      0.0206
    138  CE        43.3040   11.3920  -32.7280 C.3   314  LYS314      0.1093
    139  NZ        44.7950   11.3040  -32.6590 N.3   314  LYS314     -0.1314
    140  N         52.0110   18.2200  -41.2170 N.3   354  HIS354     -0.1241
    141  CA        50.6360   17.7880  -41.1470 C.3   354  HIS354      0.1621
    142  C         49.6890   18.7580  -41.8340 C.2   354  HIS354      0.2264
    143  O         48.5260   18.9040  -41.4540 O.2   354  HIS354     -0.2867
    144  CB        50.2790   17.4310  -39.7020 C.3   354  HIS354      0.0745
    145  CG        51.0430   16.2420  -39.2140 C.ar  354  HIS354      0.0817
    146  ND1       50.5640   14.9540  -39.3220 N.ar  354  HIS354     -0.2268
    147  CD2       52.3010   16.1370  -38.7230 C.ar  354  HIS354      0.1154
    148  CE1       51.4700   14.1120  -38.8570 C.ar  354  HIS354      0.1986
    149  NE2       52.5380   14.8040  -38.4950 N.ar  354  HIS354     -0.2212
@<TRIPOS>BOND
     1    58    57    2
     2    73    74    1
     3    49    48    2
     4    57    56    1
     5    55    56    1
     6    74    77    1
     7    74    75    1
     8    77    78    1
     9    56    59    1
    10    45    44    2
    11    48    47    1
    12    13    11   ar
    13    13    14   ar
    14    46    47    1
    15    79    78   ar
    16    79    81   ar
    17    59    60    1
    18    11     8   ar
    19    44    43    1
    20    78    80   ar
    21    14    12   ar
    22   142   143    2
    23   142   141    1
    24    41    40    2
    25    47    50    1
    26    75    76    2
    27    81    82   ar
    28     8     6   ar
    29     8    10   ar
    30    61    60    1
    31   140   141    1
    32    60    62    1
    33   141   144    1
    34     5     6    1
    35     5     2    1
    36    12    10   ar
    37    43    42    1
    38    50    51    1
    39    38    39    1
    40    40    42   am
    41    40    39    1
    42     6     7   ar
    43    10     9   ar
    44    80    82   ar
    45    80    83   ar
    46     1     2    1
    47     2     3    1
    48    82    84   ar
    49    51    52    1
    50     7     9   ar
    51   144   145    1
    52    83    85   ar
    53    53    52    2
    54   146   145   ar
    55   146   148   ar
    56    52    54   am
    57   145   147   ar
    58    84    86   ar
    59     3     4    2
    60     3    15   am
    61   148   149   ar
    62   147   149   ar
    63    85    86   ar
    64    15    16    1
    65   125   124    1
    66   125   126    2
    67   129   128   ar
    68   119   116    1
    69   119   120    1
    70   124   123    1
    71   124   127    1
    72   116   117    1
    73   116   115    1
    74   122   120   am
    75   127   128    1
    76   120   121    2
    77   128   130   ar
    78    87    88    1
    79    16    17    1
    80    16    19    1
    81    93    95   ar
    82    93    92   ar
    83   117   118    2
    84    17    18    2
    85    95    96   ar
    86    21    23   ar
    87    21    20   ar
    88    23    24   ar
    89    20    19    1
    90    20    22   ar
    91    91    92    1
    92    91    88    1
    93    24    22   ar
    94    24    26   ar
    95    22    25   ar
    96    26    28   ar
    97    92    94   ar
    98    88    89    1
    99    25    27   ar
   100    28    27   ar
   101   114   112   ar
   102   114   113   ar
   103    37    35   ar
   104   112   110   ar
   105    36    35   ar
   106    35    34    1
   107   113   111   ar
   108    96    94   ar
   109    96    98   ar
   110   110   109   ar
   111   110   108   ar
   112    94    97   ar
   113   109   107   ar
   114    89    90    2
   115   111   108   ar
   116   108   106   ar
   117    98   100   ar
   118    34    33    1
   119   107   106   ar
   120    33    30    1
   121    70    68   ar
   122    70    72   ar
   123    67    68    1
   124    67    64    1
   125    97    99   ar
   126   106   105    1
   127    66    65    2
   128   138   139    1
   129   138   137    1
   130    68    69   ar
   131    63    64    1
   132   100    99   ar
   133    65    64    1
   134    72    71   ar
   135    32    31    2
   136   105   102    1
   137    31    30    1
   138    30    29    1
   139    69    71   ar
   140   137   136    1
   141   102   101    1
   142   102   103    1
   143   136   135    1
   144   103   104    2
   145   135   132    1
   146   134   133    2
   147   132   133    1
   148   132   131    1
