@<TRIPOS>MOLECULE
tmp/4r2fA00.pdb
 184 177 0 0 0
SMALL
GASTEIGER

@<TRIPOS>ATOM
      1  N         45.3690   22.0510    1.5680 N.3     9  PRO9       -0.2102
      2  CA        43.9570   21.7490    1.5070 C.3     9  PRO9        0.1504
      3  C         43.2160   23.0660    1.6290 C.2     9  PRO9        0.2576
      4  O         42.8810   23.5080    2.7310 O.2     9  PRO9       -0.2718
      5  CB        43.7310   20.8200    2.7260 C.3     9  PRO9        0.0282
      6  CG        45.1030   20.5150    3.2570 C.3     9  PRO9        0.0208
      7  CD        45.9040   21.7310    2.8970 C.3     9  PRO9        0.0893
      8  N         43.0520   23.7310    0.4990 N.am   10  TRP10      -0.1963
      9  CA        42.4120   25.0340    0.4280 C.3    10  TRP10       0.1771
     10  C         40.9180   25.0870    0.7440 C.2    10  TRP10       0.2619
     11  O         40.4290   26.0630    1.2830 O.2    10  TRP10      -0.2715
     12  CB        42.7620   25.7410   -0.8760 C.3    10  TRP10       0.0590
     13  CG        44.1860   26.1930   -0.8860 C.ar   10  TRP10       0.0006
     14  CD1       45.2160   25.6430   -1.5790 C.ar   10  TRP10       0.0946
     15  CD2       44.7430   27.2700   -0.1340 C.ar   10  TRP10       0.0152
     16  NE1       46.3740   26.3150   -1.3140 N.ar   10  TRP10      -0.2442
     17  CE2       46.1080   27.3240   -0.4330 C.ar   10  TRP10       0.0810
     18  CE3       44.2130   28.2010    0.7560 C.ar   10  TRP10       0.0012
     19  CZ2       46.9500   28.2680    0.1260 C.ar   10  TRP10       0.0191
     20  CZ3       45.0500   29.1360    1.3060 C.ar   10  TRP10       0.0001
     21  CH2       46.4020   29.1640    0.9920 C.ar   10  TRP10       0.0015
     22  N         40.1800   24.0700    0.3350 N.am   11  ALA11      -0.1977
     23  CA        38.7530   24.0550    0.5880 C.3    11  ALA11       0.1597
     24  C         38.2750   22.6640    1.0000 C.2    11  ALA11       0.2287
     25  O         38.7150   22.1330    1.9990 O.2    11  ALA11      -0.2864
     26  CB        38.0000   24.5980   -0.6160 C.3    11  ALA11       0.0319
     27  N         47.7460   21.5340    6.7420 N.3    40  TRP40      -0.1241
     28  CA        47.9040   22.8070    7.3980 C.3    40  TRP40       0.1605
     29  C         48.6570   22.7210    8.7310 C.2    40  TRP40       0.2264
     30  O         49.4100   23.6420    9.0640 O.2    40  TRP40      -0.2867
     31  CB        46.5540   23.4700    7.6190 C.3    40  TRP40       0.0550
     32  CG        46.0410   24.1430    6.4110 C.ar   40  TRP40       0.0003
     33  CD1       44.9250   23.8180    5.6980 C.ar   40  TRP40       0.0946
     34  CD2       46.6280   25.2630    5.7530 C.ar   40  TRP40       0.0152
     35  NE1       44.7780   24.6750    4.6290 N.ar   40  TRP40      -0.2442
     36  CE2       45.8100   25.5730    4.6450 C.ar   40  TRP40       0.0810
     37  CE3       47.7590   26.0490    5.9990 C.ar   40  TRP40       0.0012
     38  CZ2       46.1030   26.6220    3.7850 C.ar   40  TRP40       0.0191
     39  CZ3       48.0460   27.0900    5.1480 C.ar   40  TRP40       0.0001
     40  CH2       47.2350   27.3630    4.0490 C.ar   40  TRP40       0.0015
     41  N         52.5070   23.5510    9.0800 N.3    43  PHE43      -0.1241
     42  CA        52.9550   23.7570    7.6880 C.3    43  PHE43       0.1605
     43  C         54.2450   24.5890    7.6090 C.2    43  PHE43       0.2264
     44  O         55.0880   24.3630    6.7480 O.2    43  PHE43      -0.2867
     45  CB        51.8580   24.4290    6.8500 C.3    43  PHE43       0.0534
     46  CG        51.7630   25.9110    7.0530 C.ar   43  PHE43      -0.0203
     47  CD1       51.0230   26.4370    8.1020 C.ar   43  PHE43      -0.0042
     48  CD2       52.4180   26.7950    6.1950 C.ar   43  PHE43      -0.0042
     49  CE1       50.9550   27.8040    8.3060 C.ar   43  PHE43      -0.0003
     50  CE2       52.3470   28.1760    6.4050 C.ar   43  PHE43      -0.0003
     51  CZ        51.6170   28.6770    7.4520 C.ar   43  PHE43      -0.0000
     52  N         51.6450   29.3500    2.7550 N.3    63  GLY63      -0.1210
     53  CA        51.3420   30.4970    3.5540 C.3    63  GLY63       0.1956
     54  C         51.3210   31.7680    2.7310 C.2    63  GLY63       0.2612
     55  O         52.0120   31.8880    1.7260 O.2    63  GLY63      -0.2717
     56  N         50.5080   32.7200    3.1700 N.am   64  GLY64      -0.1956
     57  CA        50.3690   34.0070    2.4850 C.3    64  GLY64       0.1869
     58  C         51.6670   34.7740    2.3190 C.2    64  GLY64       0.2309
     59  O         51.8120   35.4970    1.3480 O.2    64  GLY64      -0.2863
     60  N         42.1990   35.4860    0.1380 N.3   117  ASP117     -0.1239
     61  CA        41.4390   34.7320    1.1310 C.3   117  ASP117      0.1674
     62  C         40.9870   35.7320    2.1670 C.2   117  ASP117      0.2266
     63  O         41.7600   36.1560    3.0160 O.2   117  ASP117     -0.2867
     64  CB        42.3100   33.6330    1.7260 C.3   117  ASP117      0.1410
     65  CG        41.5650   32.7340    2.7170 C.2   117  ASP117      0.3668
     66  OD1       40.3190   32.7470    2.7720 O.co2 117  ASP117     -0.2456
     67  OD2       42.2580   32.0250    3.4680 O.co2 117  ASP117     -0.2456
     68  N         37.9520   37.2050    5.0560 N.3   119  ARG119     -0.1245
     69  CA        37.3610   36.7000    6.3040 C.3   119  ARG119      0.1563
     70  C         35.9970   37.3340    6.5900 C.2   119  ARG119      0.2260
     71  O         35.8840   38.2640    7.3900 O.2   119  ARG119     -0.2867
     72  CB        38.3180   36.9490    7.4780 C.3   119  ARG119      0.0307
     73  CG        39.5650   36.0750    7.4230 C.3   119  ARG119      0.0489
     74  CD        39.2740   34.6650    7.9320 C.3   119  ARG119      0.2205
     75  NE        40.3500   33.7400    7.5910 N.pl3 119  ARG119     -0.0865
     76  CZ        40.5530   33.2190    6.3900 C.cat 119  ARG119      0.5346
     77  NH1       39.6950   33.4320    5.4050 N.pl3 119  ARG119      0.1354
     78  NH2       41.5790   32.4060    6.1930 N.pl3 119  ARG119      0.1354
     79  N         45.6730   22.1730   13.0250 N.3   164  GLY164     -0.1210
     80  CA        45.3380   22.4600   11.6340 C.3   164  GLY164      0.1956
     81  C         44.3980   23.6370   11.4070 C.2   164  GLY164      0.2612
     82  O         44.1420   24.0140   10.2760 O.2   164  GLY164     -0.2717
     83  N         43.8590   24.2060   12.4710 N.am  165  ASN165     -0.1960
     84  CA        42.8550   25.2590   12.3500 C.3   165  ASN165      0.1819
     85  C         43.4620   26.6150   12.7230 C.2   165  ASN165      0.2621
     86  O         43.7390   26.8860   13.8890 O.2   165  ASN165     -0.2715
     87  CB        41.6670   24.9280   13.2570 C.3   165  ASN165      0.1195
     88  CG        40.4640   25.7640   12.9510 C.2   165  ASN165      0.2630
     89  OD1       40.5300   26.6730   12.1320 O.2   165  ASN165     -0.2716
     90  ND2       39.3560   25.4630   13.6000 N.am  165  ASN165     -0.0877
     91  N         43.6400   27.4650   11.7150 N.am  166  ASN166     -0.1958
     92  CA        44.1960   28.8250   11.8720 C.3   166  ASN166      0.1819
     93  C         43.1620   29.9540   11.9810 C.2   166  ASN166      0.2621
     94  O         43.5040   31.1480   12.1130 O.2   166  ASN166     -0.2715
     95  CB        45.1310   29.1110   10.6830 C.3   166  ASN166      0.1195
     96  CG        46.2940   28.1600   10.6290 C.2   166  ASN166      0.2630
     97  OD1       46.5400   27.4850    9.6280 O.2   166  ASN166     -0.2716
     98  ND2       47.0040   28.0850   11.7120 N.am  166  ASN166     -0.0877
     99  N         41.8890   29.5950   11.9810 N.am  167  ILE167     -0.1977
    100  CA        40.8390   30.6100   11.9950 C.3   167  ILE167      0.1596
    101  C         40.8580   31.4230   13.2980 C.2   167  ILE167      0.2287
    102  O         40.6450   32.6460   13.2780 O.2   167  ILE167     -0.2864
    103  CB        39.4740   29.9550   11.7410 C.3   167  ILE167      0.0276
    104  CG1       39.4240   29.4170   10.2980 C.3   167  ILE167      0.0022
    105  CG2       38.3150   30.8930   12.0430 C.3   167  ILE167      0.0022
    106  CD1       39.4980   30.4720    9.1950 C.3   167  ILE167      0.0001
    107  N         43.5190   32.1120   15.0880 N.3   169  ASN169     -0.1225
    108  CA        44.6300   33.0540   14.8710 C.3   169  ASN169      0.1785
    109  C         44.1190   34.2700   14.1280 C.2   169  ASN169      0.2597
    110  O         44.4420   35.4070   14.4640 O.2   169  ASN169     -0.2718
    111  CB        45.7290   32.4180   14.0230 C.3   169  ASN169      0.1169
    112  CG        46.5340   31.3670   14.7540 C.2   169  ASN169      0.2627
    113  OD1       47.4080   30.7470   14.1610 O.2   169  ASN169     -0.2716
    114  ND2       46.2990   31.2050   16.0420 N.am  169  ASN169     -0.0877
    115  N         43.2950   34.0280   13.1130 N.am  170  HIS170     -0.1975
    116  CA        42.9020   35.0900   12.2240 C.3   170  HIS170      0.1656
    117  C         41.9110   36.0110   12.8950 C.2   170  HIS170      0.2291
    118  O         41.9130   37.2140   12.6490 O.2   170  HIS170     -0.2864
    119  CB        42.3160   34.5230   10.9440 C.3   170  HIS170      0.0771
    120  CG        43.2810   33.6870   10.1640 C.ar  170  HIS170      0.0820
    121  ND1       42.9030   32.9270    9.0790 N.ar  170  HIS170     -0.2267
    122  CD2       44.6210   33.5100   10.3000 C.ar  170  HIS170      0.1154
    123  CE1       43.9630   32.3090    8.5850 C.ar  170  HIS170      0.1986
    124  NE2       45.0180   32.6520    9.3070 N.ar  170  HIS170     -0.2212
    125  N         39.3310   22.0570   11.9150 N.3   222  THR222     -0.1218
    126  CA        38.5710   22.6060   10.7990 C.3   222  THR222      0.1862
    127  C         37.2880   21.8000   10.6400 C.2   222  THR222      0.2287
    128  O         36.2180   22.3620   10.4530 O.2   222  THR222     -0.2866
    129  CB        39.4230   22.6140    9.5130 C.3   222  THR222      0.1770
    130  OG1       40.4870   23.5790    9.6410 O.3   222  THR222     -0.2211
    131  CG2       38.5640   22.9670    8.3180 C.3   222  THR222      0.0375
    132  N         35.1580   32.0920    5.9090 N.3   240  THR240     -0.1218
    133  CA        35.7160   32.2690    4.5840 C.3   240  THR240      0.1862
    134  C         34.6260   32.5060    3.5710 C.2   240  THR240      0.2287
    135  O         33.4590   32.3630    3.8620 O.2   240  THR240     -0.2866
    136  CB        36.4860   31.0250    4.1170 C.3   240  THR240      0.1770
    137  OG1       35.5650   29.9690    3.8460 O.3   240  THR240     -0.2211
    138  CG2       37.4780   30.5800    5.1590 C.3   240  THR240      0.0375
    139  N         31.4380   24.8840    1.4060 N.3   246  ARG246     -0.1245
    140  CA        32.5050   24.2870    2.2150 C.3   246  ARG246      0.1563
    141  C         31.9660   23.2980    3.2380 C.2   246  ARG246      0.2260
    142  O         32.5280   22.2390    3.4070 O.2   246  ARG246     -0.2867
    143  CB        33.3230   25.3540    2.9390 C.3   246  ARG246      0.0307
    144  CG        34.4420   24.7900    3.8140 C.3   246  ARG246      0.0489
    145  CD        35.3090   23.8060    3.0440 C.3   246  ARG246      0.2205
    146  NE        36.4130   23.2850    3.8390 N.pl3 246  ARG246     -0.0865
    147  CZ        36.4840   22.0380    4.2700 C.cat 246  ARG246      0.5346
    148  NH1       35.5130   21.1730    3.9810 N.pl3 246  ARG246      0.1354
    149  NH2       37.5290   21.6560    4.9740 N.pl3 246  ARG246      0.1354
    150  N         44.1700   37.8120    3.0610 N.3   272  PHE272     -0.1241
    151  CA        45.4560   37.1560    2.7920 C.3   272  PHE272      0.1605
    152  C         45.6950   37.1590    1.2780 C.2   272  PHE272      0.2264
    153  O         44.8890   36.6280    0.5170 O.2   272  PHE272     -0.2867
    154  CB        45.4990   35.7200    3.3190 C.3   272  PHE272      0.0534
    155  CG        45.3660   35.6420    4.7980 C.ar  272  PHE272     -0.0203
    156  CD1       44.1090   35.6440    5.3800 C.ar  272  PHE272     -0.0042
    157  CD2       46.4880   35.6200    5.6120 C.ar  272  PHE272     -0.0042
    158  CE1       43.9580   35.6110    6.7670 C.ar  272  PHE272     -0.0003
    159  CE2       46.3520   35.5770    7.0010 C.ar  272  PHE272     -0.0003
    160  CZ        45.0810   35.5880    7.5680 C.ar  272  PHE272     -0.0000
    161  N         47.1980   35.4430   -1.1520 N.3   274  ASN274     -0.1240
    162  CA        47.8570   34.1770   -1.4300 C.3   274  ASN274      0.1653
    163  C         48.4620   34.1000   -2.8110 C.2   274  ASN274      0.2266
    164  O         47.9860   34.7290   -3.7640 O.2   274  ASN274     -0.2867
    165  CB        46.9000   33.0160   -1.1970 C.3   274  ASN274      0.1155
    166  CG        46.6070   32.8220    0.2740 C.2   274  ASN274      0.2627
    167  OD1       47.5230   32.8150    1.0950 O.2   274  ASN274     -0.2716
    168  ND2       45.3350   32.6870    0.6200 N.am  274  ASN274     -0.0877
    169  N         37.2400   28.6030   -1.6930 N.3   309  ASN309     -0.1240
    170  CA        36.8110   29.3500   -0.5120 C.3   309  ASN309      0.1653
    171  C         37.5910   30.6820   -0.4080 C.2   309  ASN309      0.2266
    172  O         37.9700   31.1160    0.6850 O.2   309  ASN309     -0.2867
    173  CB        37.0370   28.5330    0.7480 C.3   309  ASN309      0.1155
    174  CG        36.0390   27.4120    0.9110 C.2   309  ASN309      0.2627
    175  OD1       36.1550   26.6320    1.8450 O.2   309  ASN309     -0.2716
    176  ND2       35.0640   27.3200    0.0100 N.am  309  ASN309     -0.0877
    177  N         52.8060   34.8330   10.9640 N.3   358  ASP358     -0.1239
    178  CA        51.7030   33.9820   10.5170 C.3   358  ASP358      0.1674
    179  C         51.8830   32.5000   10.8720 C.2   358  ASP358      0.2266
    180  O         50.9510   31.8580   11.3340 O.2   358  ASP358     -0.2867
    181  CB        51.5590   34.1430    8.9960 C.3   358  ASP358      0.1410
    182  CG        50.4230   33.3320    8.4060 C.2   358  ASP358      0.3668
    183  OD1       49.3000   33.4070    8.9350 O.co2 358  ASP358     -0.2456
    184  OD2       50.6460   32.6540    7.3850 O.co2 358  ASP358     -0.2456
@<TRIPOS>BOND
     1   164   163    2
     2   163   162    1
     3   169   170    1
     4    14    16   ar
     5    14    13   ar
     6   162   165    1
     7   162   161    1
     8    16    17   ar
     9   165   166    1
    10    13    12    1
    11    13    15   ar
    12    12     9    1
    13    26    23    1
    14   170   171    1
    15   170   173    1
    16    17    15   ar
    17    17    19   ar
    18   171   172    2
    19    15    18   ar
    20   176   174   am
    21    19    21   ar
    22    60    61    1
    23   166   168   am
    24   166   167    2
    25    22    23    1
    26    22    10   am
    27     9     8    1
    28     9    10    1
    29     8     3   am
    30   153   152    2
    31    23    24    1
    32    10    11    2
    33   173   174    1
    34    18    20   ar
    35   174   175    2
    36    21    20   ar
    37    24    25    2
    38    61    64    1
    39    61    62    1
    40   152   151    1
    41    59    58    2
    42   139   140    1
    43     2     1    1
    44     2     3    1
    45     2     5    1
    46     1     7    1
    47     3     4    2
    48    55    54    2
    49    64    65    1
    50    62    63    2
    51   140   143    1
    52   140   141    1
    53    58    57    1
    54    57    56    1
    55    65    66   ar
    56    65    67   ar
    57     5     6    1
    58    54    56   am
    59    54    53    1
    60    52    53    1
    61   151   150    1
    62   151   154    1
    63     7     6    1
    64   143   144    1
    65   145   144    1
    66   145   146    1
    67   141   142    2
    68   154   155    1
    69   134   135    2
    70   134   133    1
    71    38    40   ar
    72    38    36   ar
    73   146   147    2
    74   137   136    1
    75   148   147    1
    76    40    39   ar
    77   136   133    1
    78   136   138    1
    79   147   149    1
    80   133   132    1
    81    35    36   ar
    82    35    33   ar
    83    36    34   ar
    84   155   156   ar
    85   155   157   ar
    86    68    69    1
    87    39    37   ar
    88   156   158   ar
    89    77    76    1
    90   157   159   ar
    91    33    32   ar
    92    34    37   ar
    93    34    32   ar
    94    78    76    1
    95    48    50   ar
    96    48    46   ar
    97    69    70    1
    98    69    72    1
    99    76    75    2
   100    50    51   ar
   101    32    31    1
   102    70    71    2
   103    27    28    1
   104    44    43    2
   105   158   160   ar
   106    45    46    1
   107    45    42    1
   108   159   160   ar
   109    46    47   ar
   110   184   182   ar
   111    28    31    1
   112    28    29    1
   113    73    72    1
   114    73    74    1
   115    51    49   ar
   116    75    74    1
   117    43    42    1
   118    42    41    1
   119    47    49   ar
   120   131   129    1
   121   182   183   ar
   122   182   181    1
   123   123   121   ar
   124   123   124   ar
   125    29    30    2
   126   181   178    1
   127   121   120   ar
   128   106   104    1
   129   124   122   ar
   130   129   130    1
   131   129   126    1
   132    97    96    2
   133   120   122   ar
   134   120   119    1
   135    82    81    2
   136   104   103    1
   137   128   127    2
   138   178   179    1
   139   178   177    1
   140    96    95    1
   141    96    98   am
   142   127   126    1
   143    95    92    1
   144   126   125    1
   145   179   180    2
   146   119   116    1
   147    81    80    1
   148    81    83   am
   149    80    79    1
   150    91    92    1
   151    91    85   am
   152   103   100    1
   153   103   105    1
   154    92    93    1
   155    93    99   am
   156    93    94    2
   157    99   100    1
   158   100   101    1
   159    89    88    2
   160   116   117    1
   161   116   115    1
   162    84    83    1
   163    84    85    1
   164    84    87    1
   165   118   117    2
   166    85    86    2
   167    88    87    1
   168    88    90   am
   169   115   109   am
   170   102   101    2
   171   111   112    1
   172   111   108    1
   173   109   110    2
   174   109   108    1
   175   113   112    2
   176   112   114   am
   177   108   107    1
