@<TRIPOS>MOLECULE
tmp/4r2gO01.pdb
 81 76 0 0 0
SMALL
GASTEIGER

@<TRIPOS>ATOM
      1  N        -49.3610  151.6480  450.3540 N.3   151  ARG151     -0.1231
      2  CA       -49.5730  150.2090  450.4740 C.3   151  ARG151      0.1694
      3  C        -51.0470  149.8700  450.2630 C.2   151  ARG151      0.2591
      4  O        -51.4070  148.7480  449.8690 O.2   151  ARG151     -0.2718
      5  CB       -49.0540  149.6770  451.8130 C.3   151  ARG151      0.0321
      6  CG       -48.9450  148.1570  451.8660 C.3   151  ARG151      0.0489
      7  CD       -48.4590  147.6560  453.2150 C.3   151  ARG151      0.2205
      8  NE       -47.0630  147.9980  453.4580 N.pl3 151  ARG151     -0.0865
      9  CZ       -46.0720  147.1130  453.5030 C.cat 151  ARG151      0.5346
     10  NH1      -46.3270  145.8240  453.3290 N.pl3 151  ARG151      0.1354
     11  NH2      -44.8270  147.5150  453.7350 N.pl3 151  ARG151      0.1354
     12  N        -51.8990  150.8560  450.5250 N.am  152  ALA152     -0.1980
     13  CA       -53.3240  150.7220  450.2580 C.3   152  ALA152      0.1597
     14  C        -53.4950  150.4420  448.7760 C.2   152  ALA152      0.2287
     15  O        -53.8550  149.3270  448.3760 O.2   152  ALA152     -0.2864
     16  CB       -54.0520  151.9950  450.6300 C.3   152  ALA152      0.0319
     17  N        -51.9330  147.5290  447.5150 N.3   155  ASN155     -0.1240
     18  CA       -52.5790  146.3820  448.1350 C.3   155  ASN155      0.1653
     19  C        -53.9100  146.0550  447.4730 C.2   155  ASN155      0.2266
     20  O        -54.2260  144.8930  447.2370 O.2   155  ASN155     -0.2867
     21  CB       -52.7830  146.6360  449.6280 C.3   155  ASN155      0.1155
     22  CG       -51.8110  145.8590  450.4920 C.2   155  ASN155      0.2627
     23  OD1      -50.7520  145.4360  450.0300 O.2   155  ASN155     -0.2716
     24  ND2      -52.1690  145.6670  451.7560 N.am  155  ASN155     -0.0877
     25  N        -55.0300  142.6950  444.8570 N.3   159  LYS159     -0.1245
     26  CA       -56.2560  141.9040  444.9890 C.3   159  LYS159      0.1561
     27  C        -57.0070  141.8270  443.6470 C.2   159  LYS159      0.2260
     28  O        -57.4800  140.7560  443.2340 O.2   159  LYS159     -0.2867
     29  CB       -57.1380  142.5040  446.0950 C.3   159  LYS159      0.0271
     30  CG       -58.3290  141.6510  446.5360 C.3   159  LYS159      0.0035
     31  CD       -58.9060  142.1200  447.8900 C.3   159  LYS159      0.0206
     32  CE       -59.4630  143.5440  447.8490 C.3   159  LYS159      0.1093
     33  NZ       -60.9200  143.6010  447.5430 N.3   159  LYS159     -0.1314
     34  N        -51.5960  134.7130  448.0770 N.3   210  TRP210     -0.1241
     35  CA       -53.0390  134.7730  448.2680 C.3   210  TRP210      0.1605
     36  C        -53.7160  133.4270  448.0410 C.2   210  TRP210      0.2264
     37  O        -53.7900  132.9460  446.9130 O.2   210  TRP210     -0.2867
     38  CB       -53.6530  135.8190  447.3400 C.3   210  TRP210      0.0550
     39  CG       -52.8780  137.0930  447.2770 C.ar  210  TRP210      0.0003
     40  CD1      -51.6020  137.2540  446.8320 C.ar  210  TRP210      0.0946
     41  CD2      -53.3330  138.3910  447.6710 C.ar  210  TRP210      0.0152
     42  NE1      -51.2310  138.5720  446.9240 N.ar  210  TRP210     -0.2442
     43  CE2      -52.2780  139.2910  447.4380 C.ar  210  TRP210      0.0810
     44  CE3      -54.5300  138.8800  448.1980 C.ar  210  TRP210      0.0012
     45  CZ2      -52.3830  140.6470  447.7130 C.ar  210  TRP210      0.0191
     46  CZ3      -54.6310  140.2240  448.4710 C.ar  210  TRP210      0.0001
     47  CH2      -53.5660  141.0940  448.2280 C.ar  210  TRP210      0.0015
     48  N        -55.0790  136.4570  452.2750 N.3   216  SER216     -0.1217
     49  CA       -53.6740  136.4740  451.8710 C.3   216  SER216      0.1889
     50  C        -52.7430  136.7020  453.0560 C.2   216  SER216      0.2288
     51  O        -53.1670  137.1810  454.1060 O.2   216  SER216     -0.2866
     52  CB       -53.4340  137.5430  450.8070 C.3   216  SER216      0.2089
     53  OG       -53.8460  138.8200  451.2680 O.3   216  SER216     -0.2183
     54  N        -48.8410  140.3150  452.9260 N.3   219  THR219     -0.1203
     55  CA       -49.1010  141.6870  452.5220 C.3   219  THR219      0.1994
     56  C        -49.2880  142.7480  453.6280 C.2   219  THR219      0.2618
     57  O        -49.1770  143.9490  453.3780 O.2   219  THR219     -0.2717
     58  CB       -50.2890  141.6970  451.5780 C.3   219  THR219      0.1784
     59  OG1      -51.4170  141.1530  452.2640 O.3   219  THR219     -0.2211
     60  CG2      -49.9900  140.8390  450.3690 C.3   219  THR219      0.0376
     61  N        -49.5760  142.3110  454.8480 N.am  220  GLU220     -0.1965
     62  CA       -49.6610  143.2490  455.9670 C.3   220  GLU220      0.1737
     63  C        -48.3320  143.9620  456.2130 C.2   220  GLU220      0.2655
     64  O        -47.2790  143.3230  456.2260 O.2   220  GLU220     -0.2711
     65  CB       -50.0990  142.4970  457.2290 C.3   220  GLU220      0.0429
     66  CG       -51.3710  141.6780  457.0570 C.3   220  GLU220      0.1163
     67  CD       -51.3510  140.3630  457.8280 C.2   220  GLU220      0.3649
     68  OE1      -50.3910  139.5680  457.6700 O.co2 220  GLU220     -0.2457
     69  OE2      -52.3120  140.1250  458.5900 O.co2 220  GLU220     -0.2457
     70  N        -48.3750  145.2800  456.3940 N.am  221  GLY221     -0.1730
     71  CA       -47.1550  146.0370  456.6290 C.2   221  GLY221      0.1340
     72  C        -47.3010  147.5470  456.7680 C.2   221  GLY221      0.2521
     73  O        -48.3410  148.0500  457.1970 O.2   221  GLY221     -0.2816
     74  N        -47.4600  151.7090  456.2000 N.3   223  ASP223     -0.1239
     75  CA       -48.3310  152.6050  455.4310 C.3   223  ASP223      0.1674
     76  C        -47.8000  153.0450  454.0700 C.2   223  ASP223      0.2266
     77  O        -48.5090  152.9500  453.0710 O.2   223  ASP223     -0.2867
     78  CB       -48.6910  153.8380  456.2420 C.3   223  ASP223      0.1410
     79  CG       -49.8820  153.6040  457.1300 C.2   223  ASP223      0.3668
     80  OD1      -50.0590  152.4460  457.5900 O.co2 223  ASP223     -0.2456
     81  OD2      -50.6530  154.5640  457.3600 O.co2 223  ASP223     -0.2456
@<TRIPOS>BOND
     1    28    27    2
     2    27    26    1
     3    25    26    1
     4    26    29    1
     5    29    30    1
     6    30    31    1
     7    40    42   ar
     8    40    39   ar
     9    37    36    2
    10    42    43   ar
    11    20    19    2
    12    39    38    1
    13    39    41   ar
    14    38    35    1
    15    43    41   ar
    16    43    45   ar
    17    19    18    1
    18    17    18    1
    19    33    32    1
    20    41    44   ar
    21    45    47   ar
    22    32    31    1
    23    36    35    1
    24    34    35    1
    25    18    21    1
    26    44    46   ar
    27    47    46   ar
    28    15    14    2
    29    14    13    1
    30    21    22    1
    31     4     3    2
    32    23    22    2
    33    13    12    1
    34    13    16    1
    35     3     2    1
    36     3    12   am
    37     1     2    1
    38    60    58    1
    39     2     5    1
    40    22    24   am
    41    52    53    1
    42    52    49    1
    43    58    59    1
    44    58    55    1
    45     5     6    1
    46     6     7    1
    47    49    48    1
    48    49    50    1
    49    55    54    1
    50    55    56    1
    51    50    51    2
    52    77    76    2
    53     7     8    1
    54    10     9    1
    55    57    56    2
    56     8     9    2
    57     9    11    1
    58    56    61   am
    59    76    75    1
    60    61    62    1
    61    75    74    1
    62    75    78    1
    63    62    63    1
    64    62    65    1
    65    63    64    2
    66    63    70    1
    67    78    79    1
    68    70    71    2
    69    71    72    1
    70    72    73    2
    71    66    65    1
    72    66    67    1
    73    79    81   ar
    74    79    80   ar
    75    68    67   ar
    76    67    69   ar
