@<TRIPOS>MOLECULE
tmp/4r2iA00.pdb
 123 121 0 0 0
SMALL
GASTEIGER

@<TRIPOS>ATOM
      1  N         15.0740    2.1860  -15.6820 N.3    12  ARG12      -0.1231
      2  CA        14.2670    2.0890  -16.9080 C.3    12  ARG12       0.1694
      3  C         14.3300    0.7280  -17.5470 C.2    12  ARG12       0.2592
      4  O         15.1940   -0.1000  -17.2300 O.2    12  ARG12      -0.2718
      5  CB        14.7740    3.0730  -17.9340 C.3    12  ARG12       0.0321
      6  CG        14.6150    4.5080  -17.5260 C.3    12  ARG12       0.0489
      7  CD        14.9930    5.3940  -18.6940 C.3    12  ARG12       0.2205
      8  NE        14.3910    5.0080  -19.9980 N.pl3  12  ARG12      -0.0865
      9  CZ        14.8650    5.4240  -21.1830 C.cat  12  ARG12       0.5346
     10  NH1       15.9400    6.1940  -21.2380 N.pl3  12  ARG12       0.1354
     11  NH2       14.2810    5.0450  -22.3150 N.pl3  12  ARG12       0.1354
     12  N         13.4580    0.5250  -18.5280 N.am   13  LYS13      -0.1966
     13  CA        13.5100   -0.6980  -19.3220 C.3    13  LYS13       0.1728
     14  C         14.9100   -0.7460  -19.9010 C.2    13  LYS13       0.2616
     15  O         15.5190    0.3060  -20.2260 O.2    13  LYS13      -0.2715
     16  CB        12.4990   -0.7220  -20.4930 C.3    13  LYS13       0.0311
     17  CG        11.1120   -0.1960  -20.2160 C.3    13  LYS13       0.0038
     18  CD        10.3180   -1.1290  -19.3250 C.3    13  LYS13       0.0206
     19  CE         9.8160   -2.3330  -20.0940 C.3    13  LYS13       0.1093
     20  NZ        10.3050   -3.5510  -19.3810 N.3    13  LYS13      -0.1314
     21  N         15.4150   -1.9770  -20.0060 N.am   14  ARG14      -0.1963
     22  CA        16.7910   -2.2650  -20.4320 C.3    14  ARG14       0.1729
     23  C         17.9440   -1.9430  -19.4600 C.2    14  ARG14       0.2617
     24  O         19.0460   -2.3550  -19.7250 O.2    14  ARG14      -0.2715
     25  CB        17.0660   -1.6990  -21.8130 C.3    14  ARG14       0.0348
     26  CG        16.1070   -2.3320  -22.8330 C.3    14  ARG14       0.0492
     27  CD        16.1460   -1.5580  -24.0940 C.3    14  ARG14       0.2205
     28  NE        15.0610   -1.9250  -25.0090 N.pl3  14  ARG14      -0.0865
     29  CZ        15.2350   -2.5440  -26.1730 C.cat  14  ARG14       0.5346
     30  NH1       16.4520   -2.9430  -26.5470 N.pl3  14  ARG14       0.1354
     31  NH2       14.1780   -2.8160  -26.9490 N.pl3  14  ARG14       0.1354
     32  N         17.6660   -1.3530  -18.2980 N.am   15  SER15      -0.1936
     33  CA        18.7120   -0.9970  -17.3210 C.3    15  SER15       0.2055
     34  C         19.3040   -2.2020  -16.5890 C.2    15  SER15       0.2644
     35  O         20.4560   -2.1310  -16.1160 O.2    15  SER15      -0.2714
     36  CB        18.1130   -0.0970  -16.3000 C.3    15  SER15       0.2130
     37  OG        17.2230   -0.8500  -15.5000 O.3    15  SER15      -0.2179
     38  N         18.5360   -3.2980  -16.5240 N.am   16  GLY16      -0.1939
     39  CA        18.8560   -4.4820  -15.7060 C.3    16  GLY16       0.2014
     40  C         18.0480   -4.6190  -14.4130 C.2    16  GLY16       0.2639
     41  O         18.1800   -5.6080  -13.6750 O.2    16  GLY16      -0.2714
     42  N         17.2310   -3.6130  -14.1140 N.am   17  LYS17      -0.1963
     43  CA        16.3620   -3.6240  -12.9730 C.3    17  LYS17       0.1728
     44  C         15.4570   -4.8450  -12.9460 C.2    17  LYS17       0.2617
     45  O         15.3620   -5.5430  -11.8690 O.2    17  LYS17      -0.2715
     46  CB        15.5320   -2.3470  -12.9340 C.3    17  LYS17       0.0311
     47  CG        14.4250   -2.4040  -11.9090 C.3    17  LYS17       0.0038
     48  CD        13.4540   -1.2640  -12.1350 C.3    17  LYS17       0.0206
     49  CE        12.3280   -1.7210  -12.9970 C.3    17  LYS17       0.1093
     50  NZ        11.3820   -0.5910  -13.0520 N.3    17  LYS17      -0.1314
     51  N         14.8190   -5.1900  -14.0820 N.am   18  SER18      -0.1936
     52  CA        13.8680   -6.3470  -13.9570 C.3    18  SER18       0.2055
     53  C         14.5520   -7.6830  -13.7470 C.2    18  SER18       0.2643
     54  O         14.0140   -8.5520  -13.0260 O.2    18  SER18      -0.2714
     55  CB        12.8310   -6.4570  -15.0710 C.3    18  SER18       0.2130
     56  OG        13.2470   -5.7750  -16.2070 O.3    18  SER18      -0.2179
     57  N         15.7090   -7.8530  -14.3640 N.am   19  TYR19      -0.1973
     58  CA        16.4910   -9.0500  -14.2050 C.3    19  TYR19       0.1639
     59  C         16.9160   -9.2180  -12.6930 C.2    19  TYR19       0.2290
     60  O         16.9050  -10.3330  -12.1570 O.2    19  TYR19      -0.2864
     61  CB        17.6960   -9.0430  -15.1250 C.3    19  TYR19       0.0560
     62  CG        18.4110  -10.4070  -15.1480 C.ar   19  TYR19      -0.0198
     63  CD1       17.9040  -11.4370  -15.9070 C.ar   19  TYR19      -0.0009
     64  CD2       19.5430  -10.6700  -14.3690 C.ar   19  TYR19      -0.0009
     65  CE1       18.4960  -12.6880  -15.9220 C.ar   19  TYR19       0.0417
     66  CE2       20.1560  -11.9110  -14.3880 C.ar   19  TYR19       0.0417
     67  CZ        19.6090  -12.9160  -15.1790 C.ar   19  TYR19       0.1957
     68  OH        20.1220  -14.1740  -15.2500 O.3    19  TYR19      -0.2866
     69  N         13.5260  -10.2640  -10.8670 N.3    22  LYS22      -0.1245
     70  CA        13.0730  -11.5320  -11.3400 C.3    22  LYS22       0.1561
     71  C         14.0530  -12.6730  -11.1410 C.2    22  LYS22       0.2260
     72  O         13.6020  -13.7660  -10.9080 O.2    22  LYS22      -0.2867
     73  CB        12.7330  -11.4480  -12.7820 C.3    22  LYS22       0.0271
     74  CG        11.5300  -10.5900  -13.0390 C.3    22  LYS22       0.0035
     75  CD        11.4440  -10.3120  -14.5230 C.3    22  LYS22       0.0206
     76  CE        10.2790   -9.4090  -14.8410 C.3    22  LYS22       0.1093
     77  NZ        10.1860   -9.3540  -16.3240 N.3    22  LYS22      -0.1314
     78  N          4.7510  -11.0970  -17.4270 N.3    49  GLU49      -0.1245
     79  CA         6.1540  -11.3630  -17.1900 C.3    49  GLU49       0.1567
     80  C          6.2980  -12.3820  -16.0680 C.2    49  GLU49       0.2260
     81  O          6.9470  -13.4220  -16.2240 O.2    49  GLU49      -0.2867
     82  CB         6.8740  -10.0380  -16.8180 C.3    49  GLU49       0.0388
     83  CG         6.1430   -8.7240  -17.1900 C.3    49  GLU49       0.1160
     84  CD         6.9970   -7.4750  -17.0150 C.2    49  GLU49       0.3649
     85  OE1        6.5320   -6.5490  -16.3010 O.co2  49  GLU49      -0.2457
     86  OE2        8.1230   -7.4190  -17.5900 O.co2  49  GLU49      -0.2457
     87  N         24.2560   -2.0810  -16.2070 N.3   186  TYR186     -0.1241
     88  CA        23.8700   -3.2060  -15.3130 C.3   186  TYR186      0.1605
     89  C         24.4050   -3.0560  -13.8870 C.2   186  TYR186      0.2264
     90  O         24.0870   -3.8490  -12.9660 O.2   186  TYR186     -0.2867
     91  CB        24.2310   -4.5520  -15.9300 C.3   186  TYR186      0.0534
     92  CG        23.6750   -4.7680  -17.3430 C.ar  186  TYR186     -0.0201
     93  CD1       22.3660   -4.4090  -17.6610 C.ar  186  TYR186     -0.0009
     94  CD2       24.4440   -5.3320  -18.3360 C.ar  186  TYR186     -0.0009
     95  CE1       21.8560   -4.5910  -18.9360 C.ar  186  TYR186      0.0417
     96  CE2       23.9280   -5.5340  -19.6300 C.ar  186  TYR186      0.0417
     97  CZ        22.6420   -5.1500  -19.9020 C.ar  186  TYR186      0.1957
     98  OH        22.1190   -5.2990  -21.1270 O.3   186  TYR186     -0.2866
     99  N         27.3270   -5.7620  -11.7670 N.3   203  PRO203     -0.2102
    100  CA        26.2100   -6.4580  -12.3620 C.3   203  PRO203      0.1504
    101  C         26.1310   -7.8590  -11.8370 C.2   203  PRO203      0.2575
    102  O         27.1550   -8.4660  -11.5690 O.2   203  PRO203     -0.2718
    103  CB        26.5460   -6.4990  -13.8630 C.3   203  PRO203      0.0282
    104  CG        27.5460   -5.4300  -14.0530 C.3   203  PRO203      0.0208
    105  CD        28.3080   -5.3610  -12.7820 C.3   203  PRO203      0.0893
    106  N         24.9300   -8.3790  -11.6720 N.am  204  ILE204     -0.1980
    107  CA        24.7760   -9.7620  -11.1830 C.3   204  ILE204      0.1595
    108  C         25.0970  -10.6730  -12.3520 C.2   204  ILE204      0.2287
    109  O         25.0090  -10.2460  -13.4780 O.2   204  ILE204     -0.2864
    110  CB        23.3730  -10.0200  -10.5680 C.3   204  ILE204      0.0276
    111  CG1       22.2760  -10.0700  -11.5960 C.3   204  ILE204      0.0022
    112  CG2       23.0630   -8.9480   -9.5070 C.3   204  ILE204      0.0022
    113  CD1       20.9070  -10.4750  -11.0350 C.3   204  ILE204      0.0001
    114  N         24.5930  -13.1970  -15.2230 N.3   206  HIS206     -0.1241
    115  CA        23.4140  -13.3100  -16.1090 C.3   206  HIS206      0.1621
    116  C         23.6310  -14.3750  -17.1640 C.2   206  HIS206      0.2264
    117  O         24.7340  -14.4920  -17.6680 O.2   206  HIS206     -0.2867
    118  CB        23.1810  -11.9520  -16.8040 C.3   206  HIS206      0.0745
    119  CG        22.2360  -12.0280  -17.9480 C.ar  206  HIS206      0.0817
    120  ND1       20.8800  -11.8710  -17.7900 N.ar  206  HIS206     -0.2268
    121  CD2       22.4330  -12.3260  -19.2530 C.ar  206  HIS206      0.1154
    122  CE1       20.2800  -12.0330  -18.9560 C.ar  206  HIS206      0.1986
    123  NE2       21.2020  -12.3180  -19.8580 N.ar  206  HIS206     -0.2212
@<TRIPOS>BOND
     1    31    29    1
     2    30    29    1
     3    29    28    2
     4    28    27    1
     5    27    26    1
     6    26    25    1
     7    11     9    1
     8    25    22    1
     9    10     9    1
    10     9     8    2
    11    98    97    1
    12    16    17    1
    13    16    13    1
    14    22    21    1
    15    22    23    1
    16    15    14    2
    17    17    18    1
    18    19    20    1
    19    19    18    1
    20    21    14   am
    21     8     7    1
    22    97    96   ar
    23    97    95   ar
    24    14    13    1
    25   123   121   ar
    26   123   122   ar
    27    24    23    2
    28    96    94   ar
    29    23    32   am
    30    13    12    1
    31   121   119   ar
    32   122   120   ar
    33    95    93   ar
    34     7     6    1
    35    12     3   am
    36    94    92   ar
    37    32    33    1
    38   119   120   ar
    39   119   118    1
    40     5     6    1
    41     5     2    1
    42   117   116    2
    43    93    92   ar
    44    86    84   ar
    45     3     4    2
    46     3     2    1
    47    78    79    1
    48    92    91    1
    49    33    34    1
    50    33    36    1
    51    79    82    1
    52    79    80    1
    53    83    84    1
    54    83    82    1
    55   116   115    1
    56    84    85   ar
    57     2     1    1
    58   118   115    1
    59    34    38   am
    60    34    35    2
    61    38    39    1
    62    77    76    1
    63    36    37    1
    64    81    80    2
    65    56    55    1
    66    87    88    1
    67   115   114    1
    68    91    88    1
    69    65    63   ar
    70    65    67   ar
    71    63    62   ar
    72    39    40    1
    73    88    89    1
    74    68    67    1
    75    67    66   ar
    76    62    61    1
    77    62    64   ar
    78    61    58    1
    79    55    52    1
    80    76    75    1
    81    75    74    1
    82    40    42   am
    83    40    41    2
    84    66    64   ar
    85    57    58    1
    86    57    53   am
    87    58    59    1
    88    42    43    1
    89    51    52    1
    90    51    44   am
    91   104   103    1
    92   104   105    1
    93    52    53    1
    94    89    90    2
    95   103   100    1
    96    53    54    2
    97   109   108    2
    98    50    49    1
    99    74    73    1
   100    49    48    1
   101    43    44    1
   102    43    46    1
   103    44    45    2
   104    46    47    1
   105    73    70    1
   106   105    99    1
   107    59    60    2
   108   100   101    1
   109   100    99    1
   110   108   107    1
   111    48    47    1
   112   101   106   am
   113   101   102    2
   114   106   107    1
   115   111   113    1
   116   111   110    1
   117    70    71    1
   118    70    69    1
   119   107   110    1
   120    71    72    2
   121   110   112    1
