@<TRIPOS>MOLECULE
tmp/4r2lA00.pdb
 140 134 0 0 0
SMALL
GASTEIGER

@<TRIPOS>ATOM
      1  N         19.0430  -41.6820   -6.3560 N.3     7  PRO7       -0.2102
      2  CA        19.1150  -40.2120   -6.3940 C.3     7  PRO7        0.1504
      3  C         18.6750  -39.7680   -7.7820 C.2     7  PRO7        0.2576
      4  O         19.1050  -40.3490   -8.7480 O.2     7  PRO7       -0.2718
      5  CB        20.6170  -39.9140   -6.1650 C.3     7  PRO7        0.0282
      6  CG        21.1640  -41.1960   -5.6040 C.3     7  PRO7        0.0208
      7  CD        20.3740  -42.3060   -6.2130 C.3     7  PRO7        0.0893
      8  N         17.7600  -38.8060   -7.8980 N.am    8  ILE8       -0.1966
      9  CA        17.2860  -38.3620   -9.1740 C.3     8  ILE8        0.1727
     10  C         17.4620  -36.8490   -9.2870 C.2     8  ILE8        0.2616
     11  O         16.9610  -36.1000   -8.4380 O.2     8  ILE8       -0.2715
     12  CB        15.7510  -38.6120   -9.3100 C.3     8  ILE8        0.0290
     13  CG1       15.4180  -40.1090   -9.2980 C.3     8  ILE8        0.0022
     14  CG2       15.2310  -38.0350  -10.6180 C.3     8  ILE8        0.0023
     15  CD1       15.9610  -40.8130  -10.5210 C.3     8  ILE8        0.0001
     16  N         18.0360  -36.4090  -10.3900 N.am    9  ASP9       -0.1971
     17  CA        18.1410  -34.9880  -10.6670 C.3     9  ASP9        0.1709
     18  C         16.9630  -34.6460  -11.6070 C.2     9  ASP9        0.2293
     19  O         16.9620  -34.9820  -12.8130 O.2     9  ASP9       -0.2864
     20  CB        19.5010  -34.6400  -11.2680 C.3     9  ASP9        0.1436
     21  CG        19.6460  -33.1410  -11.6040 C.2     9  ASP9        0.3671
     22  OD1       18.6420  -32.3690  -11.6850 O.co2   9  ASP9       -0.2456
     23  OD2       20.7820  -32.7110  -11.8390 O.co2   9  ASP9       -0.2456
     24  N         19.4290  -38.9990  -17.4210 N.3    15  LEU15      -0.1245
     25  CA        20.0550  -39.4770  -16.1530 C.3    15  LEU15       0.1561
     26  C         19.0520  -40.4100  -15.4450 C.2    15  LEU15       0.2260
     27  O         19.4380  -41.3590  -14.8000 O.2    15  LEU15      -0.2867
     28  CB        20.4940  -38.3440  -15.1780 C.3    15  LEU15       0.0270
     29  CG        21.6810  -37.3490  -15.4330 C.3    15  LEU15       0.0019
     30  CD1       21.9830  -36.2220  -14.3910 C.3    15  LEU15       0.0001
     31  CD2       22.9170  -38.1740  -15.6320 C.3    15  LEU15       0.0001
     32  N         15.4370  -39.9700   -4.2130 N.3    37  LEU37      -0.1231
     33  CA        15.7650  -38.6820   -3.6040 C.3    37  LEU37       0.1693
     34  C         16.1810  -37.6560   -4.6360 C.2    37  LEU37       0.2593
     35  O         17.0960  -37.9020   -5.4250 O.2    37  LEU37      -0.2718
     36  CB        16.9340  -38.8440   -2.6430 C.3    37  LEU37       0.0284
     37  CG        17.5860  -37.5910   -2.0540 C.3    37  LEU37       0.0019
     38  CD1       16.6580  -36.9110   -1.0210 C.3    37  LEU37       0.0001
     39  CD2       18.9220  -37.9460   -1.4270 C.3    37  LEU37       0.0001
     40  N         15.5280  -36.4940   -4.6090 N.am   38  THR38      -0.1939
     41  CA        15.9860  -35.3600   -5.3790 C.3    38  THR38       0.2028
     42  C         16.4220  -34.2790   -4.4280 C.2    38  THR38       0.2642
     43  O         15.7880  -34.0350   -3.3620 O.2    38  THR38      -0.2714
     44  CB        14.9490  -34.8740   -6.4320 C.3    38  THR38       0.1808
     45  OG1       15.5910  -34.0400   -7.4020 O.3    38  THR38      -0.2208
     46  CG2       13.7950  -34.0950   -5.8230 C.3    38  THR38       0.0379
     47  N         17.5160  -33.6270   -4.7980 N.am   39  VAL39      -0.1977
     48  CA        18.1030  -32.5920   -3.9540 C.3    39  VAL39       0.1596
     49  C         18.0730  -31.2620   -4.6560 C.2    39  VAL39       0.2287
     50  O         18.5220  -31.1390   -5.8050 O.2    39  VAL39      -0.2864
     51  CB        19.5480  -32.9180   -3.5540 C.3    39  VAL39       0.0276
     52  CG1       20.0340  -31.9130   -2.4890 C.3    39  VAL39       0.0022
     53  CG2       19.6030  -34.3450   -3.0520 C.3    39  VAL39       0.0022
     54  N         19.5610  -27.8600   -4.9870 N.3    41  PRO41      -0.2116
     55  CA        20.8870  -27.4730   -4.5210 C.3    41  PRO41       0.1372
     56  C         20.9900  -26.0930   -3.9040 C.2    41  PRO41       0.2244
     57  O         20.3020  -25.1620   -4.3030 O.2    41  PRO41      -0.2868
     58  CB        21.7950  -27.6780   -5.7530 C.3    41  PRO41       0.0268
     59  CG        20.9030  -27.7800   -6.9300 C.3    41  PRO41       0.0207
     60  CD        19.4690  -27.9270   -6.4600 C.3    41  PRO41       0.0892
     61  N         23.9930  -32.0310   -3.5720 N.3    93  PRO93      -0.2116
     62  CA        23.4630  -33.3320   -3.9130 C.3    93  PRO93       0.1372
     63  C         24.2490  -34.4630   -3.2960 C.2    93  PRO93       0.2244
     64  O         23.7010  -35.2760   -2.6140 O.2    93  PRO93      -0.2868
     65  CB        23.5390  -33.3600   -5.4590 C.3    93  PRO93       0.0268
     66  CG        23.3680  -31.9380   -5.8300 C.3    93  PRO93       0.0207
     67  CD        24.1470  -31.1760   -4.7690 C.3    93  PRO93       0.0892
     68  N         22.6220  -37.0800   -0.5860 N.3    97  ILE97      -0.1245
     69  CA        22.6370  -38.4720   -1.0050 C.3    97  ILE97       0.1561
     70  C         23.3800  -39.3620   -0.0020 C.2    97  ILE97       0.2260
     71  O         22.8940  -40.4070    0.3900 O.2    97  ILE97      -0.2867
     72  CB        23.2540  -38.6470   -2.4100 C.3    97  ILE97       0.0252
     73  CG1       22.3690  -38.0070   -3.4800 C.3    97  ILE97       0.0019
     74  CG2       23.5140  -40.1240   -2.7020 C.3    97  ILE97       0.0019
     75  CD1       22.9530  -37.8750   -4.8920 C.3    97  ILE97       0.0001
     76  N         23.1360  -44.8580   -9.3880 N.3   111  ILE111     -0.1231
     77  CA        23.3420  -43.5200   -9.9450 C.3   111  ILE111      0.1692
     78  C         23.8480  -43.5770  -11.3690 C.2   111  ILE111      0.2591
     79  O         24.5110  -44.5330  -11.7490 O.2   111  ILE111     -0.2718
     80  CB        24.3680  -42.7370   -9.1530 C.3   111  ILE111      0.0266
     81  CG1       25.5930  -43.5770   -8.7890 C.3   111  ILE111      0.0019
     82  CG2       23.7910  -42.2540   -7.8530 C.3   111  ILE111      0.0020
     83  CD1       26.7560  -42.6980   -8.5330 C.3   111  ILE111      0.0001
     84  N         23.5500  -42.5570  -12.1670 N.am  112  ALA112     -0.1980
     85  CA        24.1470  -42.4330  -13.4850 C.3   112  ALA112      0.1597
     86  C         25.5810  -41.8220  -13.3530 C.2   112  ALA112      0.2287
     87  O         25.9040  -41.1710  -12.3560 O.2   112  ALA112     -0.2864
     88  CB        23.2770  -41.6550  -14.3890 C.3   112  ALA112      0.0319
     89  N         27.0710  -39.5370  -15.2570 N.3   114  HIS114     -0.1226
     90  CA        27.1190  -38.0920  -15.5400 C.3   114  HIS114      0.1752
     91  C         26.0010  -37.7420  -16.4770 C.2   114  HIS114      0.2595
     92  O         25.3740  -38.6260  -17.0540 O.2   114  HIS114     -0.2718
     93  CB        28.4410  -37.6700  -16.1910 C.3   114  HIS114      0.0759
     94  CG        28.7380  -38.3460  -17.5020 C.ar  114  HIS114      0.0818
     95  ND1       28.2600  -37.8850  -18.7070 N.ar  114  HIS114     -0.2268
     96  CD2       29.3950  -39.4930  -17.7790 C.ar  114  HIS114      0.1154
     97  CE1       28.6830  -38.6780  -19.6770 C.ar  114  HIS114      0.1986
     98  NE2       29.3660  -39.6610  -19.1370 N.ar  114  HIS114     -0.2212
     99  N         25.8290  -36.4450  -16.7360 N.am  115  ARG115     -0.1980
    100  CA        24.9010  -36.0200  -17.7820 C.3   115  ARG115      0.1597
    101  C         25.2990  -36.3760  -19.1910 C.2   115  ARG115      0.2287
    102  O         26.4090  -36.0500  -19.6310 O.2   115  ARG115     -0.2864
    103  CB        24.6820  -34.5100  -17.7120 C.3   115  ARG115      0.0334
    104  CG        23.5850  -34.1470  -16.7530 C.3   115  ARG115      0.0492
    105  CD        23.3570  -32.6560  -16.7690 C.3   115  ARG115      0.2205
    106  NE        24.3490  -32.0290  -15.9160 N.pl3 115  ARG115     -0.0865
    107  CZ        24.9320  -30.8610  -16.1540 C.cat 115  ARG115      0.5346
    108  NH1       24.6140  -30.1370  -17.2240 N.pl3 115  ARG115      0.1354
    109  NH2       25.8260  -30.3940  -15.2910 N.pl3 115  ARG115      0.1354
    110  N         27.1340  -33.8880  -21.8780 N.3   118  ILE118     -0.1245
    111  CA        28.5220  -33.5120  -21.6230 C.3   118  ILE118      0.1561
    112  C         29.3890  -34.7830  -21.5090 C.2   118  ILE118      0.2260
    113  O         29.1610  -35.6260  -20.6470 O.2   118  ILE118     -0.2867
    114  CB        28.6280  -32.5270  -20.4340 C.3   118  ILE118      0.0252
    115  CG1       30.0890  -32.3330  -19.9780 C.3   118  ILE118      0.0019
    116  CG2       27.6730  -32.9030  -19.3160 C.3   118  ILE118      0.0019
    117  CD1       30.9970  -31.7350  -21.0340 C.3   118  ILE118      0.0001
    118  N         30.6350  -37.5310  -13.1870 N.3   124  GLY124     -0.1210
    119  CA        30.1460  -36.2520  -12.6650 C.3   124  GLY124      0.1956
    120  C         30.5480  -36.0700  -11.2190 C.2   124  GLY124      0.2613
    121  O         30.8780  -37.0470  -10.5450 O.2   124  GLY124     -0.2717
    122  N         30.5530  -34.8100  -10.7690 N.am  125  SER125     -0.1938
    123  CA        30.9730  -34.5300   -9.4180 C.3   125  SER125      0.2055
    124  C         30.2090  -35.2820   -8.3330 C.2   125  SER125      0.2643
    125  O         30.8300  -35.7540   -7.3730 O.2   125  SER125     -0.2714
    126  CB        30.9810  -33.0330   -9.1510 C.3   125  SER125      0.2130
    127  OG        29.6830  -32.5080   -9.2160 O.3   125  SER125     -0.2179
    128  N         28.9090  -35.5050   -8.5140 N.am  126  ASN126     -0.1957
    129  CA        28.1260  -36.1980   -7.4910 C.3   126  ASN126      0.1819
    130  C         28.3360  -37.7180   -7.5290 C.2   126  ASN126      0.2621
    131  O         28.5470  -38.3510   -6.5220 O.2   126  ASN126     -0.2715
    132  CB        26.6630  -35.7320   -7.6460 C.3   126  ASN126      0.1195
    133  CG        26.5660  -34.2540   -7.3800 C.2   126  ASN126      0.2630
    134  OD1       26.8660  -33.8310   -6.2580 O.2   126  ASN126     -0.2716
    135  ND2       26.2460  -33.4490   -8.3970 N.am  126  ASN126     -0.0877
    136  N         28.3870  -38.2610   -8.7330 N.am  127  ALA127     -0.1977
    137  CA        28.6290  -39.6280   -8.9270 C.3   127  ALA127      0.1597
    138  C         29.9820  -39.9780   -8.3700 C.2   127  ALA127      0.2287
    139  O         30.1290  -41.0200   -7.6970 O.2   127  ALA127     -0.2864
    140  CB        28.5760  -39.9720  -10.3940 C.3   127  ALA127      0.0319
@<TRIPOS>BOND
     1   110   111    1
     2   111   112    1
     3   111   114    1
     4   112   113    2
     5   117   115    1
     6   114   115    1
     7   114   116    1
     8    97    98   ar
     9    97    95   ar
    10   102   101    2
    11   101   100    1
    12    98    96   ar
    13    95    94   ar
    14   100   103    1
    15   100    99    1
    16    96    94   ar
    17   103   104    1
    18    94    93    1
    19    24    25    1
    20   108   107    1
    21    92    91    2
    22   105   104    1
    23   105   106    1
    24    99    91   am
    25    91    90    1
    26    93    90    1
    27   107   106    2
    28   107   109    1
    29    25    26    1
    30    25    28    1
    31    31    29    1
    32    90    89    1
    33    26    27    2
    34    29    28    1
    35    29    30    1
    36    88    85    1
    37    85    86    1
    38    85    84    1
    39    86    87    2
    40   118   119    1
    41    19    18    2
    42   119   120    1
    43    84    78   am
    44    23    21   ar
    45    79    78    2
    46    22    21   ar
    47    18    17    1
    48    21    20    1
    49    78    77    1
    50    20    17    1
    51   120   122   am
    52   120   121    2
    53   122   123    1
    54    17    16    1
    55    14    12    1
    56    15    13    1
    57   140   137    1
    58    16    10   am
    59    77    76    1
    60    77    80    1
    61   123   126    1
    62   123   124    1
    63    12    13    1
    64    12     9    1
    65    10     9    1
    66    10    11    2
    67   127   126    1
    68     9     8    1
    69    80    81    1
    70    80    82    1
    71   137   136    1
    72   137   138    1
    73    81    83    1
    74     4     3    2
    75   136   130   am
    76   128   124   am
    77   128   129    1
    78   135   133   am
    79   138   139    2
    80   124   125    2
    81     8     3   am
    82     3     2    1
    83   132   129    1
    84   132   133    1
    85   130   129    1
    86   130   131    2
    87    45    44    1
    88   133   134    2
    89    59    60    1
    90    59    58    1
    91    60    54    1
    92    44    46    1
    93    44    41    1
    94     2     1    1
    95     2     5    1
    96     1     7    1
    97     7     6    1
    98     5     6    1
    99    66    65    1
   100    66    67    1
   101    50    49    2
   102    58    55    1
   103    65    62    1
   104    35    34    2
   105    41    40    1
   106    41    42    1
   107    54    55    1
   108    75    73    1
   109    47    42   am
   110    47    48    1
   111    67    61    1
   112    49    48    1
   113    34    40   am
   114    34    33    1
   115    55    56    1
   116    42    43    2
   117    57    56    2
   118    32    33    1
   119    48    51    1
   120    62    61    1
   121    62    63    1
   122    33    36    1
   123    51    53    1
   124    51    52    1
   125    73    72    1
   126    63    64    2
   127    74    72    1
   128    36    37    1
   129    72    69    1
   130    37    39    1
   131    37    38    1
   132    69    68    1
   133    69    70    1
   134    70    71    2
