@<TRIPOS>MOLECULE
tmp/4r2mA00.pdb
 181 174 0 0 0
SMALL
GASTEIGER

@<TRIPOS>ATOM
      1  N        -29.0760   -7.4260    3.8840 N.3     7  PRO7       -0.2102
      2  CA       -27.6440   -7.4300    3.5980 C.3     7  PRO7        0.1504
      3  C        -27.3650   -6.9010    2.2180 C.2     7  PRO7        0.2576
      4  O        -28.0170   -7.3160    1.2560 O.2     7  PRO7       -0.2718
      5  CB       -27.2760   -8.9150    3.6700 C.3     7  PRO7        0.0282
      6  CG       -28.4870   -9.6350    4.1910 C.3     7  PRO7        0.0208
      7  CD       -29.6400   -8.7840    3.8320 C.3     7  PRO7        0.0893
      8  N        -26.3970   -5.9920    2.1210 N.am    8  ILE8       -0.1966
      9  CA       -26.0180   -5.3820    0.8780 C.3     8  ILE8        0.1727
     10  C        -24.5340   -5.5670    0.6500 C.2     8  ILE8        0.2616
     11  O        -23.7050   -5.1930    1.5060 O.2     8  ILE8       -0.2715
     12  CB       -26.3240   -3.8750    0.9210 C.3     8  ILE8        0.0290
     13  CG1      -27.8160   -3.6320    1.1300 C.3     8  ILE8        0.0022
     14  CG2      -25.8380   -3.1490   -0.3360 C.3     8  ILE8        0.0023
     15  CD1      -28.6880   -3.9520   -0.0760 C.3     8  ILE8        0.0001
     16  N        -24.2070   -6.1290   -0.5070 N.am    9  ASP9       -0.1971
     17  CA       -22.8790   -6.0840   -1.0320 C.3     9  ASP9        0.1709
     18  C        -22.8030   -4.8040   -1.8730 C.2     9  ASP9        0.2293
     19  O        -23.4390   -4.6980   -2.9190 O.2     9  ASP9       -0.2864
     20  CB       -22.6060   -7.3170   -1.8800 C.3     9  ASP9        0.1436
     21  CG       -21.1580   -7.4190   -2.3250 C.2     9  ASP9        0.3671
     22  OD1      -20.4620   -6.3840   -2.4410 O.co2   9  ASP9       -0.2456
     23  OD2      -20.7170   -8.5660   -2.5480 O.co2   9  ASP9       -0.2456
     24  N        -22.4550   -4.7530   -5.7200 N.3    12  ASP12      -0.1239
     25  CA       -23.4860   -5.3780   -6.5580 C.3    12  ASP12       0.1674
     26  C        -24.5430   -4.3410   -6.9350 C.2    12  ASP12       0.2266
     27  O        -25.1490   -3.7440   -6.0700 O.2    12  ASP12      -0.2867
     28  CB       -24.1510   -6.5650   -5.8220 C.3    12  ASP12       0.1410
     29  CG       -23.3180   -7.8680   -5.8750 C.2    12  ASP12       0.3668
     30  OD1      -22.2170   -7.8640   -6.4650 O.co2  12  ASP12      -0.2456
     31  OD2      -23.7740   -8.9110   -5.3260 O.co2  12  ASP12      -0.2456
     32  N        -28.2580   -6.9760   -8.2470 N.3    15  LEU15      -0.1245
     33  CA       -28.8520   -7.6180   -7.0930 C.3    15  LEU15       0.1561
     34  C        -29.6660   -6.6050   -6.2840 C.2    15  LEU15       0.2260
     35  O        -30.8420   -6.8540   -5.9590 O.2    15  LEU15      -0.2867
     36  CB       -27.7770   -8.2980   -6.2300 C.3    15  LEU15       0.0270
     37  CG       -27.1540   -9.5660   -6.8560 C.3    15  LEU15       0.0019
     38  CD1      -26.3630  -10.3430   -5.8230 C.3    15  LEU15       0.0001
     39  CD2      -28.2030  -10.4630   -7.5180 C.3    15  LEU15       0.0001
     40  N        -27.1350   -3.9080    6.1870 N.3    37  LEU37      -0.1231
     41  CA       -25.8480   -4.3400    6.7030 C.3    37  LEU37       0.1693
     42  C        -24.9520   -4.6430    5.5440 C.2    37  LEU37       0.2593
     43  O        -25.3190   -5.4260    4.6490 O.2    37  LEU37      -0.2718
     44  CB       -25.9550   -5.6200    7.4910 C.3    37  LEU37       0.0284
     45  CG       -24.6280   -6.2340    7.9380 C.3    37  LEU37       0.0019
     46  CD1      -23.8810   -5.3610    8.9240 C.3    37  LEU37       0.0001
     47  CD2      -24.9350   -7.5900    8.5440 C.3    37  LEU37       0.0001
     48  N        -23.7680   -4.0410    5.5730 N.am   38  THR38      -0.1939
     49  CA       -22.7610   -4.3770    4.6020 C.3    38  THR38       0.2028
     50  C        -21.5190   -4.7900    5.3310 C.2    38  THR38       0.2642
     51  O        -21.1610   -4.1780    6.3360 O.2    38  THR38      -0.2714
     52  CB       -22.4850   -3.2260    3.6290 C.3    38  THR38       0.1808
     53  OG1      -21.7580   -3.7430    2.5210 O.3    38  THR38      -0.2208
     54  CG2      -21.7390   -2.1230    4.2730 C.3    38  THR38       0.0379
     55  N        -20.8590   -5.8250    4.8280 N.am   39  VAL39      -0.1977
     56  CA       -19.7530   -6.4020    5.5490 C.3    39  VAL39       0.1596
     57  C        -18.5160   -6.3850    4.6830 C.2    39  VAL39       0.2287
     58  O        -18.4950   -6.9720    3.5910 O.2    39  VAL39      -0.2864
     59  CB       -20.0350   -7.8470    5.9940 C.3    39  VAL39       0.0276
     60  CG1      -18.8820   -8.3670    6.8450 C.3    39  VAL39       0.0022
     61  CG2      -21.3640   -7.9310    6.7450 C.3    39  VAL39       0.0022
     62  N        -15.3320   -7.9000    3.8050 N.3    41  PRO41      -0.2116
     63  CA       -14.8310   -9.2580    3.9580 C.3    41  PRO41       0.1372
     64  C        -13.4040   -9.2380    4.4820 C.2    41  PRO41       0.2244
     65  O        -12.6320   -8.3890    4.0720 O.2    41  PRO41      -0.2868
     66  CB       -14.8490   -9.8190    2.5230 C.3    41  PRO41       0.0268
     67  CG       -15.6020   -8.8360    1.7060 C.3    41  PRO41       0.0207
     68  CD       -15.5050   -7.5300    2.3900 C.3    41  PRO41       0.0892
     69  N        -18.9270  -12.2220    5.6390 N.3    93  PRO93      -0.2116
     70  CA       -20.2500  -11.6730    5.4720 C.3    93  PRO93       0.1372
     71  C        -21.3730  -12.5600    5.9970 C.2    93  PRO93       0.2244
     72  O        -22.2310  -12.0850    6.7260 O.2    93  PRO93      -0.2868
     73  CB       -20.3770  -11.5120    3.9500 C.3    93  PRO93       0.0268
     74  CG       -18.9790  -11.2830    3.5060 C.3    93  PRO93       0.0207
     75  CD       -18.1930  -12.2280    4.3610 C.3    93  PRO93       0.0892
     76  N        -23.8700  -11.3800    8.9170 N.3    97  ILE97      -0.1245
     77  CA       -25.2840  -11.3070    8.5930 C.3    97  ILE97       0.1561
     78  C        -26.0660  -12.1000    9.6020 C.2    97  ILE97       0.2260
     79  O        -27.0520  -11.6000   10.1650 O.2    97  ILE97      -0.2867
     80  CB       -25.5900  -11.8240    7.1700 C.3    97  ILE97       0.0252
     81  CG1      -25.0180  -10.8710    6.1290 C.3    97  ILE97       0.0019
     82  CG2      -27.0760  -11.9720    6.9400 C.3    97  ILE97       0.0019
     83  CD1      -24.8000  -11.5050    4.7630 C.3    97  ILE97       0.0001
     84  N        -32.5750  -11.2610    0.8790 N.3   111  ILE111     -0.1231
     85  CA       -31.2540  -11.4530    0.3290 C.3   111  ILE111      0.1692
     86  C        -31.3580  -11.9680   -1.0970 C.2   111  ILE111      0.2592
     87  O        -32.1710  -12.8370   -1.4150 O.2   111  ILE111     -0.2718
     88  CB       -30.4460  -12.3940    1.2700 C.3   111  ILE111      0.0266
     89  CG1      -28.9630  -12.4390    0.8930 C.3   111  ILE111      0.0019
     90  CG2      -31.0650  -13.7790    1.3450 C.3   111  ILE111      0.0020
     91  CD1      -28.1050  -13.1170    1.9480 C.3   111  ILE111      0.0001
     92  N        -30.5420  -11.4190   -1.9830 N.am  112  ALA112     -0.1966
     93  CA       -30.5580  -11.8790   -3.3540 C.3   112  ALA112      0.1728
     94  C        -29.8530  -13.2470   -3.4260 C.2   112  ALA112      0.2617
     95  O        -29.0160  -13.5550   -2.6200 O.2   112  ALA112     -0.2715
     96  CB       -29.9160  -10.8430   -4.2580 C.3   112  ALA112      0.0334
     97  N        -30.2280  -14.0820   -4.3830 N.am  113  SER113     -0.1936
     98  CA       -29.6960  -15.4240   -4.4590 C.3   113  SER113      0.2055
     99  C        -28.2030  -15.4800   -4.7620 C.2   113  SER113      0.2643
    100  O        -27.4490  -16.2210   -4.1110 O.2   113  SER113     -0.2714
    101  CB       -30.4180  -16.2060   -5.5190 C.3   113  SER113      0.2130
    102  OG       -30.4770  -15.4930   -6.7440 O.3   113  SER113     -0.2179
    103  N        -27.7960  -14.6910   -5.7390 N.am  114  HIS114     -0.1959
    104  CA       -26.5000  -14.8550   -6.3830 C.3   114  HIS114      0.1787
    105  C        -26.4560  -13.8160   -7.4960 C.2   114  HIS114      0.2620
    106  O        -27.4690  -13.5320   -8.1610 O.2   114  HIS114     -0.2715
    107  CB       -26.4120  -16.2670   -6.9770 C.3   114  HIS114      0.0785
    108  CG       -25.1210  -16.5810   -7.6550 C.ar  114  HIS114      0.0821
    109  ND1      -24.7580  -16.0400   -8.8730 N.ar  114  HIS114     -0.2267
    110  CD2      -24.1250  -17.4450   -7.3220 C.ar  114  HIS114      0.1154
    111  CE1      -23.5780  -16.5180   -9.2400 C.ar  114  HIS114      0.1986
    112  NE2      -23.1740  -17.3730   -8.3160 N.ar  114  HIS114     -0.2212
    113  N        -25.2990  -13.2620   -7.7440 N.am  115  ARG115     -0.1977
    114  CA       -25.2130  -12.3170   -8.8440 C.3   115  ARG115      0.1597
    115  C        -25.6030  -12.9970  -10.1630 C.2   115  ARG115      0.2287
    116  O        -25.3840  -14.1780  -10.3390 O.2   115  ARG115     -0.2864
    117  CB       -23.8340  -11.6230   -8.8770 C.3   115  ARG115      0.0334
    118  CG       -22.6610  -12.3510   -9.5040 C.3   115  ARG115      0.0492
    119  CD       -21.3810  -11.4740   -9.4530 C.3   115  ARG115      0.2205
    120  NE       -21.2310  -10.7980   -8.1390 N.pl3 115  ARG115     -0.0865
    121  CZ       -20.6060  -11.3000   -7.0710 C.cat 115  ARG115      0.5346
    122  NH1      -19.9800  -12.4740   -7.1190 N.pl3 115  ARG115      0.1354
    123  NH2      -20.5760  -10.5980   -5.9520 N.pl3 115  ARG115      0.1354
    124  N        -25.0970  -14.3260  -13.6270 N.3   117  ASP117     -0.1239
    125  CA       -23.8660  -14.7130  -14.2750 C.3   117  ASP117      0.1674
    126  C        -24.1850  -15.7790  -15.2840 C.2   117  ASP117      0.2266
    127  O        -25.3070  -16.2430  -15.3460 O.2   117  ASP117     -0.2867
    128  CB       -22.9340  -15.3050  -13.2250 C.3   117  ASP117      0.1410
    129  CG       -21.5040  -15.1320  -13.5810 C.2   117  ASP117      0.3668
    130  OD1      -21.1540  -15.1880  -14.8010 O.co2 117  ASP117     -0.2456
    131  OD2      -20.7400  -14.9240  -12.6170 O.co2 117  ASP117     -0.2456
    132  N        -22.3800  -18.7160  -15.2760 N.3   119  THR119     -0.1218
    133  CA       -22.2300  -19.9690  -14.5370 C.3   119  THR119      0.1862
    134  C        -23.6200  -20.5190  -14.1300 C.2   119  THR119      0.2287
    135  O        -24.5900  -19.7560  -14.0820 O.2   119  THR119     -0.2866
    136  CB       -21.3660  -19.7520  -13.2850 C.3   119  THR119      0.1770
    137  OG1      -21.8670  -18.6540  -12.5210 O.3   119  THR119     -0.2211
    138  CG2      -19.9390  -19.4400  -13.6910 C.3   119  THR119      0.0375
    139  N        -24.6670  -21.6420  -11.0680 N.3   121  TYR121     -0.1241
    140  CA       -24.8810  -21.5030   -9.6330 C.3   121  TYR121      0.1605
    141  C        -26.3110  -21.7580   -9.1890 C.2   121  TYR121      0.2264
    142  O        -27.2210  -21.6260   -9.9920 O.2   121  TYR121     -0.2867
    143  CB       -24.6050  -20.0460   -9.2920 C.3   121  TYR121      0.0534
    144  CG       -25.4290  -19.0580  -10.1330 C.ar  121  TYR121     -0.0201
    145  CD1      -26.7010  -18.6380   -9.7210 C.ar  121  TYR121     -0.0009
    146  CD2      -24.9240  -18.5390  -11.3170 C.ar  121  TYR121     -0.0009
    147  CE1      -27.4270  -17.7340  -10.4630 C.ar  121  TYR121      0.0417
    148  CE2      -25.6540  -17.6440  -12.0760 C.ar  121  TYR121      0.0417
    149  CZ       -26.8980  -17.2430  -11.6430 C.ar  121  TYR121      0.1957
    150  OH       -27.6060  -16.3460  -12.3990 O.3   121  TYR121     -0.2866
    151  N        -27.2970  -20.9560   -5.2780 N.3   123  LEU123     -0.1231
    152  CA       -27.1540  -19.7910   -4.4340 C.3   123  LEU123      0.1693
    153  C        -25.7200  -19.3460   -4.2890 C.2   123  LEU123      0.2593
    154  O        -24.8260  -20.1380   -4.3510 O.2   123  LEU123     -0.2718
    155  CB       -27.6700  -20.0910   -3.0220 C.3   123  LEU123      0.0284
    156  CG       -29.1120  -20.5160   -2.8770 C.3   123  LEU123      0.0019
    157  CD1      -29.4670  -20.8080   -1.4230 C.3   123  LEU123      0.0001
    158  CD2      -30.0020  -19.4400   -3.4230 C.3   123  LEU123      0.0001
    159  N        -25.5030  -18.0790   -3.9970 N.am  124  GLY124     -0.1942
    160  CA       -24.1810  -17.6290   -3.6570 C.3   124  GLY124      0.2014
    161  C        -23.6780  -18.1830   -2.3410 C.2   124  GLY124      0.2640
    162  O        -24.4400  -18.7370   -1.5550 O.2   124  GLY124     -0.2714
    163  N        -22.3900  -18.0060   -2.1020 N.am  125  SER125     -0.1935
    164  CA       -21.7340  -18.4630   -0.8700 C.3   125  SER125      0.2055
    165  C        -22.4760  -17.9640    0.3900 C.2   125  SER125      0.2643
    166  O        -22.7640  -18.7290    1.3270 O.2   125  SER125     -0.2714
    167  CB       -20.2710  -17.9840   -0.8670 C.3   125  SER125      0.2130
    168  OG       -19.6280  -18.3190   -2.1160 O.3   125  SER125     -0.2179
    169  N        -22.8780  -16.7030    0.3700 N.am  126  ASN126     -0.1957
    170  CA       -23.4590  -16.1080    1.5470 C.3   126  ASN126      0.1819
    171  C        -24.9560  -16.3160    1.6100 C.2   126  ASN126      0.2621
    172  O        -25.4900  -16.6020    2.6910 O.2   126  ASN126     -0.2715
    173  CB       -23.0580  -14.6260    1.6300 C.3   126  ASN126      0.1195
    174  CG       -21.5620  -14.4650    1.8280 C.2   126  ASN126      0.2630
    175  OD1      -21.0280  -14.8370    2.8780 O.2   126  ASN126     -0.2716
    176  ND2      -20.8720  -14.0060    0.7990 N.am  126  ASN126     -0.0877
    177  N        -25.6400  -16.2090    0.4710 N.am  127  ALA127     -0.1977
    178  CA       -27.0660  -16.4780    0.4890 C.3   127  ALA127      0.1597
    179  C        -27.3680  -17.8870    1.0310 C.2   127  ALA127      0.2287
    180  O        -28.2680  -18.0630    1.8460 O.2   127  ALA127     -0.2864
    181  CB       -27.6720  -16.2960   -0.8980 C.3   127  ALA127      0.0319
@<TRIPOS>BOND
     1   127   126    2
     2   126   125    1
     3   132   133    1
     4   130   129   ar
     5   133   134    1
     6   133   136    1
     7   125   124    1
     8   125   128    1
     9   134   135    2
    10   138   136    1
    11   129   128    1
    12   129   131   ar
    13   136   137    1
    14   150   149    1
    15   148   149   ar
    16   148   146   ar
    17   149   147   ar
    18   146   144   ar
    19   139   140    1
    20   147   145   ar
    21   116   115    2
    22   115   114    1
    23   144   145   ar
    24   144   143    1
    25   142   141    2
    26   140   143    1
    27   140   141    1
    28   118   119    1
    29   118   117    1
    30   119   120    1
    31   111   109   ar
    32   111   112   ar
    33   117   114    1
    34   109   108   ar
    35   114   113    1
    36   112   110   ar
    37    32    33    1
    38   106   105    2
    39   120   121    2
    40   113   105   am
    41   108   110   ar
    42   108   107    1
    43    39    37    1
    44   105   104    1
    45   122   121    1
    46    33    34    1
    47    33    36    1
    48   121   123    1
    49   107   104    1
    50    26    25    1
    51    26    27    2
    52    37    36    1
    53    37    38    1
    54   102   101    1
    55    25    28    1
    56    25    24    1
    57    30    29   ar
    58   104   103    1
    59    34    35    2
    60    29    28    1
    61    29    31   ar
    62   103    99   am
    63   101    98    1
    64   151   152    1
    65    99    98    1
    66    99   100    2
    67    98    97    1
    68   152   153    1
    69   152   155    1
    70    97    94   am
    71   154   153    2
    72   153   159   am
    73    96    93    1
    74   159   160    1
    75   160   161    1
    76    94    93    1
    77    94    95    2
    78   158   156    1
    79    93    92    1
    80   155   156    1
    81    19    18    2
    82   156   157    1
    83    23    21   ar
    84    22    21   ar
    85   161   163   am
    86   161   162    2
    87    21    20    1
    88   168   167    1
    89   163   164    1
    90    92    86   am
    91    20    17    1
    92    18    17    1
    93    87    86    2
    94    86    85    1
    95    17    16    1
    96   181   178    1
    97   164   167    1
    98   164   165    1
    99    16    10   am
   100    14    12    1
   101    15    13    1
   102    85    84    1
   103    85    88    1
   104   169   165   am
   105   169   170    1
   106   165   166    2
   107   177   178    1
   108   177   171   am
   109   178   179    1
   110    10     9    1
   111    10    11    2
   112   176   174   am
   113     9    12    1
   114     9     8    1
   115    89    88    1
   116    89    91    1
   117    12    13    1
   118   179   180    2
   119     4     3    2
   120    88    90    1
   121   170   171    1
   122   170   173    1
   123   171   172    2
   124   173   174    1
   125    67    68    1
   126    67    66    1
   127   174   175    2
   128     8     3   am
   129     3     2    1
   130    68    62    1
   131    53    52    1
   132    66    63    1
   133    74    73    1
   134    74    75    1
   135    58    57    2
   136     2     5    1
   137     2     1    1
   138    52    54    1
   139    52    49    1
   140     5     6    1
   141    62    63    1
   142     7     1    1
   143     7     6    1
   144    73    70    1
   145    63    64    1
   146    65    64    2
   147    75    69    1
   148    49    50    1
   149    49    48    1
   150    43    42    2
   151    57    56    1
   152    83    81    1
   153    55    50   am
   154    55    56    1
   155    50    51    2
   156    70    69    1
   157    70    71    1
   158    42    48   am
   159    42    41    1
   160    56    59    1
   161    59    61    1
   162    59    60    1
   163    71    72    2
   164    81    80    1
   165    40    41    1
   166    41    44    1
   167    82    80    1
   168    80    77    1
   169    44    45    1
   170    45    47    1
   171    45    46    1
   172    77    76    1
   173    77    78    1
   174    78    79    2
