@<TRIPOS>MOLECULE
tmp/4r2nB01.pdb
 128 121 0 0 0
SMALL
GASTEIGER

@<TRIPOS>ATOM
      1  N          8.2470  349.3230  -20.1260 N.3    15  TYR15      -0.1241
      2  CA         8.1180  348.0220  -19.4910 C.3    15  TYR15       0.1605
      3  C          9.0210  347.0220  -20.2100 C.2    15  TYR15       0.2264
      4  O          8.7560  346.6430  -21.3560 O.2    15  TYR15      -0.2867
      5  CB         6.6710  347.5150  -19.5000 C.3    15  TYR15       0.0534
      6  CG         6.5620  346.0910  -18.9880 C.ar   15  TYR15      -0.0201
      7  CD1        6.5000  345.0150  -19.8670 C.ar   15  TYR15      -0.0009
      8  CD2        6.5640  345.8200  -17.6220 C.ar   15  TYR15      -0.0009
      9  CE1        6.4300  343.7120  -19.4030 C.ar   15  TYR15       0.0417
     10  CE2        6.4850  344.5180  -17.1460 C.ar   15  TYR15       0.0417
     11  CZ         6.4190  343.4680  -18.0390 C.ar   15  TYR15       0.1957
     12  OH         6.3440  342.1750  -17.5740 O.3    15  TYR15      -0.2866
     13  N          8.0360  335.2370  -12.0710 N.3    28  ALA28      -0.1231
     14  CA         8.3050  336.6490  -12.3490 C.3    28  ALA28       0.1694
     15  C          7.1120  337.4490  -12.8650 C.2    28  ALA28       0.2593
     16  O          7.2720  338.6170  -13.1720 O.2    28  ALA28      -0.2718
     17  CB         9.4570  336.7690  -13.3300 C.3    28  ALA28       0.0304
     18  N          5.9320  336.8360  -12.9630 N.am   29  SER29      -0.1938
     19  CA         4.7820  337.5130  -13.5650 C.3    29  SER29       0.2055
     20  C          3.4780  337.3730  -12.8070 C.2    29  SER29       0.2643
     21  O          2.4210  337.6810  -13.3470 O.2    29  SER29      -0.2714
     22  CB         4.5650  337.0260  -14.9970 C.3    29  SER29       0.2130
     23  OG         5.7080  337.2820  -15.7620 O.3    29  SER29      -0.2179
     24  N          3.5490  336.9380  -11.5570 N.am   30  ASN30      -0.1971
     25  CA         2.3690  336.8350  -10.7050 C.3    30  ASN30       0.1688
     26  C          1.2290  335.9990  -11.2960 C.2    30  ASN30       0.2292
     27  O          0.0560  336.2460  -11.0040 O.2    30  ASN30      -0.2864
     28  CB         1.8550  338.2310  -10.3350 C.3    30  ASN30       0.1181
     29  CG         2.8620  339.0420   -9.5440 C.2    30  ASN30       0.2629
     30  OD1        2.7320  340.2630   -9.4380 O.2    30  ASN30      -0.2716
     31  ND2        3.8640  338.3760   -8.9820 N.am   30  ASN30      -0.0877
     32  N         -4.3990  346.9840  -17.2450 N.3    86  VAL86      -0.1245
     33  CA        -3.3480  347.9070  -17.7160 C.3    86  VAL86       0.1561
     34  C         -3.8940  348.9340  -18.7330 C.2    86  VAL86       0.2260
     35  O         -3.4410  350.0860  -18.7810 O.2    86  VAL86      -0.2867
     36  CB        -2.1270  347.1520  -18.2710 C.3    86  VAL86       0.0252
     37  CG1       -2.4800  346.3640  -19.5310 C.3    86  VAL86       0.0019
     38  CG2       -0.9830  348.1130  -18.5280 C.3    86  VAL86       0.0019
     39  N          3.1880  350.2640   -9.3660 N.3   110  PHE110     -0.1227
     40  CA         3.0240  349.6690  -10.6940 C.3   110  PHE110      0.1736
     41  C          3.8640  350.4060  -11.7380 C.2   110  PHE110      0.2595
     42  O          3.7480  351.6210  -11.9350 O.2   110  PHE110     -0.2718
     43  CB         1.5460  349.6140  -11.0860 C.3   110  PHE110      0.0547
     44  CG         1.2560  348.7610  -12.3000 C.ar  110  PHE110     -0.0202
     45  CD1        1.8250  347.5030  -12.4480 C.ar  110  PHE110     -0.0042
     46  CD2        0.3850  349.2140  -13.2790 C.ar  110  PHE110     -0.0042
     47  CE1        1.5340  346.7190  -13.5470 C.ar  110  PHE110     -0.0003
     48  CE2        0.0930  348.4310  -14.3890 C.ar  110  PHE110     -0.0003
     49  CZ         0.6740  347.1870  -14.5220 C.ar  110  PHE110     -0.0000
     50  N          4.7450  349.6540  -12.3830 N.am  111  GLU111     -0.1965
     51  CA         5.7760  350.2420  -13.2310 C.3   111  GLU111      0.1733
     52  C          5.1860  351.0050  -14.4040 C.2   111  GLU111      0.2616
     53  O          5.8670  351.8170  -15.0230 O.2   111  GLU111     -0.2715
     54  CB         6.7590  349.1700  -13.7140 C.3   111  GLU111      0.0429
     55  CG         6.1440  348.1070  -14.6070 C.3   111  GLU111      0.1163
     56  CD         6.5460  346.6950  -14.2020 C.2   111  GLU111      0.3649
     57  OE1        5.6980  345.9930  -13.6030 O.co2 111  GLU111     -0.2457
     58  OE2        7.7020  346.2910  -14.4640 O.co2 111  GLU111     -0.2457
     59  N          3.9170  350.7620  -14.7080 N.am  112  LEU112     -0.1977
     60  CA         3.2890  351.4400  -15.8260 C.3   112  LEU112      0.1596
     61  C          2.6420  352.7820  -15.5190 C.2   112  LEU112      0.2287
     62  O          2.2600  353.4760  -16.4500 O.2   112  LEU112     -0.2864
     63  CB         2.2940  350.5150  -16.5380 C.3   112  LEU112      0.0297
     64  CG         3.0150  349.8250  -17.6970 C.3   112  LEU112      0.0022
     65  CD1        3.6910  348.5380  -17.2530 C.3   112  LEU112      0.0001
     66  CD2        2.0910  349.6020  -18.8790 C.3   112  LEU112      0.0001
     67  N          2.0400  346.5520   -6.0470 N.3   157  ASN157     -0.1240
     68  CA         3.0170  345.9070   -6.9100 C.3   157  ASN157      0.1653
     69  C          4.1320  346.9270   -7.1280 C.2   157  ASN157      0.2266
     70  O          3.8720  347.9970   -7.6690 O.2   157  ASN157     -0.2867
     71  CB         2.3480  345.5520   -8.2400 C.3   157  ASN157      0.1155
     72  CG         3.3250  345.0480   -9.2860 C.2   157  ASN157      0.2627
     73  OD1        4.4890  344.8010   -9.0070 O.2   157  ASN157     -0.2716
     74  ND2        2.8410  344.8940  -10.5040 N.am  157  ASN157     -0.0877
     75  N         -4.7410  342.4310   -6.9190 N.3   187  TYR187     -0.1241
     76  CA        -4.4560  341.2910   -6.0450 C.3   187  TYR187      0.1605
     77  C         -5.3900  341.1920   -4.8470 C.2   187  TYR187      0.2264
     78  O         -5.0640  340.5210   -3.8640 O.2   187  TYR187     -0.2867
     79  CB        -3.0030  341.3580   -5.5670 C.3   187  TYR187      0.0534
     80  CG        -2.0240  341.4750   -6.7020 C.ar  187  TYR187     -0.0201
     81  CD1       -1.6130  340.3540   -7.4110 C.ar  187  TYR187     -0.0009
     82  CD2       -1.5240  342.7120   -7.0820 C.ar  187  TYR187     -0.0009
     83  CE1       -0.7160  340.4660   -8.4580 C.ar  187  TYR187      0.0417
     84  CE2       -0.6390  342.8320   -8.1330 C.ar  187  TYR187      0.0417
     85  CZ        -0.2380  341.7110   -8.8180 C.ar  187  TYR187      0.1957
     86  OH         0.6420  341.8420   -9.8570 O.3   187  TYR187     -0.2866
     87  N         -5.2460  337.1260  -12.7460 N.3   217  LYS217     -0.1245
     88  CA        -4.5050  336.4620  -11.6920 C.3   217  LYS217      0.1561
     89  C         -5.3420  335.3940  -11.0100 C.2   217  LYS217      0.2260
     90  O         -5.2170  334.2200  -11.3610 O.2   217  LYS217     -0.2867
     91  CB        -3.9100  337.5040  -10.7520 C.3   217  LYS217      0.0271
     92  CG        -3.3460  338.6740  -11.5510 C.3   217  LYS217      0.0035
     93  CD        -2.0580  339.2250  -10.9920 C.3   217  LYS217      0.0206
     94  CE        -1.3090  340.0380  -12.0360 C.3   217  LYS217      0.1093
     95  NZ        -1.9920  341.3370  -12.2980 N.3   217  LYS217     -0.1314
     96  N         -6.5530  338.8560  -21.5530 N.3   225  ARG225     -0.1245
     97  CA        -6.5580  340.3290  -21.4280 C.3   225  ARG225      0.1563
     98  C         -7.9520  340.9200  -21.1480 C.2   225  ARG225      0.2260
     99  O         -8.5610  341.5870  -22.0020 O.2   225  ARG225     -0.2867
    100  CB        -5.9470  340.9710  -22.6850 C.3   225  ARG225      0.0307
    101  CG        -4.7380  340.2390  -23.2730 C.3   225  ARG225      0.0489
    102  CD        -3.6420  339.9670  -22.2540 C.3   225  ARG225      0.2205
    103  NE        -3.2570  341.1940  -21.5560 N.pl3 225  ARG225     -0.0865
    104  CZ        -3.2460  341.3590  -20.2380 C.cat 225  ARG225      0.5346
    105  NH1       -3.5630  340.3690  -19.4150 N.pl3 225  ARG225      0.1354
    106  NH2       -2.9060  342.5450  -19.7390 N.pl3 225  ARG225      0.1354
    107  N         11.6350  338.5900  -10.8610 N.3   322  ARG322     -0.1245
    108  CA        11.6520  339.9100  -11.4830 C.3   322  ARG322      0.1563
    109  C         12.4480  340.9640  -10.7030 C.2   322  ARG322      0.2260
    110  O         12.1270  341.2630   -9.5560 O.2   322  ARG322     -0.2867
    111  CB        10.2290  340.4100  -11.7140 C.3   322  ARG322      0.0307
    112  CG        10.1970  341.7180  -12.4830 C.3   322  ARG322      0.0489
    113  CD         8.8250  342.0540  -13.0250 C.3   322  ARG322      0.2205
    114  NE         8.8670  343.2910  -13.8020 N.pl3 322  ARG322     -0.0865
    115  CZ         9.3650  343.3920  -15.0330 C.cat 322  ARG322      0.5346
    116  NH1        9.8720  342.3270  -15.6560 N.pl3 322  ARG322      0.1354
    117  NH2        9.3650  344.5650  -15.6490 N.pl3 322  ARG322      0.1354
    118  N         10.9460  340.8170   -6.9270 N.3   330  ARG330     -0.1245
    119  CA         9.5710  340.3830   -6.6700 C.3   330  ARG330      0.1563
    120  C          9.4940  338.9230   -7.0710 C.2   330  ARG330      0.2260
    121  O          9.8680  338.5650   -8.1930 O.2   330  ARG330     -0.2867
    122  CB         8.5550  341.2230   -7.4530 C.3   330  ARG330      0.0307
    123  CG         7.1000  340.9650   -7.0450 C.3   330  ARG330      0.0489
    124  CD         6.1020  341.6010   -8.0120 C.3   330  ARG330      0.2205
    125  NE         6.1330  340.9370   -9.3110 N.pl3 330  ARG330     -0.0865
    126  CZ         5.6910  341.4430  -10.4580 C.cat 330  ARG330      0.5346
    127  NH1        5.1630  342.6600  -10.5170 N.pl3 330  ARG330      0.1354
    128  NH2        5.7910  340.7100  -11.5700 N.pl3 330  ARG330      0.1354
@<TRIPOS>BOND
     1   101   100    1
     2   101   102    1
     3   100    97    1
     4   102   103    1
     5    99    98    2
     6   103   104    2
     7    96    97    1
     8    97    98    1
     9     4     3    2
    10   104   106    1
    11   104   105    1
    12     3     2    1
    13     1     2    1
    14     7     9   ar
    15     7     6   ar
    16    37    36    1
    17     5     2    1
    18     5     6    1
    19     9    11   ar
    20     6     8   ar
    21    66    64    1
    22    35    34    2
    23    34    33    1
    24    38    36    1
    25    36    33    1
    26    11    12    1
    27    11    10   ar
    28    33    32    1
    29    64    65    1
    30    64    63    1
    31     8    10   ar
    32    63    60    1
    33    62    61    2
    34    60    61    1
    35    60    59    1
    36    23    22    1
    37   116   115    1
    38   117   115    1
    39   115   114    2
    40    53    52    2
    41    22    19    1
    42    59    52   am
    43    55    56    1
    44    55    54    1
    45    49    48   ar
    46    49    47   ar
    47    58    56   ar
    48    52    51    1
    49    48    46   ar
    50    56    57   ar
    51   114   113    1
    52    54    51    1
    53    19    18    1
    54    19    20    1
    55    47    45   ar
    56    21    20    2
    57    17    14    1
    58    46    44   ar
    59    51    50    1
    60    16    15    2
    61   113   112    1
    62    18    15   am
    63    15    14    1
    64    20    24   am
    65    87    88    1
    66   112   111    1
    67    45    44   ar
    68    50    41   am
    69    14    13    1
    70    44    43    1
    71    95    94    1
    72    94    93    1
    73    42    41    2
    74    41    40    1
    75   111   108    1
    76    88    89    1
    77    88    91    1
    78   128   126    1
    79    24    25    1
    80    92    93    1
    81    92    91    1
    82   108   107    1
    83   108   109    1
    84    90    89    2
    85    26    27    2
    86    26    25    1
    87    43    40    1
    88    25    28    1
    89   109   110    2
    90    40    39    1
    91   127   126    1
    92    74    72   am
    93   126   125    2
    94    28    29    1
    95    86    85    1
    96    29    30    2
    97    29    31   am
    98   125   124    1
    99    72    73    2
   100    72    71    1
   101    85    83   ar
   102    85    84   ar
   103    83    81   ar
   104    71    68    1
   105   121   120    2
   106    84    82   ar
   107   124   123    1
   108    70    69    2
   109   122   123    1
   110   122   119    1
   111    81    80   ar
   112    69    68    1
   113    82    80   ar
   114   120   119    1
   115   118   119    1
   116    75    76    1
   117    68    67    1
   118    80    79    1
   119    76    79    1
   120    76    77    1
   121    77    78    2
