@<TRIPOS>MOLECULE
tmp/4r2pA00.pdb
 132 124 0 0 0
SMALL
GASTEIGER

@<TRIPOS>ATOM
      1  N        202.7620   89.8540  123.3790 N.3    18  ARG18      -0.1245
      2  CA       202.0190   90.9580  123.9570 C.3    18  ARG18       0.1563
      3  C        200.5190   90.8240  123.7440 C.2    18  ARG18       0.2260
      4  O        200.0690   90.4960  122.6360 O.2    18  ARG18      -0.2867
      5  CB       202.4810   92.2810  123.3320 C.3    18  ARG18       0.0307
      6  CG       203.8690   92.6980  123.7610 C.3    18  ARG18       0.0489
      7  CD       204.4310   93.7370  122.8000 C.3    18  ARG18       0.2205
      8  NE       203.5550   94.8990  122.6460 N.pl3  18  ARG18      -0.0865
      9  CZ       203.9410   96.0620  122.1170 C.cat  18  ARG18       0.5346
     10  NH1      205.2010   96.2360  121.7090 N.pl3  18  ARG18       0.1354
     11  NH2      203.0650   97.0570  122.0090 N.pl3  18  ARG18       0.1354
     12  N        198.3130   93.1720  123.6870 N.3    20  ASP20      -0.1225
     13  CA       197.7550   94.1910  122.8000 C.3    20  ASP20       0.1805
     14  C        198.0260   93.8100  121.3450 C.2    20  ASP20       0.2597
     15  O        197.2420   94.1500  120.4560 O.2    20  ASP20      -0.2718
     16  CB       198.2950   95.6130  123.1210 C.3    20  ASP20       0.1424
     17  CG       199.8220   95.7000  123.2260 C.2    20  ASP20       0.3668
     18  OD1      200.4880   94.7230  123.6240 O.co2  20  ASP20      -0.2456
     19  OD2      200.3520   96.8010  122.9300 O.co2  20  ASP20      -0.2456
     20  N        199.1290   93.1050  121.1140 N.am   21  GLN21      -0.1979
     21  CA       199.4460   92.6710  119.7660 C.3    21  GLN21       0.1601
     22  C        198.3940   91.6520  119.3040 C.2    21  GLN21       0.2287
     23  O        197.9370   91.6660  118.1620 O.2    21  GLN21      -0.2864
     24  CB       200.8400   92.0730  119.7230 C.3    21  GLN21       0.0394
     25  CG       201.2940   91.6910  118.3160 C.3    21  GLN21       0.0908
     26  CD       201.7160   92.8850  117.4470 C.2    21  GLN21       0.2608
     27  OE1      201.6040   94.0490  117.8510 O.2    21  GLN21      -0.2717
     28  NE2      202.2350   92.5860  116.2520 N.am   21  GLN21      -0.0878
     29  N        195.3450   91.4320  120.4340 N.3    23  LYS23      -0.1231
     30  CA       194.0620   92.1150  120.3010 C.3    23  LYS23       0.1693
     31  C        193.9910   92.7710  118.9130 C.2    23  LYS23       0.2591
     32  O        192.9800   92.6860  118.2340 O.2    23  LYS23      -0.2718
     33  CB       193.8860   93.1540  121.4090 C.3    23  LYS23       0.0285
     34  CG       192.5370   93.8770  121.3600 C.3    23  LYS23       0.0035
     35  CD       192.3520   94.9100  122.4880 C.3    23  LYS23       0.0206
     36  CE       190.9160   95.4810  122.4610 C.3    23  LYS23       0.1093
     37  NZ       190.7370   96.7230  123.2720 N.3    23  LYS23      -0.1314
     38  N        195.0790   93.4060  118.4900 N.am   24  ARG24      -0.1980
     39  CA       195.0910   94.0530  117.1710 C.3    24  ARG24       0.1597
     40  C        194.9410   93.0150  116.0840 C.2    24  ARG24       0.2287
     41  O        194.1680   93.2010  115.1320 O.2    24  ARG24      -0.2864
     42  CB       196.4010   94.8550  116.9910 C.3    24  ARG24       0.0334
     43  CG       196.4400   95.6800  115.7050 C.3    24  ARG24       0.0492
     44  CD       197.7270   96.4990  115.6200 C.3    24  ARG24       0.2205
     45  NE       198.8800   95.6270  115.4000 N.pl3  24  ARG24      -0.0865
     46  CZ       200.1100   96.0590  115.1300 C.cat  24  ARG24       0.5346
     47  NH1      200.3600   97.3610  115.0690 N.pl3  24  ARG24       0.1354
     48  NH2      201.0840   95.1790  114.9470 N.pl3  24  ARG24       0.1354
     49  N        191.4530   91.6050  115.1390 N.3    27  ARG27      -0.1245
     50  CA       190.5270   92.4120  114.3320 C.3    27  ARG27       0.1563
     51  C        190.5480   91.9350  112.8780 C.2    27  ARG27       0.2260
     52  O        189.6020   92.1950  112.1410 O.2    27  ARG27      -0.2867
     53  CB       190.8450   93.9200  114.4480 C.3    27  ARG27       0.0307
     54  CG       190.6900   94.3570  115.9280 C.3    27  ARG27       0.0489
     55  CD       190.4300   95.8120  116.1710 C.3    27  ARG27       0.2205
     56  NE       191.6160   96.6130  115.9560 N.pl3  27  ARG27      -0.0865
     57  CZ       192.4200   97.0630  116.9150 C.cat  27  ARG27       0.5346
     58  NH1      192.1970   96.7960  118.1960 N.pl3  27  ARG27       0.1354
     59  NH2      193.4760   97.7850  116.5800 N.pl3  27  ARG27       0.1354
     60  N        188.6510  102.7360  114.2190 N.3    35  PHE35      -0.1241
     61  CA       189.1620  104.0850  113.9380 C.3    35  PHE35       0.1605
     62  C        188.5610  104.6530  112.6500 C.2    35  PHE35       0.2264
     63  O        188.7650  104.1000  111.5710 O.2    35  PHE35      -0.2867
     64  CB       190.6880  104.0340  113.8760 C.3    35  PHE35       0.0534
     65  CG       191.2950  103.3580  115.0820 C.ar   35  PHE35      -0.0203
     66  CD1      191.6420  102.0160  115.0410 C.ar   35  PHE35      -0.0042
     67  CD2      191.4480  104.0550  116.2750 C.ar   35  PHE35      -0.0042
     68  CE1      192.1780  101.3800  116.1570 C.ar   35  PHE35      -0.0003
     69  CE2      191.9860  103.4280  117.4070 C.ar   35  PHE35      -0.0003
     70  CZ       192.3430  102.0910  117.3550 C.ar   35  PHE35      -0.0000
     71  N        193.1910   99.9230  112.4260 N.3    46  ARG46      -0.1231
     72  CA       194.3600  100.3790  113.1870 C.3    46  ARG46       0.1694
     73  C        194.5420  101.9030  113.1650 C.2    46  ARG46       0.2593
     74  O        194.2580  102.5870  112.1680 O.2    46  ARG46      -0.2718
     75  CB       195.6250   99.7070  112.6480 C.3    46  ARG46       0.0321
     76  CG       195.7710   98.2380  113.0300 C.3    46  ARG46       0.0489
     77  CD       196.8190   97.5250  112.1940 C.3    46  ARG46       0.2205
     78  NE       198.0860   98.2410  112.1550 N.pl3  46  ARG46      -0.0865
     79  CZ       199.2670   97.6740  111.9220 C.cat  46  ARG46       0.5346
     80  NH1      199.3800   96.3570  111.7710 N.pl3  46  ARG46       0.1354
     81  NH2      200.3510   98.4290  111.8700 N.pl3  46  ARG46       0.1354
     82  N        195.0440  102.4260  114.2700 N.am   47  SER47      -0.1938
     83  CA       195.1770  103.8640  114.4640 C.3    47  SER47       0.2055
     84  C        196.2410  104.4550  113.5430 C.2    47  SER47       0.2643
     85  O        196.0710  105.5580  113.0140 O.2    47  SER47      -0.2714
     86  CB       195.5550  104.1440  115.9170 C.3    47  SER47       0.2130
     87  OG       196.7690  103.4560  116.1810 O.3    47  SER47      -0.2179
     88  N        197.3490  103.7310  113.3640 N.am   48  ASP48      -0.1971
     89  CA       198.4090  104.2490  112.5430 C.3    48  ASP48       0.1709
     90  C        197.9830  104.3050  111.0880 C.2    48  ASP48       0.2293
     91  O        198.3900  105.2100  110.3660 O.2    48  ASP48      -0.2864
     92  CB       199.7120  103.4380  112.6970 C.3    48  ASP48       0.1436
     93  CG       199.5460  101.9390  112.4730 C.2    48  ASP48       0.3671
     94  OD1      198.4910  101.3600  112.7880 O.co2  48  ASP48      -0.2456
     95  OD2      200.5020  101.3160  111.9750 O.co2  48  ASP48      -0.2456
     96  N        195.8630  107.2730  110.4770 N.3    51  LYS51      -0.1245
     97  CA       196.7160  108.4530  110.3970 C.3    51  LYS51       0.1561
     98  C        197.3150  108.6370  109.0020 C.2    51  LYS51       0.2260
     99  O        197.3170  109.7400  108.4480 O.2    51  LYS51      -0.2867
    100  CB       197.8400  108.3830  111.4500 C.3    51  LYS51       0.0271
    101  CG       198.6560  109.6760  111.5460 C.3    51  LYS51       0.0035
    102  CD       199.8320  109.5640  112.5240 C.3    51  LYS51       0.0206
    103  CE       200.5990  110.8940  112.5900 C.3    51  LYS51       0.1093
    104  NZ       202.0540  110.7100  112.9330 N.3    51  LYS51      -0.1314
    105  N        196.3190  111.5690  105.3040 N.3    55  ARG55      -0.1245
    106  CA       197.1790  112.3470  104.4270 C.3    55  ARG55       0.1563
    107  C        196.7380  112.3040  102.9830 C.2    55  ARG55       0.2260
    108  O        197.1640  113.1340  102.1760 O.2    55  ARG55      -0.2867
    109  CB       198.6180  111.8260  104.5160 C.3    55  ARG55       0.0307
    110  CG       199.2190  112.0730  105.8860 C.3    55  ARG55       0.0489
    111  CD       200.6990  111.6320  105.9380 C.3    55  ARG55       0.2205
    112  NE       201.1870  111.9680  107.2500 N.pl3  55  ARG55      -0.0865
    113  CZ       202.1290  111.3170  107.9100 C.cat  55  ARG55       0.5346
    114  NH1      202.7530  110.2750  107.3540 N.pl3  55  ARG55       0.1354
    115  NH2      202.4570  111.7380  109.1240 N.pl3  55  ARG55       0.1354
    116  N        207.8280  112.7020  103.6150 N.3    63  PHE63      -0.1241
    117  CA       209.0390  111.9440  103.2810 C.3    63  PHE63       0.1605
    118  C        209.6080  112.3020  101.9370 C.2    63  PHE63       0.2264
    119  O        209.1220  111.8260  100.9070 O.2    63  PHE63      -0.2867
    120  CB       208.7410  110.4620  103.3460 C.3    63  PHE63       0.0534
    121  CG       208.3420  110.0280  104.7140 C.ar   63  PHE63      -0.0203
    122  CD1      207.0090  110.0260  105.0840 C.ar   63  PHE63      -0.0042
    123  CD2      209.2980  109.7070  105.6470 C.ar   63  PHE63      -0.0042
    124  CE1      206.6190  109.6750  106.3620 C.ar   63  PHE63      -0.0003
    125  CE2      208.9250  109.3290  106.9240 C.ar   63  PHE63      -0.0003
    126  CZ       207.5640  109.3130  107.2800 C.ar   63  PHE63      -0.0000
    127  N        206.8020  106.4770  104.8480 N.3    77  SER77      -0.1217
    128  CA       208.2110  106.1210  104.7980 C.3    77  SER77       0.1889
    129  C        208.4920  104.9800  103.8220 C.2    77  SER77       0.2288
    130  O        209.5280  104.9820  103.1430 O.2    77  SER77      -0.2866
    131  CB       208.6930  105.7420  106.1960 C.3    77  SER77       0.2089
    132  OG       207.9490  104.6240  106.6530 O.3    77  SER77      -0.2183
@<TRIPOS>BOND
     1   119   118    2
     2   118   117    1
     3   108   107    2
     4   107   106    1
     5   130   129    2
     6   117   120    1
     7   117   116    1
     8   120   121    1
     9   129   128    1
    10   106   109    1
    11   106   105    1
    12   109   110    1
    13   121   122   ar
    14   121   123   ar
    15   128   127    1
    16   128   131    1
    17   122   124   ar
    18   123   125   ar
    19   110   111    1
    20   111   112    1
    21   131   132    1
    22   124   126   ar
    23   125   126   ar
    24   112   113    2
    25   114   113    1
    26   113   115    1
    27    99    98    2
    28    98    97    1
    29    91    90    2
    30    97    96    1
    31    97   100    1
    32    90    89    1
    33   100   101    1
    34   101   102    1
    35    63    62    2
    36    80    79    1
    37    81    79    1
    38    79    78    2
    39    95    93   ar
    40    52    51    2
    41    78    77    1
    42    74    73    2
    43    77    76    1
    44    71    72    1
    45    93    92    1
    46    93    94   ar
    47   102   103    1
    48    89    92    1
    49    89    88    1
    50   103   104    1
    51    75    76    1
    52    75    72    1
    53    62    61    1
    54    51    50    1
    55    85    84    2
    56    73    72    1
    57    73    82   am
    58    88    84   am
    59    84    83    1
    60    64    61    1
    61    64    65    1
    62    61    60    1
    63    82    83    1
    64    50    53    1
    65    50    49    1
    66    53    54    1
    67    83    86    1
    68    48    46    1
    69    66    65   ar
    70    66    68   ar
    71    47    46    1
    72    65    67   ar
    73    46    45    2
    74    41    40    2
    75    45    44    1
    76    44    43    1
    77    43    42    1
    78    86    87    1
    79    54    55    1
    80    56    55    1
    81    56    57    2
    82    40    39    1
    83    68    70   ar
    84    28    26   am
    85    67    69   ar
    86    59    57    1
    87    57    58    1
    88    42    39    1
    89    39    38    1
    90    70    69   ar
    91    26    27    2
    92    26    25    1
    93    23    22    2
    94    32    31    2
    95    25    24    1
    96    38    31   am
    97    31    30    1
    98    22    21    1
    99    24    21    1
   100    21    20    1
   101    30    29    1
   102    30    33    1
   103    15    14    2
   104    20    14   am
   105    14    13    1
   106    34    33    1
   107    34    35    1
   108    10     9    1
   109    11     9    1
   110     9     8    2
   111    36    35    1
   112    36    37    1
   113     4     3    2
   114     8     7    1
   115    13    16    1
   116    13    12    1
   117     7     6    1
   118    19    17   ar
   119    16    17    1
   120    17    18   ar
   121     5     6    1
   122     5     2    1
   123     1     2    1
   124     3     2    1
