@<TRIPOS>MOLECULE
tmp/4r2wF00.pdb
 143 135 0 0 0
SMALL
GASTEIGER

@<TRIPOS>ATOM
      1  N        -11.8010   49.9870   44.5900 N.3    23  GLY23      -0.1225
      2  CA       -11.2950   50.1610   45.9640 C.3    23  GLY23       0.1811
      3  C        -12.3480   50.1880   47.0580 C.2    23  GLY23       0.2280
      4  O        -12.1360   49.6470   48.1550 O.2    23  GLY23      -0.2866
      5  N         -8.5730   49.9270   50.4930 N.3    66  ILE66      -0.1245
      6  CA        -7.3630   50.7250   50.2220 C.3    66  ILE66       0.1561
      7  C         -6.0810   49.9740   50.5420 C.2    66  ILE66       0.2260
      8  O         -5.9490   49.4470   51.6710 O.2    66  ILE66      -0.2867
      9  CB        -7.3960   52.0950   50.9590 C.3    66  ILE66       0.0252
     10  CG1       -8.6170   52.8470   50.4680 C.3    66  ILE66       0.0019
     11  CG2       -6.0650   52.8110   50.7650 C.3    66  ILE66       0.0019
     12  CD1       -8.7630   54.2600   51.0730 C.3    66  ILE66       0.0001
     13  N         -9.2060   46.7350   37.6150 N.3    88  ARG88      -0.1245
     14  CA        -9.3600   47.6570   38.7420 C.3    88  ARG88       0.1563
     15  C         -9.9960   48.9560   38.2320 C.2    88  ARG88       0.2260
     16  O         -9.6440   49.4140   37.1410 O.2    88  ARG88      -0.2867
     17  CB        -8.0260   47.9830   39.3790 C.3    88  ARG88       0.0307
     18  CG        -8.0880   49.1160   40.4360 C.3    88  ARG88       0.0489
     19  CD        -6.8090   49.3130   41.2470 C.3    88  ARG88       0.2205
     20  NE        -6.6280   50.7510   41.5850 N.pl3  88  ARG88      -0.0865
     21  CZ        -7.4520   51.4640   42.3550 C.cat  88  ARG88       0.5346
     22  NH1       -8.5450   50.9150   42.9520 N.pl3  88  ARG88       0.1354
     23  NH2       -7.2090   52.7920   42.4820 N.pl3  88  ARG88       0.1354
     24  N        -10.0350   55.8850   41.8250 N.3    91  THR91      -0.1203
     25  CA        -9.9450   57.3580   41.8640 C.3    91  THR91       0.1994
     26  C         -8.4740   57.6790   41.9780 C.2    91  THR91       0.2619
     27  O         -7.6850   56.8510   42.3790 O.2    91  THR91      -0.2717
     28  CB       -10.7220   57.9650   43.0630 C.3    91  THR91       0.1784
     29  OG1      -10.4090   57.3250   44.3340 O.3    91  THR91      -0.2211
     30  CG2      -12.2190   57.8450   42.7700 C.3    91  THR91       0.0376
     31  N         -8.0830   58.9110   41.6790 N.am   92  THR92      -0.1938
     32  CA        -6.6670   59.1800   41.5370 C.3    92  THR92       0.2028
     33  C         -6.4190   60.6750   41.6020 C.2    92  THR92       0.2642
     34  O         -7.3340   61.4690   41.3290 O.2    92  THR92      -0.2714
     35  CB        -6.0470   58.6010   40.2250 C.3    92  THR92       0.1808
     36  OG1       -4.6360   58.8220   40.1970 O.3    92  THR92      -0.2208
     37  CG2       -6.7000   59.2250   38.9360 C.3    92  THR92       0.0379
     38  N         -5.2130   61.0230   42.0400 N.am   93  GLY93      -0.1954
     39  CA        -4.7530   62.4110   42.0630 C.3    93  GLY93       0.1869
     40  C         -3.7880   62.6310   40.9000 C.2    93  GLY93       0.2309
     41  O         -2.7170   62.0240   40.8300 O.2    93  GLY93      -0.2863
     42  N         -1.4060   57.5930   51.7120 N.3   159  PHE159     -0.1241
     43  CA        -2.1570   58.6990   51.0640 C.3   159  PHE159      0.1605
     44  C         -1.4280   60.0220   51.3770 C.2   159  PHE159      0.2264
     45  O         -1.4390   60.9630   50.5260 O.2   159  PHE159     -0.2867
     46  CB        -3.5800   58.7810   51.6240 C.3   159  PHE159      0.0534
     47  CG        -4.4470   59.8180   50.9480 C.ar  159  PHE159     -0.0203
     48  CD1       -5.0770   59.5450   49.7330 C.ar  159  PHE159     -0.0042
     49  CD2       -4.5740   61.0880   51.5120 C.ar  159  PHE159     -0.0042
     50  CE1       -5.8670   60.5030   49.0850 C.ar  159  PHE159     -0.0003
     51  CE2       -5.3650   62.0540   50.8930 C.ar  159  PHE159     -0.0003
     52  CZ        -6.0090   61.7760   49.6650 C.ar  159  PHE159     -0.0000
     53  N          2.7840   60.3420   49.1100 N.3   163  GLN163     -0.1245
     54  CA         2.2740   61.2100   47.9990 C.3   163  GLN163      0.1566
     55  C          2.6680   62.6870   48.2670 C.2   163  GLN163      0.2260
     56  O          2.1230   63.6220   47.6260 O.2   163  GLN163     -0.2867
     57  CB         0.7770   61.0330   47.7620 C.3   163  GLN163      0.0367
     58  CG         0.3470   59.5270   47.6570 C.3   163  GLN163      0.0905
     59  CD        -1.1060   59.4020   47.1820 C.2   163  GLN163      0.2608
     60  OE1       -1.6930   60.3340   46.6380 O.2   163  GLN163     -0.2717
     61  NE2       -1.6910   58.2310   47.3430 N.am  163  GLN163     -0.0878
     62  N          2.1950   64.8160   50.5830 N.3   165  ARG165     -0.1245
     63  CA         1.2110   65.7540   51.1590 C.3   165  ARG165      0.1563
     64  C          1.7760   66.3520   52.4590 C.2   165  ARG165      0.2260
     65  O          2.3530   65.6500   53.2910 O.2   165  ARG165     -0.2867
     66  CB        -0.1430   65.1110   51.3380 C.3   165  ARG165      0.0307
     67  CG        -0.9410   64.9060   50.0720 C.3   165  ARG165      0.0489
     68  CD        -2.3120   64.3270   50.4610 C.3   165  ARG165      0.2205
     69  NE        -3.3280   64.3780   49.3690 N.pl3 165  ARG165     -0.0865
     70  CZ        -3.5360   63.4470   48.4150 C.cat 165  ARG165      0.5346
     71  NH1       -2.8840   62.3010   48.4240 N.pl3 165  ARG165      0.1354
     72  NH2       -4.4990   63.5840   47.5300 N.pl3 165  ARG165      0.1354
     73  N         -1.0250   59.5970   41.1440 N.3   192  TYR192     -0.1227
     74  CA        -0.9080   58.7500   42.3480 C.3   192  TYR192      0.1736
     75  C         -2.1770   57.9770   42.5710 C.2   192  TYR192      0.2595
     76  O         -3.2800   58.5320   42.5210 O.2   192  TYR192     -0.2718
     77  CB        -0.7690   59.6460   43.5750 C.3   192  TYR192      0.0548
     78  CG         0.5990   60.2470   43.8410 C.ar  192  TYR192     -0.0200
     79  CD1        1.7130   59.4440   44.1650 C.ar  192  TYR192     -0.0009
     80  CD2        0.7980   61.6870   43.8220 C.ar  192  TYR192     -0.0009
     81  CE1        2.9450   59.9900   44.4400 C.ar  192  TYR192      0.0417
     82  CE2        2.0470   62.2200   44.1150 C.ar  192  TYR192      0.0417
     83  CZ         3.1050   61.4020   44.4250 C.ar  192  TYR192      0.1957
     84  OH         4.3560   61.9030   44.7340 O.3   192  TYR192     -0.2866
     85  N         -2.0520   56.6750   42.8750 N.am  193  GLU193     -0.1965
     86  CA        -3.1370   55.9380   43.5450 C.3   193  GLU193      0.1733
     87  C         -2.5040   54.8680   44.4590 C.2   193  GLU193      0.2616
     88  O         -1.3230   54.9610   44.7490 O.2   193  GLU193     -0.2715
     89  CB        -4.1290   55.3230   42.5540 C.3   193  GLU193      0.0429
     90  CG        -3.4650   54.5030   41.4780 C.3   193  GLU193      0.1163
     91  CD        -3.1490   53.0510   41.9050 C.2   193  GLU193      0.3649
     92  OE1       -1.9940   52.7570   42.1440 O.co2 193  GLU193     -0.2457
     93  OE2       -4.1170   52.3580   42.1420 O.co2 193  GLU193     -0.2457
     94  N         -3.2860   53.8970   44.9630 N.am  194  MET194     -0.1963
     95  CA        -2.7520   53.0850   46.1150 C.3   194  MET194      0.1736
     96  C         -2.9110   51.5830   45.9540 C.2   194  MET194      0.2616
     97  O         -2.6600   50.8630   46.9420 O.2   194  MET194     -0.2715
     98  CB        -3.3300   53.4660   47.4640 C.3   194  MET194      0.0427
     99  CG        -3.0210   54.9340   47.8010 C.3   194  MET194      0.0599
    100  SD        -3.6390   55.6160   49.3210 S.3   194  MET194     -0.1393
    101  CE        -2.8140   54.5260   50.4910 C.3   194  MET194      0.0692
    102  N         -3.2900   51.1320   44.7620 N.am  195  GLU195     -0.1977
    103  CA        -3.4160   49.6390   44.5570 C.3   195  GLU195      0.1602
    104  C         -2.6850   49.0060   43.3580 C.2   195  GLU195      0.2287
    105  O         -2.4160   47.7730   43.3350 O.2   195  GLU195     -0.2864
    106  CB        -4.9050   49.2260   44.5410 C.3   195  GLU195      0.0415
    107  CG        -5.7250   49.5420   45.8090 C.3   195  GLU195      0.1163
    108  CD        -5.9630   51.0560   46.0360 C.2   195  GLU195      0.3649
    109  OE1       -6.2150   51.8050   45.0690 O.co2 195  GLU195     -0.2457
    110  OE2       -5.9830   51.4930   47.1880 O.co2 195  GLU195     -0.2457
    111  N         -9.7660   62.9280   40.5320 N.3   217  ILE217     -0.1231
    112  CA       -10.6000   63.6740   41.5190 C.3   217  ILE217      0.1692
    113  C         -9.9240   64.9590   42.0950 C.2   217  ILE217      0.2591
    114  O        -10.5960   65.7790   42.7840 O.2   217  ILE217     -0.2718
    115  CB       -11.1490   62.7810   42.6840 C.3   217  ILE217      0.0266
    116  CG1      -10.0380   62.2360   43.5950 C.3   217  ILE217      0.0019
    117  CG2      -12.0490   61.6490   42.1400 C.3   217  ILE217      0.0020
    118  CD1      -10.5600   61.4760   44.8130 C.3   217  ILE217      0.0001
    119  N         -8.6200   65.0870   41.8550 N.am  218  VAL218     -0.1980
    120  CA        -7.7920   66.2300   42.3100 C.3   218  VAL218      0.1595
    121  C         -6.5780   66.3900   41.3990 C.2   218  VAL218      0.2287
    122  O         -6.0080   65.3900   40.9060 O.2   218  VAL218     -0.2864
    123  CB        -7.4070   66.1290   43.8150 C.3   218  VAL218      0.0276
    124  CG1       -6.2640   65.1600   44.0510 C.3   218  VAL218      0.0022
    125  CG2       -6.9470   67.4720   44.3650 C.3   218  VAL218      0.0022
    126  N         -2.7920   67.7600   41.8080 N.3   220  ARG220     -0.1245
    127  CA        -1.7990   68.1160   42.8510 C.3   220  ARG220      0.1563
    128  C         -0.9010   69.3530   42.5620 C.2   220  ARG220      0.2260
    129  O         -0.1750   69.8450   43.4320 O.2   220  ARG220     -0.2867
    130  CB        -0.9230   66.8820   43.1280 C.3   220  ARG220      0.0307
    131  CG        -1.7830   65.7610   43.7180 C.3   220  ARG220      0.0489
    132  CD        -2.1670   66.0750   45.1920 C.3   220  ARG220      0.2205
    133  NE        -1.0640   66.5640   46.0430 N.pl3 220  ARG220     -0.0865
    134  CZ        -0.1620   65.7420   46.5830 C.cat 220  ARG220      0.5346
    135  NH1       -0.2930   64.4380   46.2960 N.pl3 220  ARG220      0.1354
    136  NH2        0.8650   66.1830   47.3350 N.pl3 220  ARG220      0.1354
    137  N         -9.1700   66.7560   47.4120 N.3   226  PRO226     -0.2116
    138  CA       -10.2590   66.7590   46.4120 C.3   226  PRO226      0.1372
    139  C        -11.5100   67.4910   46.8940 C.2   226  PRO226      0.2244
    140  O        -11.7160   67.6170   48.1140 O.2   226  PRO226     -0.2868
    141  CB       -10.5630   65.2630   46.2230 C.3   226  PRO226      0.0268
    142  CG        -9.2790   64.5810   46.5920 C.3   226  PRO226      0.0207
    143  CD        -8.7810   65.3720   47.7610 C.3   226  PRO226      0.0892
@<TRIPOS>BOND
     1    16    15    2
     2    13    14    1
     3    15    14    1
     4    14    17    1
     5    37    35    1
     6    17    18    1
     7    36    35    1
     8    35    32    1
     9    18    19    1
    10   111   112    1
    11    41    40    2
    12    40    39    1
    13   122   121    2
    14    73    74    1
    15    19    20    1
    16    34    33    2
    17   121   120    1
    18    90    91    1
    19    90    89    1
    20   112   113    1
    21   112   115    1
    22    32    33    1
    23    32    31    1
    24    20    21    2
    25    33    38   am
    26    31    26   am
    27   126   127    1
    28    24    25    1
    29   119   113   am
    30   119   120    1
    31    25    26    1
    32    25    28    1
    33    91    93   ar
    34    91    92   ar
    35    26    27    2
    36    38    39    1
    37   113   114    2
    38   117   115    1
    39   120   123    1
    40    74    75    1
    41    74    77    1
    42    21    23    1
    43    21    22    1
    44    76    75    2
    45    89    86    1
    46   128   127    1
    47   128   129    2
    48    75    85   am
    49   115   116    1
    50    30    28    1
    51   127   130    1
    52    85    86    1
    53    28    29    1
    54   130   131    1
    55   105   104    2
    56   104   103    1
    57    86    87    1
    58    77    78    1
    59   116   118    1
    60   131   132    1
    61   123   124    1
    62   123   125    1
    63    80    78   ar
    64    80    82   ar
    65    78    79   ar
    66    82    83   ar
    67    79    81   ar
    68    83    81   ar
    69    83    84    1
    70    87    88    2
    71    87    94   am
    72   106   103    1
    73   106   107    1
    74   103   102    1
    75     1     2    1
    76   102    96   am
    77    94    95    1
    78   109   108   ar
    79   132   133    1
    80   107   108    1
    81    96    95    1
    82    96    97    2
    83     2     3    1
    84   108   110   ar
    85   133   134    2
    86    95    98    1
    87   141   138    1
    88   141   142    1
    89   135   134    1
    90   138   139    1
    91   138   137    1
    92   134   136    1
    93   142   143    1
    94    60    59    2
    95   139   140    2
    96     3     4    2
    97    59    61   am
    98    59    58    1
    99   137   143    1
   100    98    99    1
   101    72    70    1
   102    56    55    2
   103    58    57    1
   104    57    54    1
   105    99   100    1
   106    54    55    1
   107    54    53    1
   108    70    71    1
   109    70    69    2
   110    50    52   ar
   111    50    48   ar
   112   100   101    1
   113    69    68    1
   114    52    51   ar
   115    48    47   ar
   116    67    68    1
   117    67    66    1
   118     6     5    1
   119     6     7    1
   120     6     9    1
   121    10     9    1
   122    10    12    1
   123    45    44    2
   124     7     8    2
   125    62    63    1
   126    11     9    1
   127    51    49   ar
   128    47    49   ar
   129    47    46    1
   130    43    44    1
   131    43    46    1
   132    43    42    1
   133    63    66    1
   134    63    64    1
   135    64    65    2
