@<TRIPOS>MOLECULE
tmp/4r32A00.pdb
 112 104 0 0 0
SMALL
GASTEIGER

@<TRIPOS>ATOM
      1  N         49.6140  -73.7540  -12.3190 N.3     3  ARG3       -0.1245
      2  CA        50.5670  -72.6480  -12.4280 C.3     3  ARG3        0.1563
      3  C         50.0120  -71.4630  -13.2130 C.2     3  ARG3        0.2260
      4  O         50.7200  -70.8590  -14.0140 O.2     3  ARG3       -0.2867
      5  CB        51.8700  -73.1340  -13.0690 C.3     3  ARG3        0.0307
      6  CG        51.6730  -73.7880  -14.4480 C.3     3  ARG3        0.0489
      7  CD        53.0000  -74.2600  -15.0710 C.3     3  ARG3        0.2205
      8  NE        53.9580  -73.1720  -15.2810 N.pl3   3  ARG3       -0.0865
      9  CZ        55.2120  -73.3440  -15.6940 C.cat   3  ARG3        0.5346
     10  NH1       55.6690  -74.5630  -15.9470 N.pl3   3  ARG3        0.1354
     11  NH2       56.0140  -72.2970  -15.8500 N.pl3   3  ARG3        0.1354
     12  N         55.5920  -68.6510   -7.6440 N.3     9  TYR9       -0.1241
     13  CA        56.2730  -69.7580   -8.2960 C.3     9  TYR9        0.1605
     14  C         57.1430  -69.2700   -9.4440 C.2     9  TYR9        0.2264
     15  O         58.2280  -69.8000   -9.6850 O.2     9  TYR9       -0.2867
     16  CB        55.2680  -70.7840   -8.8100 C.3     9  TYR9        0.0534
     17  CG        55.9010  -71.8740   -9.6400 C.ar    9  TYR9       -0.0201
     18  CD1       56.4900  -72.9760   -9.0390 C.ar    9  TYR9       -0.0009
     19  CD2       55.9120  -71.7990  -11.0250 C.ar    9  TYR9       -0.0009
     20  CE1       57.0720  -73.9750   -9.7930 C.ar    9  TYR9        0.0417
     21  CE2       56.4900  -72.7920  -11.7880 C.ar    9  TYR9        0.0417
     22  CZ        57.0690  -73.8790  -11.1660 C.ar    9  TYR9        0.1957
     23  OH        57.6470  -74.8740  -11.9210 O.3     9  TYR9       -0.2866
     24  N         60.2890  -67.3270   -8.3290 N.3    12  VAL12      -0.1231
     25  CA        61.2130  -68.3050   -7.7970 C.3    12  VAL12       0.1692
     26  C         62.0330  -68.8380   -8.9350 C.2    12  VAL12       0.2591
     27  O         63.2540  -68.8040   -8.8970 O.2    12  VAL12      -0.2718
     28  CB        60.4950  -69.4620   -7.0830 C.3    12  VAL12       0.0266
     29  CG1       61.3480  -70.7400   -7.1600 C.3    12  VAL12       0.0020
     30  CG2       60.2160  -69.1060   -5.6460 C.3    12  VAL12       0.0020
     31  N         61.3510  -69.3070   -9.9650 N.am   13  MET13      -0.1979
     32  CA        62.0450  -69.8870  -11.0870 C.3    13  MET13       0.1605
     33  C         62.9590  -68.8510  -11.7060 C.2    13  MET13       0.2287
     34  O         64.1180  -69.1270  -12.0380 O.2    13  MET13      -0.2864
     35  CB        61.0430  -70.3980  -12.1180 C.3    13  MET13       0.0413
     36  CG        60.4640  -71.7540  -11.7550 C.3    13  MET13       0.0598
     37  SD        59.7160  -72.6720  -13.1660 S.3    13  MET13      -0.1393
     38  CE        60.7840  -72.1860  -14.5610 C.3    13  MET13       0.0692
     39  N         65.9950  -68.4660   -9.4570 N.3    16  VAL16      -0.1231
     40  CA        66.8140  -69.6610   -9.6210 C.3    16  VAL16       0.1692
     41  C         67.5910  -69.6130  -10.9330 C.2    16  VAL16       0.2591
     42  O         68.7610  -69.9910  -10.9900 O.2    16  VAL16      -0.2718
     43  CB        65.9570  -70.9470   -9.5830 C.3    16  VAL16       0.0266
     44  CG1       66.8060  -72.1700   -9.8880 C.3    16  VAL16       0.0020
     45  CG2       65.2780  -71.1050   -8.2380 C.3    16  VAL16       0.0020
     46  N         66.9410  -69.1330  -11.9850 N.am   17  ARG17      -0.1980
     47  CA        67.6200  -68.9500  -13.2590 C.3    17  ARG17       0.1597
     48  C         68.7700  -67.9720  -13.0820 C.2    17  ARG17       0.2287
     49  O         69.8910  -68.2420  -13.5080 O.2    17  ARG17      -0.2864
     50  CB        66.6540  -68.4430  -14.3340 C.3    17  ARG17       0.0334
     51  CG        67.4100  -68.4350  -15.6940 C.3    17  ARG17       0.0492
     52  CD        66.4270  -68.3050  -16.8420 C.3    17  ARG17       0.2205
     53  NE        65.7140  -67.0410  -16.7090 N.pl3  17  ARG17      -0.0865
     54  CZ        64.4910  -66.8710  -16.2310 C.cat  17  ARG17       0.5346
     55  NH1       63.7200  -67.9130  -15.8800 N.pl3  17  ARG17       0.1354
     56  NH2       64.0260  -65.6460  -15.9970 N.pl3  17  ARG17       0.1354
     57  N         70.5430  -67.1260  -10.5540 N.3    19  VAL19      -0.1231
     58  CA        71.6550  -67.7400   -9.8450 C.3    19  VAL19       0.1692
     59  C         72.4630  -68.6380  -10.7610 C.2    19  VAL19       0.2591
     60  O         73.6880  -68.5570  -10.8220 O.2    19  VAL19      -0.2718
     61  CB        71.1680  -68.5830   -8.6640 C.3    19  VAL19       0.0266
     62  CG1       72.3510  -69.1590   -7.9110 C.3    19  VAL19       0.0020
     63  CG2       70.2930  -67.7540   -7.7530 C.3    19  VAL19       0.0020
     64  N         71.7500  -69.5040  -11.4660 N.am   20  LEU20      -0.1980
     65  CA        72.3620  -70.4430  -12.3840 C.3    20  LEU20       0.1596
     66  C         73.2060  -69.7260  -13.4170 C.2    20  LEU20       0.2287
     67  O         74.3120  -70.1630  -13.7340 O.2    20  LEU20      -0.2864
     68  CB        71.2860  -71.2790  -13.0630 C.3    20  LEU20       0.0297
     69  CG        70.8460  -72.4620  -12.2130 C.3    20  LEU20       0.0022
     70  CD1       69.6530  -73.1670  -12.8340 C.3    20  LEU20       0.0001
     71  CD2       72.0210  -73.4050  -12.0820 C.3    20  LEU20       0.0001
     72  N         76.2730  -68.7260  -11.7490 N.3    23  LYS23      -0.1245
     73  CA        77.0770  -69.9480  -11.5820 C.3    23  LYS23       0.1561
     74  C         77.9240  -70.2770  -12.7980 C.2    23  LYS23       0.2260
     75  O         79.1320  -70.4830  -12.6900 O.2    23  LYS23      -0.2867
     76  CB        76.1990  -71.1600  -11.2700 C.3    23  LYS23       0.0271
     77  CG        76.9070  -72.4770  -11.5440 C.3    23  LYS23       0.0035
     78  CD        76.2300  -73.6430  -10.8950 C.3    23  LYS23       0.0206
     79  CE        77.1110  -74.8600  -10.9590 C.3    23  LYS23       0.1093
     80  NZ        76.6160  -75.9170  -10.0540 N.3    23  LYS23      -0.1314
     81  N         74.2440  -69.9960   -4.1600 N.3   109  HIS109     -0.1241
     82  CA        73.5620  -71.2750   -4.1020 C.3   109  HIS109      0.1621
     83  C         72.6540  -71.3770   -2.8870 C.2   109  HIS109      0.2264
     84  O         71.4650  -71.6400   -3.0210 O.2   109  HIS109     -0.2867
     85  CB        74.5680  -72.4180   -4.0820 C.3   109  HIS109      0.0745
     86  CG        73.9240  -73.7670   -4.0260 C.ar  109  HIS109      0.0817
     87  ND1       74.6000  -74.8880   -3.5990 N.ar  109  HIS109     -0.2268
     88  CD2       72.6760  -74.1680   -4.3360 C.ar  109  HIS109      0.1154
     89  CE1       73.7850  -75.9300   -3.6530 C.ar  109  HIS109      0.1986
     90  NE2       72.6110  -75.5180   -4.0970 N.ar  109  HIS109     -0.2212
     91  N         69.6230  -69.6370   -3.2360 N.3   112  ALA112     -0.1245
     92  CA        68.6320  -70.2620   -4.1040 C.3   112  ALA112      0.1562
     93  C         67.8050  -71.3050   -3.3540 C.2   112  ALA112      0.2260
     94  O         66.5870  -71.3880   -3.5210 O.2   112  ALA112     -0.2867
     95  CB        69.3150  -70.8910   -5.3150 C.3   112  ALA112      0.0290
     96  N         63.6220  -71.7840   -2.3630 N.3   116  LYS116     -0.1245
     97  CA        62.7160  -72.9190   -2.5050 C.3   116  LYS116      0.1561
     98  C         62.0330  -73.2240   -1.1880 C.2   116  LYS116      0.2260
     99  O         60.8420  -73.5140   -1.1430 O.2   116  LYS116     -0.2867
    100  CB        63.4560  -74.1610   -2.9810 C.3   116  LYS116      0.0271
    101  CG        62.5980  -75.4280   -3.0100 C.3   116  LYS116      0.0035
    102  CD        63.4740  -76.6910   -3.1220 C.3   116  LYS116      0.0206
    103  CE        62.6480  -77.9920   -3.2310 C.3   116  LYS116      0.1093
    104  NZ        63.4930  -79.2490   -3.2090 N.3   116  LYS116     -0.1314
    105  N         59.2610  -71.1920   -0.7740 N.3   119  LEU119     -0.1245
    106  CA        58.1480  -71.6270   -1.5990 C.3   119  LEU119      0.1561
    107  C         57.2640  -72.5680   -0.8170 C.2   119  LEU119      0.2260
    108  O         56.1120  -72.2560   -0.5220 O.2   119  LEU119     -0.2867
    109  CB        58.6480  -72.3110   -2.8650 C.3   119  LEU119      0.0270
    110  CG        57.6010  -72.6150   -3.9300 C.3   119  LEU119      0.0019
    111  CD1       56.8650  -71.3440   -4.2950 C.3   119  LEU119      0.0001
    112  CD2       58.2590  -73.2100   -5.1580 C.3   119  LEU119      0.0001
@<TRIPOS>BOND
     1    52    53    1
     2    52    51    1
     3    53    54    2
     4    54    56    1
     5    54    55    1
     6    10     9    1
     7    11     9    1
     8    51    50    1
     9     9     8    2
    10     8     7    1
    11     7     6    1
    12    38    37    1
    13     6     5    1
    14    50    47    1
    15     4     3    2
    16    67    66    2
    17    49    48    2
    18    66    65    1
    19    47    48    1
    20    47    46    1
    21     3     2    1
    22    37    36    1
    23     5     2    1
    24    68    65    1
    25    68    69    1
    26    70    69    1
    27    74    75    2
    28    74    73    1
    29     2     1    1
    30    65    64    1
    31    69    71    1
    32    35    36    1
    33    35    32    1
    34    34    33    2
    35    46    41   am
    36    23    22    1
    37    21    22   ar
    38    21    19   ar
    39    72    73    1
    40    33    32    1
    41    73    76    1
    42    77    76    1
    43    77    78    1
    44    64    59   am
    45    22    20   ar
    46    32    31    1
    47    19    17   ar
    48    42    41    2
    49    79    78    1
    50    79    80    1
    51    41    40    1
    52    60    59    2
    53    59    58    1
    54    57    58    1
    55    31    26   am
    56    44    43    1
    57    58    61    1
    58    20    18   ar
    59    15    14    2
    60    17    18   ar
    61    17    16    1
    62    40    43    1
    63    40    39    1
    64    43    45    1
    65    14    13    1
    66    26    27    2
    67    26    25    1
    68    16    13    1
    69    61    62    1
    70    61    63    1
    71    24    25    1
    72    13    12    1
    73    25    28    1
    74    29    28    1
    75    28    30    1
    76    95    92    1
    77   112   110    1
    78    88    90   ar
    79    88    86   ar
    80   111   110    1
    81    81    82    1
    82    92    93    1
    83    92    91    1
    84    82    85    1
    85    82    83    1
    86    90    89   ar
    87    85    86    1
    88    86    87   ar
    89   110   109    1
    90    89    87   ar
    91    94    93    2
    92   103   104    1
    93   103   102    1
    94   102   101    1
    95    84    83    2
    96   101   100    1
    97   100    97    1
    98   109   106    1
    99    97    96    1
   100    97    98    1
   101   106   107    1
   102   106   105    1
   103    98    99    2
   104   107   108    2
