@<TRIPOS>MOLECULE
tmp/4r32A01.pdb
 153 141 0 0 0
SMALL
GASTEIGER

@<TRIPOS>ATOM
      1  N         79.2560  -57.7520  -10.4000 N.3    35  VAL35      -0.1245
      2  CA        78.3500  -56.7350   -9.9040 C.3    35  VAL35       0.1561
      3  C         76.9810  -56.7230  -10.5690 C.2    35  VAL35       0.2260
      4  O         75.9530  -56.5720   -9.8840 O.2    35  VAL35      -0.2867
      5  CB        78.9650  -55.3300  -10.0820 C.3    35  VAL35       0.0252
      6  CG1       78.1480  -54.2950   -9.3400 C.3    35  VAL35       0.0019
      7  CG2       80.4090  -55.3030   -9.6150 C.3    35  VAL35       0.0019
      8  N         74.9870  -60.2350  -10.0790 N.3    38  VAL38      -0.1231
      9  CA        74.5220  -60.2790   -8.7040 C.3    38  VAL38       0.1692
     10  C         73.3730  -59.3070   -8.5380 C.2    38  VAL38       0.2591
     11  O         72.3970  -59.6010   -7.8530 O.2    38  VAL38      -0.2718
     12  CB        75.6190  -59.9690   -7.7160 C.3    38  VAL38       0.0266
     13  CG1       75.0010  -59.5990   -6.3830 C.3    38  VAL38       0.0020
     14  CG2       76.5540  -61.1610   -7.5600 C.3    38  VAL38       0.0020
     15  N         73.4800  -58.1590   -9.1910 N.am   39  LYS39      -0.1980
     16  CA        72.3670  -57.2250   -9.2370 C.3    39  LYS39       0.1596
     17  C         71.1150  -57.8840   -9.8230 C.2    39  LYS39       0.2287
     18  O         70.0350  -57.7500   -9.2530 O.2    39  LYS39      -0.2864
     19  CB        72.7340  -55.9740  -10.0390 C.3    39  LYS39       0.0298
     20  CG        71.6970  -54.8550  -10.0170 C.3    39  LYS39       0.0038
     21  CD        72.2540  -53.5430  -10.5930 C.3    39  LYS39       0.0206
     22  CE        72.6000  -53.6640  -12.0560 C.3    39  LYS39       0.1093
     23  NZ        71.3640  -53.7910  -12.8690 N.3    39  LYS39      -0.1314
     24  N         69.9470  -60.0650   -7.3740 N.3    42  GLY42      -0.1210
     25  CA        69.3830  -59.2260   -6.3340 C.3    42  GLY42       0.1956
     26  C         67.9720  -58.7980   -6.6760 C.2    42  GLY42       0.2611
     27  O         67.0640  -58.8770   -5.8520 O.2    42  GLY42      -0.2717
     28  N         67.7930  -58.3560   -7.9130 N.am   43  LEU43      -0.1979
     29  CA        66.5100  -57.8500   -8.3790 C.3    43  LEU43       0.1596
     30  C         65.3890  -58.8810   -8.3320 C.2    43  LEU43       0.2287
     31  O         64.3390  -58.6220   -7.7480 O.2    43  LEU43      -0.2864
     32  CB        66.6650  -57.3160   -9.7990 C.3    43  LEU43       0.0297
     33  CG        67.5660  -56.0820   -9.8320 C.3    43  LEU43       0.0022
     34  CD1       67.9510  -55.6950  -11.2530 C.3    43  LEU43       0.0001
     35  CD2       66.8920  -54.9320   -9.1070 C.3    43  LEU43       0.0001
     36  N         64.9810  -61.2580   -6.5830 N.3    45  LEU45      -0.1231
     37  CA        64.6310  -61.4610   -5.1860 C.3    45  LEU45       0.1693
     38  C         63.6460  -60.4050   -4.7070 C.2    45  LEU45       0.2591
     39  O         62.7520  -60.6910   -3.9160 O.2    45  LEU45      -0.2718
     40  CB        65.8870  -61.4420   -4.3140 C.3    45  LEU45       0.0284
     41  CG        65.6350  -61.5610   -2.8130 C.3    45  LEU45       0.0019
     42  CD1       64.9900  -62.8850   -2.5390 C.3    45  LEU45       0.0001
     43  CD2       66.9110  -61.4140   -1.9960 C.3    45  LEU45       0.0001
     44  N         63.8140  -59.1820   -5.1880 N.am   46  ARG46      -0.1980
     45  CA        62.9130  -58.1010   -4.8250 C.3    46  ARG46       0.1597
     46  C         61.4970  -58.3340   -5.3480 C.2    46  ARG46       0.2287
     47  O         60.5190  -57.9900   -4.6880 O.2    46  ARG46      -0.2864
     48  CB        63.4520  -56.7780   -5.3490 C.3    46  ARG46       0.0334
     49  CG        62.4410  -55.6690   -5.3400 C.3    46  ARG46       0.0492
     50  CD        62.9130  -54.5090   -6.1840 C.3    46  ARG46       0.2205
     51  NE        61.9280  -53.4370   -6.2130 N.pl3  46  ARG46      -0.0865
     52  CZ        61.8270  -52.4990   -5.2790 C.cat  46  ARG46       0.5346
     53  NH1       62.6550  -52.5120   -4.2470 N.pl3  46  ARG46       0.1354
     54  NH2       60.9030  -51.5540   -5.3750 N.pl3  46  ARG46       0.1354
     55  N         60.0780  -61.3900   -2.8780 N.3    49  ILE49      -0.1245
     56  CA        59.7310  -60.9150   -1.5340 C.3    49  ILE49       0.1561
     57  C         58.6060  -59.8860   -1.6320 C.2    49  ILE49       0.2260
     58  O         57.8790  -59.6300   -0.6710 O.2    49  ILE49      -0.2867
     59  CB        60.9690  -60.3080   -0.8060 C.3    49  ILE49       0.0252
     60  CG1       62.1080  -61.3290   -0.7280 C.3    49  ILE49       0.0019
     61  CG2       60.6210  -59.8400    0.6050 C.3    49  ILE49       0.0019
     62  CD1       63.2950  -60.8850    0.1270 C.3    49  ILE49       0.0001
     63  N         54.8650  -60.6280    0.0600 N.3    53  ASP53      -0.1239
     64  CA        54.4330  -59.6870    1.0770 C.3    53  ASP53       0.1674
     65  C         52.9660  -59.2590    0.8420 C.2    53  ASP53       0.2266
     66  O         52.3270  -58.6630    1.7290 O.2    53  ASP53      -0.2867
     67  CB        55.3800  -58.4680    1.1200 C.3    53  ASP53       0.1410
     68  CG        56.1410  -58.3610    2.4520 C.2    53  ASP53       0.3668
     69  OD1       56.0960  -59.3310    3.2460 O.co2  53  ASP53      -0.2456
     70  OD2       56.7890  -57.3260    2.7130 O.co2  53  ASP53      -0.2456
     71  N         57.6050  -64.9610    7.1500 N.3    68  GLU68      -0.1245
     72  CA        58.2880  -63.6910    7.3850 C.3    68  GLU68       0.1567
     73  C         59.7090  -63.9440    7.8650 C.2    68  GLU68       0.2260
     74  O         60.6000  -63.1210    7.6670 O.2    68  GLU68      -0.2867
     75  CB        57.5390  -62.8430    8.4180 C.3    68  GLU68       0.0388
     76  CG        56.2180  -62.2450    7.9550 C.3    68  GLU68       0.1160
     77  CD        55.4470  -61.5970    9.1010 C.2    68  GLU68       0.3649
     78  OE1       55.9300  -61.6570   10.2520 O.co2  68  GLU68      -0.2457
     79  OE2       54.3610  -61.0280    8.8570 O.co2  68  GLU68      -0.2457
     80  N         61.7260  -65.1710    5.0000 N.3    71  GLN71      -0.1231
     81  CA        61.8840  -63.9200    4.2710 C.3    71  GLN71       0.1698
     82  C         63.1460  -63.2090    4.7220 C.2    71  GLN71       0.2592
     83  O         64.0710  -63.0090    3.9450 O.2    71  GLN71      -0.2718
     84  CB        60.6770  -63.0160    4.5000 C.3    71  GLN71       0.0381
     85  CG        59.9490  -62.5850    3.2460 C.3    71  GLN71       0.0905
     86  CD        58.7700  -61.6870    3.5540 C.2    71  GLN71       0.2608
     87  OE1       58.7170  -61.0540    4.6110 O.2    71  GLN71      -0.2717
     88  NE2       57.8140  -61.6300    2.6380 N.am   71  GLN71      -0.0878
     89  N         63.1730  -62.8450    6.0010 N.am   72  LYS72      -0.1980
     90  CA        64.3070  -62.1400    6.5920 C.3    72  LYS72       0.1596
     91  C         65.5740  -62.9690    6.4920 C.2    72  LYS72       0.2287
     92  O         66.6790  -62.4330    6.4730 O.2    72  LYS72      -0.2864
     93  CB        64.0280  -61.7900    8.0580 C.3    72  LYS72       0.0298
     94  CG        62.9360  -60.7980    8.2530 C.3    72  LYS72       0.0038
     95  CD        63.3300  -59.3990    7.8900 C.3    72  LYS72       0.0206
     96  CE        62.1710  -58.3990    8.1280 C.3    72  LYS72       0.1093
     97  NZ        61.1330  -58.4170    7.0880 N.3    72  LYS72      -0.1314
     98  N         67.1460  -62.4030    3.0390 N.3    75  ASN75      -0.1240
     99  CA        67.9320  -61.1810    3.0150 C.3    75  ASN75       0.1653
    100  C         69.3530  -61.4060    3.5150 C.2    75  ASN75       0.2266
    101  O         70.3130  -60.9660    2.8820 O.2    75  ASN75      -0.2867
    102  CB        67.2390  -60.1040    3.8430 C.3    75  ASN75       0.1155
    103  CG        65.9270  -59.6770    3.2360 C.2    75  ASN75       0.2627
    104  OD1       65.7910  -59.6390    2.0150 O.2    75  ASN75      -0.2716
    105  ND2       64.9480  -59.3660    4.0770 N.am   75  ASN75      -0.0877
    106  N         71.4200  -62.9570    0.7870 N.3    78  LEU78      -0.1231
    107  CA        71.8230  -62.0530   -0.2750 C.3    78  LEU78       0.1693
    108  C         73.0070  -61.2350    0.1870 C.2    78  LEU78       0.2591
    109  O         73.9960  -61.0880   -0.5280 O.2    78  LEU78      -0.2718
    110  CB        70.6850  -61.1260   -0.6770 C.3    78  LEU78       0.0284
    111  CG        71.1680  -59.9320   -1.4990 C.3    78  LEU78       0.0019
    112  CD1       71.6920  -60.3870   -2.8520 C.3    78  LEU78       0.0001
    113  CD2       70.0760  -58.8860   -1.6590 C.3    78  LEU78       0.0001
    114  N         72.8930  -60.6990    1.3950 N.am   79  ALA79      -0.1980
    115  CA        73.9470  -59.8760    1.9620 C.3    79  ALA79       0.1597
    116  C         75.2670  -60.6330    1.9840 C.2    79  ALA79       0.2287
    117  O         76.3050  -60.0790    1.6480 O.2    79  ALA79      -0.2864
    118  CB        73.5640  -59.4210    3.3570 C.3    79  ALA79       0.0319
    119  N         76.6380  -60.5620   -1.4130 N.3    82  ILE82      -0.1231
    120  CA        77.2340  -59.2630   -1.6900 C.3    82  ILE82       0.1692
    121  C         78.6210  -59.1580   -1.0690 C.2    82  ILE82       0.2592
    122  O         79.5830  -58.7950   -1.7460 O.2    82  ILE82      -0.2718
    123  CB        76.3570  -58.1180   -1.1680 C.3    82  ILE82       0.0266
    124  CG1       75.0300  -58.0920   -1.9220 C.3    82  ILE82       0.0019
    125  CG2       77.0740  -56.7820   -1.3070 C.3    82  ILE82       0.0020
    126  CD1       74.2120  -56.8390   -1.6790 C.3    82  ILE82       0.0001
    127  N         78.7210  -59.4870    0.2160 N.am   83  ASN83      -0.1974
    128  CA        80.0060  -59.4810    0.9010 C.3    83  ASN83       0.1688
    129  C         81.0100  -60.3550    0.1660 C.2    83  ASN83       0.2292
    130  O         82.0710  -59.8820   -0.2380 O.2    83  ASN83      -0.2864
    131  CB        79.8480  -59.9480    2.3470 C.3    83  ASN83       0.1181
    132  CG        79.1820  -58.9070    3.2250 C.2    83  ASN83       0.2629
    133  OD1       79.1710  -57.7200    2.8980 O.2    83  ASN83      -0.2716
    134  ND2       78.6270  -59.3460    4.3490 N.am   83  ASN83      -0.0877
    135  N         81.0000  -61.1430   -2.7010 N.3    85  MET85      -0.1230
    136  CA        81.2950  -60.5620   -4.0060 C.3    85  MET85       0.1702
    137  C         82.3970  -59.5290   -3.9040 C.2    85  MET85       0.2592
    138  O         83.3390  -59.5440   -4.6920 O.2    85  MET85      -0.2718
    139  CB        80.0700  -59.9090   -4.6310 C.3    85  MET85       0.0401
    140  CG        80.4130  -59.1270   -5.8860 C.3    85  MET85       0.0596
    141  SD        79.0870  -58.0220   -6.3480 S.3    85  MET85      -0.1393
    142  CE        78.9300  -57.1270   -4.8110 C.3    85  MET85       0.0692
    143  N         82.2690  -58.6240   -2.9390 N.am   86  ARG86      -0.1980
    144  CA        83.2480  -57.5600   -2.7550 C.3    86  ARG86       0.1597
    145  C         84.6340  -58.1450   -2.5490 C.2    86  ARG86       0.2287
    146  O         85.6230  -57.6270   -3.0660 O.2    86  ARG86      -0.2864
    147  CB        82.8710  -56.6820   -1.5680 C.3    86  ARG86       0.0334
    148  CG        81.6280  -55.8490   -1.7790 C.3    86  ARG86       0.0492
    149  CD        81.1630  -55.2700   -0.4580 C.3    86  ARG86       0.2205
    150  NE        80.6170  -53.9270   -0.6110 N.pl3  86  ARG86      -0.0865
    151  CZ        80.1760  -53.1860    0.3990 C.cat  86  ARG86       0.5346
    152  NH1       80.2090  -53.6650    1.6360 N.pl3  86  ARG86       0.1354
    153  NH2       79.6960  -51.9700    0.1730 N.pl3  86  ARG86       0.1354
@<TRIPOS>BOND
     1    23    22    1
     2    22    21    1
     3    34    33    1
     4    21    20    1
     5     3     2    1
     6     3     4    2
     7     1     2    1
     8     5     2    1
     9     5     7    1
    10     5     6    1
    11     8     9    1
    12    19    20    1
    13    19    16    1
    14    33    32    1
    15    33    35    1
    16    17    18    2
    17    17    16    1
    18    32    29    1
    19    16    15    1
    20    15    10   am
    21     9    10    1
    22     9    12    1
    23    10    11    2
    24    29    30    1
    25    29    28    1
    26    30    31    2
    27    28    26   am
    28    12    14    1
    29    12    13    1
    30    24    25    1
    31    26    25    1
    32    26    27    2
    33    36    37    1
    34   141   140    1
    35   141   142    1
    36    51    50    1
    37    51    52    2
    38    50    49    1
    39   140   139    1
    40    54    52    1
    41    48    49    1
    42    48    45    1
    43    46    45    1
    44    46    47    2
    45    52    53    1
    46    44    45    1
    47    44    38   am
    48    37    38    1
    49    37    40    1
    50    38    39    2
    51   138   137    2
    52   139   136    1
    53    40    41    1
    54   136   137    1
    55   136   135    1
    56   137   143   am
    57   146   145    2
    58   143   144    1
    59    55    56    1
    60   112   111    1
    61    41    42    1
    62    41    43    1
    63   144   145    1
    64   144   147    1
    65   124   126    1
    66   124   123    1
    67   148   147    1
    68   148   149    1
    69   122   121    2
    70   120   119    1
    71   120   123    1
    72   120   121    1
    73   113   111    1
    74    57    56    1
    75    57    58    2
    76    56    59    1
    77   111   110    1
    78   125   123    1
    79   121   127   am
    80    59    60    1
    81    59    61    1
    82    60    62    1
    83   110   107    1
    84   150   149    1
    85   150   151    2
    86   109   108    2
    87   107   108    1
    88   107   106    1
    89   130   129    2
    90    63    64    1
    91   129   128    1
    92   153   151    1
    93   108   114   am
    94   127   128    1
    95   151   152    1
    96    65    64    1
    97    65    66    2
    98   128   131    1
    99    64    67    1
   100    67    68    1
   101   114   115    1
   102   117   116    2
   103   115   116    1
   104   115   118    1
   105   104   103    2
   106   131   132    1
   107    68    70   ar
   108    68    69   ar
   109    88    86   am
   110   101   100    2
   111   133   132    2
   112    99    98    1
   113    99   100    1
   114    99   102    1
   115   132   134   am
   116   103   102    1
   117   103   105   am
   118    85    86    1
   119    85    84    1
   120    86    87    2
   121    83    82    2
   122    81    84    1
   123    81    82    1
   124    81    80    1
   125    82    89   am
   126    89    90    1
   127    92    91    2
   128    91    90    1
   129    90    93    1
   130    97    96    1
   131    71    72    1
   132    72    73    1
   133    72    75    1
   134    74    73    2
   135    95    96    1
   136    95    94    1
   137    76    75    1
   138    76    77    1
   139    93    94    1
   140    79    77   ar
   141    77    78   ar
