@<TRIPOS>MOLECULE
tmp/4r34A02.pdb
 166 157 0 0 0
SMALL
GASTEIGER

@<TRIPOS>ATOM
      1  N         44.4240   48.2360   36.4380 N.3    72  PHE72      -0.1241
      2  CA        43.2150   48.4880   37.2010 C.3    72  PHE72       0.1605
      3  C         42.3490   49.4340   36.3860 C.2    72  PHE72       0.2264
      4  O         42.8480   50.1980   35.5620 O.2    72  PHE72      -0.2867
      5  CB        43.5160   49.0570   38.5960 C.3    72  PHE72       0.0534
      6  CG        43.8820   50.5260   38.6120 C.ar   72  PHE72      -0.0203
      7  CD1       42.9420   51.4860   38.9670 C.ar   72  PHE72      -0.0042
      8  CD2       45.1710   50.9410   38.3130 C.ar   72  PHE72      -0.0042
      9  CE1       43.2740   52.8310   39.0070 C.ar   72  PHE72      -0.0003
     10  CE2       45.5130   52.2860   38.3550 C.ar   72  PHE72      -0.0003
     11  CZ        44.5590   53.2340   38.7010 C.ar   72  PHE72      -0.0000
     12  N         39.3480   52.3840   36.6240 N.3    74  PRO74      -0.2116
     13  CA        38.7400   53.3330   37.5630 C.3    74  PRO74       0.1372
     14  C         37.2270   53.2150   37.6360 C.2    74  PRO74       0.2244
     15  O         36.5690   53.0090   36.6160 O.2    74  PRO74      -0.2868
     16  CB        39.1300   54.6880   36.9810 C.3    74  PRO74       0.0268
     17  CG        39.2120   54.4300   35.5080 C.3    74  PRO74       0.0207
     18  CD        39.8280   53.0530   35.4020 C.3    74  PRO74       0.0892
     19  N         34.4660   55.7560   39.2210 N.3    76  TYR76      -0.1241
     20  CA        34.0160   56.9390   39.9400 C.3    76  TYR76       0.1605
     21  C         32.6740   56.6250   40.5920 C.2    76  TYR76       0.2264
     22  O         31.7070   56.2900   39.9090 O.2    76  TYR76      -0.2867
     23  CB        33.9140   58.1510   39.0050 C.3    76  TYR76       0.0534
     24  CG        35.2600   58.7550   38.6460 C.ar   76  TYR76      -0.0201
     25  CD1       36.2110   58.0140   37.9540 C.ar   76  TYR76      -0.0009
     26  CD2       35.5780   60.0660   38.9920 C.ar   76  TYR76      -0.0009
     27  CE1       37.4400   58.5480   37.6240 C.ar   76  TYR76       0.0417
     28  CE2       36.8160   60.6170   38.6540 C.ar   76  TYR76       0.0417
     29  CZ        37.7380   59.8480   37.9680 C.ar   76  TYR76       0.1957
     30  OH        38.9690   60.3590   37.6230 O.3    76  TYR76      -0.2866
     31  N         36.9690   56.2360   43.1850 N.3   126  LEU126     -0.1245
     32  CA        37.2070   57.6700   43.2670 C.3   126  LEU126      0.1561
     33  C         35.9760   58.4380   43.7300 C.2   126  LEU126      0.2260
     34  O         34.8390   58.0230   43.5020 O.2   126  LEU126     -0.2867
     35  CB        37.6770   58.2190   41.9140 C.3   126  LEU126      0.0270
     36  CG        38.9980   57.6690   41.3700 C.3   126  LEU126      0.0019
     37  CD1       38.7650   56.4520   40.4730 C.3   126  LEU126      0.0001
     38  CD2       39.7970   58.7530   40.6380 C.3   126  LEU126      0.0001
     39  N         41.1420   56.8480   45.4310 N.3   161  ASN161     -0.1240
     40  CA        41.5410   58.2230   45.1900 C.3   161  ASN161      0.1653
     41  C         40.3840   59.1010   45.6500 C.2   161  ASN161      0.2266
     42  O         39.4750   59.3920   44.8770 O.2   161  ASN161     -0.2867
     43  CB        41.8630   58.4280   43.7000 C.3   161  ASN161      0.1155
     44  CG        42.8120   59.5970   43.4420 C.2   161  ASN161      0.2627
     45  OD1       42.8350   60.5790   44.1850 O.2   161  ASN161     -0.2716
     46  ND2       43.5980   59.4910   42.3660 N.am  161  ASN161     -0.0877
     47  N         45.8170   56.6500   46.6190 N.3   186  CYS186     -0.1235
     48  CA        46.1860   57.6430   45.6070 C.3   186  CYS186      0.1677
     49  C         45.8740   59.0540   46.0750 C.2   186  CYS186      0.2270
     50  O         44.7280   59.3650   46.4030 O.2   186  CYS186     -0.2867
     51  CB        45.4520   57.3880   44.2930 C.3   186  CYS186      0.0956
     52  SG        45.5430   55.7040   43.7170 S.3   186  CYS186     -0.0801
     53  N         47.2760   62.5270   44.3570 N.3   188  PHE188     -0.1241
     54  CA        48.1500   63.2700   43.4550 C.3   188  PHE188      0.1605
     55  C         48.2900   64.6980   43.9640 C.2   188  PHE188      0.2264
     56  O         47.2970   65.4060   44.1270 O.2   188  PHE188     -0.2867
     57  CB        47.6110   63.2740   42.0200 C.3   188  PHE188      0.0534
     58  CG        47.3600   61.9010   41.4480 C.ar  188  PHE188     -0.0203
     59  CD1       47.9150   60.7660   42.0250 C.ar  188  PHE188     -0.0042
     60  CD2       46.5720   61.7510   40.3180 C.ar  188  PHE188     -0.0042
     61  CE1       47.6800   59.5060   41.4880 C.ar  188  PHE188     -0.0003
     62  CE2       46.3300   60.4940   39.7790 C.ar  188  PHE188     -0.0003
     63  CZ        46.8840   59.3710   40.3680 C.ar  188  PHE188     -0.0000
     64  N         50.5440   56.0440   45.9770 N.3   232  ASN232     -0.1240
     65  CA        50.5450   56.4830   44.5890 C.3   232  ASN232      0.1653
     66  C         50.5530   58.0020   44.4790 C.2   232  ASN232      0.2266
     67  O         49.5060   58.6120   44.2720 O.2   232  ASN232     -0.2867
     68  CB        49.3270   55.9020   43.8640 C.3   232  ASN232      0.1155
     69  CG        49.3340   56.1760   42.3640 C.2   232  ASN232      0.2627
     70  OD1       50.3100   56.6800   41.8070 O.2   232  ASN232     -0.2716
     71  ND2       48.2370   55.8250   41.7030 N.am  232  ASN232     -0.0877
     72  N         52.2930   58.5170   39.2520 N.3   267  SER267     -0.1217
     73  CA        51.3910   58.9470   38.1920 C.3   267  SER267      0.1889
     74  C         51.7330   60.3330   37.6700 C.2   267  SER267      0.2288
     75  O         51.8960   61.2780   38.4340 O.2   267  SER267     -0.2866
     76  CB        49.9460   58.9130   38.6870 C.3   267  SER267      0.2089
     77  OG        49.5600   57.5800   38.9740 O.3   267  SER267     -0.2183
     78  N         49.7150   62.0630   35.0740 N.3   269  PRO269     -0.2116
     79  CA        48.6690   62.2660   34.0720 C.3   269  PRO269      0.1372
     80  C         48.7940   63.6200   33.3980 C.2   269  PRO269      0.2244
     81  O         49.1080   64.6130   34.0520 O.2   269  PRO269     -0.2868
     82  CB        47.3840   62.1910   34.8880 C.3   269  PRO269      0.0268
     83  CG        47.7900   62.6210   36.2510 C.3   269  PRO269      0.0207
     84  CD        49.1600   62.0390   36.4380 C.3   269  PRO269      0.0892
     85  N         52.1870   54.9570   35.9490 N.3   305  VAL305     -0.1245
     86  CA        50.8230   54.5980   35.6000 C.3   305  VAL305      0.1561
     87  C         50.4400   55.3370   34.3220 C.2   305  VAL305      0.2260
     88  O         50.5460   56.5610   34.2520 O.2   305  VAL305     -0.2867
     89  CB        49.8320   54.9400   36.7410 C.3   305  VAL305      0.0252
     90  CG1       48.4010   54.6110   36.3360 C.3   305  VAL305      0.0019
     91  CG2       50.2150   54.2030   38.0300 C.3   305  VAL305      0.0019
     92  N         47.3290   55.9510   31.5400 N.3   307  THR307     -0.1203
     93  CA        45.8710   55.8420   31.4650 C.3   307  THR307      0.1994
     94  C         45.3130   56.2420   30.1090 C.2   307  THR307      0.2619
     95  O         46.0130   56.8280   29.2770 O.2   307  THR307     -0.2717
     96  CB        45.1680   56.7160   32.5180 C.3   307  THR307      0.1784
     97  OG1       45.2260   58.0900   32.1110 O.3   307  THR307     -0.2211
     98  CG2       45.8020   56.5490   33.8960 C.3   307  THR307      0.0376
     99  N         44.0330   55.9510   29.9040 N.am  308  THR308     -0.1938
    100  CA        43.3760   56.2610   28.6420 C.3   308  THR308      0.2028
    101  C         42.9950   57.7320   28.5180 C.2   308  THR308      0.2642
    102  O         42.1860   58.0910   27.6650 O.2   308  THR308     -0.2714
    103  CB        42.1110   55.4030   28.4290 C.3   308  THR308      0.1808
    104  OG1       41.3950   55.2770   29.6620 O.3   308  THR308     -0.2208
    105  CG2       42.4820   54.0200   27.9220 C.3   308  THR308      0.0379
    106  N         43.5730   58.5830   29.3640 N.am  309  ARG309     -0.1977
    107  CA        43.6350   60.0080   29.0640 C.3   309  ARG309      0.1597
    108  C         44.3230   60.1590   27.7140 C.2   309  ARG309      0.2287
    109  O         43.9700   61.0130   26.9040 O.2   309  ARG309     -0.2864
    110  CB        44.4230   60.7830   30.1220 C.3   309  ARG309      0.0334
    111  CG        43.7510   60.9540   31.4750 C.3   309  ARG309      0.0492
    112  CD        44.7140   61.6790   32.4040 C.3   309  ARG309      0.2205
    113  NE        44.1500   62.0120   33.7090 N.pl3 309  ARG309     -0.0865
    114  CZ        44.0940   61.1750   34.7410 C.cat 309  ARG309      0.5346
    115  NH1       44.5430   59.9300   34.6250 N.pl3 309  ARG309      0.1354
    116  NH2       43.5800   61.5850   35.8920 N.pl3 309  ARG309      0.1354
    117  N         46.0940   51.5340   32.8160 N.3   326  SER326     -0.1217
    118  CA        44.7950   51.7320   33.4510 C.3   326  SER326      0.1889
    119  C         43.7670   52.3610   32.5220 C.2   326  SER326      0.2288
    120  O         43.6280   53.5820   32.4750 O.2   326  SER326     -0.2866
    121  CB        44.9490   52.5900   34.7120 C.3   326  SER326      0.2089
    122  OG        43.7130   52.7150   35.3860 O.3   326  SER326     -0.2183
    123  N         39.8160   53.0560   31.0750 N.3   328  GLY328     -0.1210
    124  CA        38.5440   53.3090   31.7250 C.3   328  GLY328      0.1956
    125  C         38.0040   54.6900   31.4280 C.2   328  GLY328      0.2613
    126  O         38.5170   55.3850   30.5530 O.2   328  GLY328     -0.2717
    127  N         36.9640   55.0830   32.1580 N.am  329  SER329     -0.1938
    128  CA        36.3340   56.3820   31.9680 C.3   329  SER329      0.2040
    129  C         36.0620   57.0580   33.3090 C.2   329  SER329      0.2485
    130  O         35.7200   56.3940   34.2930 O.2   329  SER329     -0.2729
    131  CB        35.0390   56.2300   31.1690 C.3   329  SER329      0.2129
    132  OG        34.2800   57.4240   31.1740 O.3   329  SER329     -0.2179
    133  N         36.2290   58.3860   33.3580 N.am  330  PRO330     -0.2726
    134  CA        36.0130   59.1520   34.5840 C.3   330  PRO330      0.1402
    135  C         34.5850   59.6780   34.6830 C.2   330  PRO330      0.2269
    136  O         34.3630   60.8080   35.1100 O.2   330  PRO330     -0.2865
    137  CB        37.0120   60.2950   34.4470 C.3   330  PRO330      0.0296
    138  CG        37.0340   60.5530   32.9570 C.3   330  PRO330      0.0237
    139  CD        36.7370   59.2370   32.2680 C.3   330  PRO330      0.0939
    140  N         34.4070   63.8510   34.9620 N.3   349  GLN349     -0.1231
    141  CA        35.4520   64.7300   35.4780 C.3   349  GLN349      0.1698
    142  C         36.2190   65.4010   34.3420 C.2   349  GLN349      0.2592
    143  O         36.5980   66.5670   34.4360 O.2   349  GLN349     -0.2718
    144  CB        36.4270   63.9610   36.3730 C.3   349  GLN349      0.0381
    145  CG        37.4280   64.8720   37.0600 C.3   349  GLN349      0.0905
    146  CD        38.5560   64.1310   37.7360 C.2   349  GLN349      0.2608
    147  OE1       38.6940   62.9190   37.5930 O.2   349  GLN349     -0.2717
    148  NE2       39.3820   64.8640   38.4720 N.am  349  GLN349     -0.0878
    149  N         36.4660   64.6470   33.2750 N.am  350  PHE350     -0.1976
    150  CA        37.0840   65.1910   32.0700 C.3   350  PHE350      0.1639
    151  C         36.8350   64.2480   30.8930 C.2   350  PHE350      0.2290
    152  O         36.2200   63.1930   31.0560 O.2   350  PHE350     -0.2864
    153  CB        38.5890   65.4200   32.2730 C.3   350  PHE350      0.0560
    154  CG        39.3140   64.2350   32.8600 C.ar  350  PHE350     -0.0200
    155  CD1       39.7360   63.1930   32.0520 C.ar  350  PHE350     -0.0042
    156  CD2       39.5690   64.1690   34.2210 C.ar  350  PHE350     -0.0042
    157  CE1       40.4010   62.1010   32.5900 C.ar  350  PHE350     -0.0003
    158  CE2       40.2300   63.0810   34.7670 C.ar  350  PHE350     -0.0003
    159  CZ        40.6480   62.0460   33.9470 C.ar  350  PHE350     -0.0000
    160  N         38.2980   61.7280   28.1210 N.3   352  VAL352     -0.1245
    161  CA        39.4580   60.9050   27.7920 C.3   352  VAL352      0.1561
    162  C         39.5790   60.7140   26.2890 C.2   352  VAL352      0.2260
    163  O         38.6170   60.9300   25.5560 O.2   352  VAL352     -0.2867
    164  CB        39.3940   59.5280   28.4630 C.3   352  VAL352      0.0252
    165  CG1       39.3320   59.6880   29.9650 C.3   352  VAL352      0.0019
    166  CG2       38.2020   58.7360   27.9440 C.3   352  VAL352      0.0019
@<TRIPOS>BOND
     1   163   162    2
     2   162   161    1
     3   109   108    2
     4   102   101    2
     5   108   107    1
     6   161   160    1
     7   161   164    1
     8   105   103    1
     9   166   164    1
    10   103   100    1
    11   103   104    1
    12   164   165    1
    13   101   100    1
    14   101   106   am
    15   100    99    1
    16   107   106    1
    17   107   110    1
    18    95    94    2
    19    99    94   am
    20    94    93    1
    21   110   111    1
    22   126   125    2
    23   151   152    2
    24   151   150    1
    25   123   124    1
    26   131   132    1
    27   131   128    1
    28   125   124    1
    29   125   127   am
    30    93    92    1
    31    93    96    1
    32   111   112    1
    33   128   127    1
    34   128   129    1
    35   155   157   ar
    36   155   154   ar
    37   150   153    1
    38   150   149    1
    39    97    96    1
    40   139   138    1
    41   139   133    1
    42   153   154    1
    43   112   113    1
    44   120   119    2
    45    96    98    1
    46   119   118    1
    47   157   159   ar
    48   117   118    1
    49   154   156   ar
    50   138   137    1
    51   149   142   am
    52   129   133   am
    53   129   130    2
    54   133   134    1
    55    80    81    2
    56    80    79    1
    57   118   121    1
    58   113   114    2
    59   159   158   ar
    60    79    82    1
    61    79    78    1
    62   156   158   ar
    63    88    87    2
    64    87    86    1
    65   142   143    2
    66   142   141    1
    67   137   134    1
    68   134   135    1
    69   115   114    1
    70   135   136    2
    71   121   122    1
    72   114   116    1
    73    82    83    1
    74   140   141    1
    75    78    84    1
    76    18    17    1
    77    18    12    1
    78   141   144    1
    79    17    16    1
    80     4     3    2
    81    86    85    1
    82    86    89    1
    83    83    84    1
    84    90    89    1
    85   144   145    1
    86     3     2    1
    87     1     2    1
    88    15    14    2
    89    12    13    1
    90    89    91    1
    91    16    13    1
    92   145   146    1
    93     2     5    1
    94    13    14    1
    95   147   146    2
    96    30    29    1
    97    27    25   ar
    98    27    29   ar
    99    74    73    1
   100    74    75    2
   101   146   148   am
   102    25    24   ar
   103    29    28   ar
   104    73    76    1
   105    73    72    1
   106     8    10   ar
   107     8     6   ar
   108    10    11   ar
   109     5     6    1
   110     6     7   ar
   111    24    26   ar
   112    24    23    1
   113    28    26   ar
   114    76    77    1
   115    11     9   ar
   116     7     9   ar
   117    23    20    1
   118    19    20    1
   119    62    60   ar
   120    62    63   ar
   121    22    21    2
   122    20    21    1
   123    60    58   ar
   124    63    61   ar
   125    37    36    1
   126    38    36    1
   127    36    35    1
   128    58    57    1
   129    58    59   ar
   130    61    59   ar
   131    71    69   am
   132    70    69    2
   133    35    32    1
   134    57    54    1
   135    69    68    1
   136    46    44   am
   137    31    32    1
   138    32    33    1
   139    44    43    1
   140    44    45    2
   141    54    55    1
   142    54    53    1
   143    34    33    2
   144    43    40    1
   145    52    51    1
   146    68    65    1
   147    55    56    2
   148    67    66    2
   149    51    48    1
   150    66    65    1
   151    65    64    1
   152    42    41    2
   153    40    39    1
   154    40    41    1
   155    48    49    1
   156    48    47    1
   157    49    50    2
