@<TRIPOS>MOLECULE
tmp/4r36A00.pdb
 80 75 0 0 0
SMALL
GASTEIGER

@<TRIPOS>ATOM
      1  N        107.2340   56.3520   48.3720 N.3    83  ASN83      -0.1240
      2  CA       107.9870   55.6670   49.3590 C.3    83  ASN83       0.1653
      3  C        107.7350   54.1450   49.3700 C.2    83  ASN83       0.2266
      4  O        107.8450   53.5120   50.4130 O.2    83  ASN83      -0.2867
      5  CB       107.7140   56.2340   50.7660 C.3    83  ASN83       0.1155
      6  CG       107.8500   57.7430   50.8270 C.2    83  ASN83       0.2627
      7  OD1      106.9810   58.4450   51.3450 O.2    83  ASN83      -0.2716
      8  ND2      108.9010   58.2370   50.2660 N.am   83  ASN83      -0.0877
      9  N        108.7090   50.1520   48.2560 N.3    85  LEU85      -0.1245
     10  CA       109.7930   49.2830   47.9260 C.3    85  LEU85       0.1561
     11  C        109.2300   48.1970   47.0400 C.2    85  LEU85       0.2260
     12  O        108.4590   47.3760   47.5140 O.2    85  LEU85      -0.2867
     13  CB       110.4010   48.6990   49.1940 C.3    85  LEU85       0.0270
     14  CG       110.9440   49.7640   50.1890 C.3    85  LEU85       0.0019
     15  CD1      111.2860   49.1490   51.5310 C.3    85  LEU85       0.0001
     16  CD2      112.1460   50.4590   49.5770 C.3    85  LEU85       0.0001
     17  N        104.2240   53.7750   50.9700 N.3   107  ASN107     -0.1225
     18  CA       104.9100   53.1390   52.1130 C.3   107  ASN107      0.1785
     19  C        104.6110   51.6130   52.1650 C.2   107  ASN107      0.2597
     20  O        104.5320   51.0520   53.2530 O.2   107  ASN107     -0.2718
     21  CB       104.5610   53.7910   53.4610 C.3   107  ASN107      0.1169
     22  CG       104.7180   55.3190   53.4160 C.2   107  ASN107      0.2627
     23  OD1      105.7640   55.7980   53.2360 O.2   107  ASN107     -0.2716
     24  ND2      103.6670   56.0320   53.6140 N.am  107  ASN107     -0.0877
     25  N        104.5260   50.9890   51.0040 N.am  108  ASN108     -0.1960
     26  CA       104.3930   49.5580   50.9490 C.3   108  ASN108      0.1819
     27  C        105.6740   48.8860   50.6440 C.2   108  ASN108      0.2621
     28  O        106.5190   49.4290   49.9120 O.2   108  ASN108     -0.2715
     29  CB       103.3790   49.2120   49.8790 C.3   108  ASN108      0.1195
     30  CG       102.0280   49.8150   50.1680 C.2   108  ASN108      0.2630
     31  OD1      101.2960   49.3630   51.1020 O.2   108  ASN108     -0.2716
     32  ND2      101.6490   50.7940   49.3300 N.am  108  ASN108     -0.0877
     33  N        105.7850   47.6510   51.1020 N.am  109  LEU109     -0.1977
     34  CA       106.8280   46.7230   50.6620 C.3   109  LEU109      0.1596
     35  C        106.2040   45.5520   49.9190 C.2   109  LEU109      0.2287
     36  O        105.4480   44.7680   50.4810 O.2   109  LEU109     -0.2864
     37  CB       107.5980   46.2200   51.8480 C.3   109  LEU109      0.0297
     38  CG       108.5550   45.0780   51.6630 C.3   109  LEU109      0.0022
     39  CD1      109.5780   45.3410   50.5530 C.3   109  LEU109      0.0001
     40  CD2      109.2390   44.6770   52.9510 C.3   109  LEU109      0.0001
     41  N        101.1300   51.3790   53.7600 N.3   125  GLY125     -0.1210
     42  CA       101.7160   50.7360   54.9310 C.3   125  GLY125      0.1956
     43  C        101.6590   49.1970   54.9620 C.2   125  GLY125      0.2612
     44  O        101.8330   48.6080   56.0180 O.2   125  GLY125     -0.2717
     45  N        101.4620   48.5720   53.8270 N.am  126  CYS126     -0.1956
     46  CA       101.2970   47.1050   53.7030 C.3   126  CYS126      0.1843
     47  C        102.6270   46.4370   53.4300 C.2   126  CYS126      0.2625
     48  O        103.5610   47.0110   52.8590 O.2   126  CYS126     -0.2714
     49  CB       100.3040   46.7490   52.5620 C.3   126  CYS126      0.0997
     50  SG        98.6340   47.3700   52.8110 S.3   126  CYS126     -0.0797
     51  N        102.7320   45.2040   53.8520 N.am  127  ILE127     -0.1977
     52  CA       103.8490   44.3470   53.5000 C.3   127  ILE127      0.1596
     53  C        103.2570   43.1290   52.8360 C.2   127  ILE127      0.2287
     54  O        102.3370   42.4670   53.4320 O.2   127  ILE127     -0.2864
     55  CB       104.5830   43.9180   54.7830 C.3   127  ILE127      0.0276
     56  CG1      105.1730   45.1630   55.5060 C.3   127  ILE127      0.0022
     57  CG2      105.6520   42.9310   54.4200 C.3   127  ILE127      0.0022
     58  CD1      105.8400   44.8420   56.8320 C.3   127  ILE127      0.0001
     59  N        102.8150   46.0080   68.7410 N.3   197  ARG197     -0.1231
     60  CA       103.9160   46.6800   68.0860 C.3   197  ARG197      0.1694
     61  C        103.5160   48.0450   67.5850 C.2   197  ARG197      0.2591
     62  O        104.2700   48.9850   67.6890 O.2   197  ARG197     -0.2718
     63  CB       104.4380   45.8350   66.9490 C.3   197  ARG197      0.0321
     64  CG       105.7830   46.2700   66.4210 C.3   197  ARG197      0.0489
     65  CD       106.2840   45.2850   65.3800 C.3   197  ARG197      0.2205
     66  NE       105.2940   45.0690   64.3340 N.pl3 197  ARG197     -0.0865
     67  CZ       104.9040   45.9650   63.4160 C.cat 197  ARG197      0.5346
     68  NH1      105.4190   47.1950   63.3780 N.pl3 197  ARG197      0.1354
     69  NH2      103.9750   45.6220   62.5260 N.pl3 197  ARG197      0.1354
     70  N        102.3070   48.2120   67.1080 N.am  198  ARG198     -0.1980
     71  CA       101.9060   49.5330   66.6650 C.3   198  ARG198      0.1597
     72  C        101.2870   50.4530   67.7410 C.2   198  ARG198      0.2287
     73  O        100.8220   51.5280   67.4270 O.2   198  ARG198     -0.2864
     74  CB       100.9600   49.4190   65.4950 C.3   198  ARG198      0.0334
     75  CG       101.6080   48.7020   64.3160 C.3   198  ARG198      0.0492
     76  CD       100.5310   48.2340   63.3510 C.3   198  ARG198      0.2205
     77  NE       100.9440   47.2930   62.2960 N.pl3 198  ARG198     -0.0865
     78  CZ       101.3720   47.6280   61.0760 C.cat 198  ARG198      0.5346
     79  NH1      101.5260   48.9100   60.7280 N.pl3 198  ARG198      0.1354
     80  NH2      101.6670   46.6630   60.2060 N.pl3 198  ARG198      0.1354
@<TRIPOS>BOND
     1    11    12    2
     2    11    10    1
     3    10     9    1
     4    10    13    1
     5     1     2    1
     6    13    14    1
     7    32    30   am
     8     2     3    1
     9     2     5    1
    10     3     4    2
    11    16    14    1
    12    29    30    1
    13    29    26    1
    14    28    27    2
    15    35    36    2
    16    35    34    1
    17    30    31    2
    18    14    15    1
    19     8     6   am
    20    39    38    1
    21    27    26    1
    22    27    33   am
    23    34    33    1
    24    34    37    1
    25     5     6    1
    26     6     7    2
    27    26    25    1
    28    17    18    1
    29    25    19   am
    30    38    37    1
    31    38    40    1
    32    18    19    1
    33    18    21    1
    34    19    20    2
    35    49    50    1
    36    49    46    1
    37    53    54    2
    38    53    52    1
    39    48    47    2
    40    23    22    2
    41    22    21    1
    42    22    24   am
    43    47    46    1
    44    47    51   am
    45    52    51    1
    46    52    55    1
    47    46    45    1
    48    41    42    1
    49    45    43   am
    50    57    55    1
    51    55    56    1
    52    42    43    1
    53    43    44    2
    54    56    58    1
    55    80    78    1
    56    79    78    1
    57    78    77    2
    58    77    76    1
    59    69    67    1
    60    76    75    1
    61    68    67    1
    62    67    66    2
    63    75    74    1
    64    66    65    1
    65    65    64    1
    66    74    71    1
    67    64    63    1
    68    71    70    1
    69    71    72    1
    70    63    60    1
    71    70    61   am
    72    73    72    2
    73    61    62    2
    74    61    60    1
    75    60    59    1
