@<TRIPOS>MOLECULE
tmp/4r36A01.pdb
 86 80 0 0 0
SMALL
GASTEIGER

@<TRIPOS>ATOM
      1  N        107.8780   61.5430   31.3150 N.3    13  LYS13      -0.1245
      2  CA       108.0470   62.6270   32.2650 C.3    13  LYS13       0.1561
      3  C        108.6870   62.1100   33.4920 C.2    13  LYS13       0.2260
      4  O        108.1320   61.1910   34.1410 O.2    13  LYS13      -0.2867
      5  CB       106.7080   63.2450   32.6260 C.3    13  LYS13       0.0271
      6  CG       106.1450   63.9590   31.4270 C.3    13  LYS13       0.0035
      7  CD       104.7080   64.3860   31.4820 C.3    13  LYS13       0.0206
      8  CE       104.2660   64.6410   30.0550 C.3    13  LYS13       0.1093
      9  NZ       102.8180   64.9240   29.9290 N.3    13  LYS13      -0.1314
     10  N        104.2380   57.6980   27.6160 N.3    29  ASN29      -0.1240
     11  CA       103.0400   57.7020   28.4840 C.3    29  ASN29       0.1653
     12  C        103.4070   57.1020   29.8460 C.2    29  ASN29       0.2266
     13  O        102.6900   56.2320   30.4060 O.2    29  ASN29      -0.2867
     14  CB       101.9100   56.9280   27.8390 C.3    29  ASN29       0.1155
     15  CG       100.6080   57.0210   28.6160 C.2    29  ASN29       0.2627
     16  OD1      100.3550   57.9740   29.3030 O.2    29  ASN29      -0.2716
     17  ND2       99.8480   55.9590   28.5920 N.am   29  ASN29      -0.0877
     18  N        104.2280   51.7070   29.2010 N.3    46  TYR46      -0.1241
     19  CA       103.1390   52.5680   28.8060 C.3    46  TYR46       0.1605
     20  C        101.9950   52.5140   29.8220 C.2    46  TYR46       0.2264
     21  O        101.4090   51.4330   30.0840 O.2    46  TYR46      -0.2867
     22  CB       102.6510   52.0410   27.4430 C.3    46  TYR46       0.0534
     23  CG       101.5480   52.8250   26.8270 C.ar   46  TYR46      -0.0201
     24  CD1      100.2260   52.5530   27.1210 C.ar   46  TYR46      -0.0009
     25  CD2      101.8230   53.8520   25.8830 C.ar   46  TYR46      -0.0009
     26  CE1       99.1990   53.2530   26.5120 C.ar   46  TYR46       0.0417
     27  CE2      100.7800   54.5700   25.2870 C.ar   46  TYR46       0.0417
     28  CZ        99.4910   54.2870   25.6000 C.ar   46  TYR46       0.1957
     29  OH        98.4610   54.9780   25.0210 O.3    46  TYR46      -0.2866
     30  N        102.4440   55.2320   36.3150 N.3    49  ARG49      -0.1245
     31  CA       102.4360   56.4400   37.0810 C.3    49  ARG49       0.1563
     32  C        103.0780   56.1440   38.4070 C.2    49  ARG49       0.2260
     33  O        102.5720   55.3060   39.1970 O.2    49  ARG49      -0.2867
     34  CB       101.0200   56.9020   37.3070 C.3    49  ARG49       0.0307
     35  CG       100.1550   57.0570   36.0610 C.3    49  ARG49       0.0489
     36  CD       100.5270   58.3010   35.2630 C.3    49  ARG49       0.2205
     37  NE        99.6970   58.4370   34.0820 N.pl3  49  ARG49      -0.0865
     38  CZ        99.9970   58.0350   32.8550 C.cat  49  ARG49       0.5346
     39  NH1      101.1190   57.3990   32.5840 N.pl3  49  ARG49       0.1354
     40  NH2       99.1350   58.2700   31.8670 N.pl3  49  ARG49       0.1354
     41  N         92.7430   52.1580   26.9710 N.3    75  GLU75      -0.1231
     42  CA        93.6670   52.9340   27.8050 C.3    75  GLU75       0.1699
     43  C         93.4660   52.6540   29.3120 C.2    75  GLU75       0.2593
     44  O         92.3090   52.5080   29.8030 O.2    75  GLU75      -0.2718
     45  CB        93.4770   54.4550   27.5700 C.3    75  GLU75       0.0402
     46  CG        94.0040   54.9490   26.2350 C.3    75  GLU75       0.1161
     47  CD        95.4740   54.6580   26.0610 C.2    75  GLU75       0.3649
     48  OE1       96.2390   54.7980   27.0100 O.co2  75  GLU75      -0.2457
     49  OE2       95.8770   54.2700   24.9800 O.co2  75  GLU75      -0.2457
     50  N         94.5780   52.5600   30.0350 N.am   76  SER76      -0.1938
     51  CA        94.5300   52.3160   31.4630 C.3    76  SER76       0.2055
     52  C         95.8890   52.6790   32.0380 C.2    76  SER76       0.2643
     53  O         96.8220   52.9660   31.3040 O.2    76  SER76      -0.2714
     54  CB        94.1400   50.8150   31.7250 C.3    76  SER76       0.2130
     55  OG        95.2080   49.9920   31.3040 O.3    76  SER76      -0.2179
     56  N         95.9980   52.6840   33.3790 N.am   77  THR77      -0.1950
     57  CA        97.2240   52.9260   34.0460 C.3    77  THR77       0.1897
     58  C         97.6070   51.8320   35.0630 C.2    77  THR77       0.2313
     59  O         96.7380   51.0420   35.4900 O.2    77  THR77      -0.2863
     60  CB        97.1620   54.2390   34.8380 C.3    77  THR77       0.1794
     61  OG1       96.0210   54.2130   35.6590 O.3    77  THR77      -0.2208
     62  CG2       97.0440   55.4210   33.8740 C.3    77  THR77       0.0378
     63  N         99.7560   52.2790   38.7120 N.3    79  GLU79      -0.1245
     64  CA       100.1910   53.3870   39.5150 C.3    79  GLU79       0.1567
     65  C        100.7300   52.9630   40.8420 C.2    79  GLU79       0.2260
     66  O        100.1560   52.1040   41.5000 O.2    79  GLU79      -0.2867
     67  CB        99.0150   54.3480   39.8080 C.3    79  GLU79       0.0388
     68  CG        98.1890   54.6690   38.5700 C.3    79  GLU79       0.1160
     69  CD        97.0820   55.7260   38.7550 C.2    79  GLU79       0.3649
     70  OE1       96.9490   56.3650   39.8070 O.co2  79  GLU79      -0.2457
     71  OE2       96.2730   55.8800   37.8310 O.co2  79  GLU79      -0.2457
     72  N         90.1160   50.7580   35.2460 N.3   100  GLY100     -0.1210
     73  CA        90.9850   51.5490   34.4070 C.3   100  GLY100      0.1956
     74  C         92.3020   51.9190   34.9900 C.2   100  GLY100      0.2611
     75  O         93.1650   52.4420   34.2910 O.2   100  GLY100     -0.2717
     76  N         92.4740   51.6310   36.2850 N.am  101  ARG101     -0.1979
     77  CA        93.6420   52.0450   37.0510 C.3   101  ARG101      0.1597
     78  C         93.9600   50.9240   38.0630 C.2   101  ARG101      0.2287
     79  O         93.0830   50.5350   38.8240 O.2   101  ARG101     -0.2864
     80  CB        93.3520   53.3230   37.8380 C.3   101  ARG101      0.0334
     81  CG        92.9290   54.5110   36.9380 C.3   101  ARG101      0.0492
     82  CD        92.4800   55.6830   37.7740 C.3   101  ARG101      0.2205
     83  NE        93.5680   56.2870   38.5380 N.pl3 101  ARG101     -0.0865
     84  CZ        93.3850   57.1980   39.4710 C.cat 101  ARG101      0.5346
     85  NH1       92.1900   57.6560   39.7280 N.pl3 101  ARG101      0.1354
     86  NH2       94.4020   57.7010   40.1520 N.pl3 101  ARG101      0.1354
@<TRIPOS>BOND
     1    49    47   ar
     2    29    28    1
     3    27    28   ar
     4    27    25   ar
     5    28    26   ar
     6    25    23   ar
     7    47    46    1
     8    47    48   ar
     9    46    45    1
    10    26    24   ar
    11    23    24   ar
    12    23    22    1
    13    41    42    1
    14    22    19    1
    15    45    42    1
    16    10    11    1
    17    42    43    1
    18    14    11    1
    19    14    15    1
    20    11    12    1
    21    17    15   am
    22    15    16    2
    23    19    18    1
    24    19    20    1
    25    43    44    2
    26    43    50   am
    27    20    21    2
    28    12    13    2
    29     9     8    1
    30    50    51    1
    31     8     7    1
    32    53    52    2
    33    55    54    1
    34     1     2    1
    35     6     7    1
    36     6     5    1
    37    51    54    1
    38    51    52    1
    39    40    38    1
    40    52    56   am
    41     2     5    1
    42     2     3    1
    43    39    38    1
    44    38    37    2
    45    56    57    1
    46     3     4    2
    47    62    60    1
    48    57    60    1
    49    57    58    1
    50    37    36    1
    51    75    74    2
    52    73    74    1
    53    73    72    1
    54    60    61    1
    55    74    76   am
    56    58    59    2
    57    36    35    1
    58    35    34    1
    59    76    77    1
    60    30    31    1
    61    81    82    1
    62    81    80    1
    63    77    80    1
    64    77    78    1
    65    31    34    1
    66    31    32    1
    67    82    83    1
    68    71    69   ar
    69    78    79    2
    70    32    33    2
    71    83    84    2
    72    68    69    1
    73    68    67    1
    74    63    64    1
    75    69    70   ar
    76    84    85    1
    77    84    86    1
    78    64    67    1
    79    64    65    1
    80    65    66    2
