@<TRIPOS>MOLECULE
tmp/4r37A00.pdb
 87 86 0 0 0
SMALL
GASTEIGER

@<TRIPOS>ATOM
      1  N         96.8180   40.6440   32.2950 N.3    67  GLN67      -0.1231
      2  CA        96.7370   39.2710   31.9690 C.3    67  GLN67       0.1698
      3  C         95.3100   38.8310   31.6660 C.2    67  GLN67       0.2592
      4  O         95.0900   37.7730   31.1470 O.2    67  GLN67      -0.2718
      5  CB        97.3920   38.4020   33.0760 C.3    67  GLN67       0.0381
      6  CG        98.8770   38.6540   33.2200 C.3    67  GLN67       0.0905
      7  CD        99.5360   37.8110   34.2790 C.2    67  GLN67       0.2608
      8  OE1       98.9770   37.5550   35.3630 O.2    67  GLN67      -0.2717
      9  NE2      100.7410   37.4690   34.0340 N.am   67  GLN67      -0.0878
     10  N         94.3410   39.6890   31.8750 N.am   68  ASP68      -0.1960
     11  CA        92.9220   39.3970   31.5760 C.3    68  ASP68       0.1840
     12  C         92.6970   39.3740   30.0610 C.2    68  ASP68       0.2622
     13  O         92.9410   40.3650   29.3810 O.2    68  ASP68      -0.2715
     14  CB        92.1320   40.5410   32.1950 C.3    68  ASP68       0.1450
     15  CG        90.6060   40.3680   32.1420 C.2    68  ASP68       0.3671
     16  OD1       90.1120   39.4180   31.4750 O.co2  68  ASP68      -0.2456
     17  OD2       89.9240   41.2460   32.7400 O.co2  68  ASP68      -0.2456
     18  N         92.2240   38.2500   29.5500 N.am   69  LEU69      -0.1963
     19  CA        91.9310   38.1230   28.1460 C.3    69  LEU69       0.1728
     20  C         90.7620   39.0360   27.7140 C.2    69  LEU69       0.2616
     21  O         90.5520   39.2170   26.5310 O.2    69  LEU69      -0.2715
     22  CB        91.6490   36.6740   27.7810 C.3    69  LEU69       0.0311
     23  CG        92.9380   35.8370   27.9050 C.3    69  LEU69       0.0022
     24  CD1       92.6140   34.3750   27.8480 C.3    69  LEU69       0.0001
     25  CD2       93.9610   36.1880   26.8310 C.3    69  LEU69       0.0001
     26  N         90.0090   39.5880   28.6630 N.am   70  LYS70      -0.1977
     27  CA        89.0120   40.6000   28.2960 C.3    70  LYS70       0.1596
     28  C         89.5920   41.9500   27.9270 C.2    70  LYS70       0.2287
     29  O         88.8940   42.8170   27.3510 O.2    70  LYS70      -0.2864
     30  CB        87.9700   40.7450   29.3990 C.3    70  LYS70       0.0298
     31  CG        87.1680   39.4650   29.6210 C.3    70  LYS70       0.0038
     32  CD        86.0320   39.6740   30.6130 C.3    70  LYS70       0.0206
     33  CE        86.5230   40.1680   31.9590 C.3    70  LYS70       0.1093
     34  NZ        87.4460   39.1850   32.6020 N.3    70  LYS70      -0.1314
     35  N         95.6600   43.5730   37.2480 N.3   118  HIS118     -0.1241
     36  CA        94.8590   44.6790   36.7370 C.3   118  HIS118      0.1621
     37  C         93.7670   45.1410   37.6920 C.2   118  HIS118      0.2264
     38  O         93.0550   44.3340   38.3330 O.2   118  HIS118     -0.2867
     39  CB        94.2390   44.2390   35.4350 C.3   118  HIS118      0.0745
     40  CG        93.2240   43.1500   35.5990 C.ar  118  HIS118      0.0817
     41  ND1       91.8990   43.4250   35.7610 N.ar  118  HIS118     -0.2268
     42  CD2       93.3210   41.8010   35.4930 C.ar  118  HIS118      0.1154
     43  CE1       91.2170   42.3010   35.8850 C.ar  118  HIS118      0.1986
     44  NE2       92.0550   41.2970   35.6970 N.ar  118  HIS118     -0.2212
     45  N         92.7360   40.0370   40.0350 N.3   136  GLY136     -0.1210
     46  CA        92.0500   41.2220   39.5300 C.3   136  GLY136      0.1956
     47  C         91.1190   41.8810   40.5280 C.2   136  GLY136      0.2611
     48  O         90.3810   41.2010   41.2510 O.2   136  GLY136     -0.2717
     49  N         91.1870   43.2130   40.5870 N.am  137  GLU137     -0.1979
     50  CA        90.1990   44.0410   41.2970 C.3   137  GLU137      0.1602
     51  C         90.1470   43.7310   42.8030 C.2   137  GLU137      0.2287
     52  O         89.1170   43.9440   43.4860 O.2   137  GLU137     -0.2864
     53  CB        88.7930   43.9340   40.6340 C.3   137  GLU137      0.0415
     54  CG        88.7050   44.3790   39.1710 C.3   137  GLU137      0.1163
     55  CD        87.3020   44.3510   38.5960 C.2   137  GLU137      0.3649
     56  OE1       86.4670   45.1500   39.0670 O.co2 137  GLU137     -0.2457
     57  OE2       87.0520   43.5430   37.6600 O.co2 137  GLU137     -0.2457
     58  N         92.2100   35.5660   45.7700 N.3   153  HIS153     -0.1226
     59  CA        91.2960   35.5230   44.6660 C.3   153  HIS153      0.1752
     60  C         90.7480   36.8980   44.2320 C.2   153  HIS153      0.2596
     61  O         90.5800   37.8000   45.0400 O.2   153  HIS153     -0.2718
     62  CB        90.1190   34.6560   45.1050 C.3   153  HIS153      0.0759
     63  CG        89.3330   34.1100   43.9910 C.ar  153  HIS153      0.0818
     64  ND1       88.1430   34.6600   43.5680 N.ar  153  HIS153     -0.2268
     65  CD2       89.5480   33.0320   43.2070 C.ar  153  HIS153      0.1154
     66  CE1       87.6520   33.9500   42.5730 C.ar  153  HIS153      0.1986
     67  NE2       88.4940   32.9690   42.3310 N.ar  153  HIS153     -0.2212
     68  N         90.3610   36.9920   42.9640 N.am  154  GLN154     -0.1965
     69  CA        89.7930   38.2390   42.4310 C.3   154  GLN154      0.1733
     70  C         88.6420   38.7380   43.2280 C.2   154  GLN154      0.2616
     71  O         87.8640   37.9460   43.8340 O.2   154  GLN154     -0.2715
     72  CB        89.4130   38.1380   40.9370 C.3   154  GLN154      0.0408
     73  CG        88.4780   37.0280   40.6210 C.3   154  GLN154      0.0908
     74  CD        89.2260   35.7720   40.1960 C.2   154  GLN154      0.2608
     75  OE1       90.3290   35.3950   40.7410 O.2   154  GLN154     -0.2717
     76  NE2       88.6080   35.0640   39.2330 N.am  154  GLN154     -0.0878
     77  N         88.5190   40.0510   43.2560 N.am  155  PHE155     -0.1974
     78  CA        87.4070   40.7690   43.9330 C.3   155  PHE155      0.1639
     79  C         87.4420   40.7040   45.4890 C.2   155  PHE155      0.2290
     80  O         86.4770   41.1590   46.1430 O.2   155  PHE155     -0.2864
     81  CB        86.0200   40.3070   43.4420 C.3   155  PHE155      0.0560
     82  CG        85.8450   40.3640   41.9460 C.ar  155  PHE155     -0.0200
     83  CD1       85.7860   41.5930   41.3010 C.ar  155  PHE155     -0.0042
     84  CD2       85.8520   39.1970   41.1850 C.ar  155  PHE155     -0.0042
     85  CE1       85.6670   41.6590   39.9110 C.ar  155  PHE155     -0.0003
     86  CE2       85.7410   39.2500   39.7880 C.ar  155  PHE155     -0.0003
     87  CZ        85.6360   40.4930   39.1570 C.ar  155  PHE155     -0.0000
@<TRIPOS>BOND
     1    21    20    2
     2    25    23    1
     3    29    28    2
     4    20    19    1
     5    20    26   am
     6    22    23    1
     7    22    19    1
     8    24    23    1
     9    28    27    1
    10    19    18    1
    11    27    26    1
    12    27    30    1
    13    13    12    2
    14    30    31    1
    15    18    12   am
    16    31    32    1
    17    12    11    1
    18    32    33    1
    19     4     3    2
    20    16    15   ar
    21    11    10    1
    22    11    14    1
    23     3    10   am
    24     3     2    1
    25    33    34    1
    26     2     1    1
    27     2     5    1
    28    15    14    1
    29    15    17   ar
    30     5     6    1
    31     6     7    1
    32     9     7   am
    33     7     8    2
    34    39    40    1
    35    39    36    1
    36    42    40   ar
    37    42    44   ar
    38    40    41   ar
    39    44    43   ar
    40    41    43   ar
    41    36    35    1
    42    36    37    1
    43    57    55   ar
    44    37    38    2
    45    55    56   ar
    46    55    54    1
    47    87    86   ar
    48    87    85   ar
    49    54    53    1
    50    76    74   am
    51    46    45    1
    52    46    47    1
    53    86    84   ar
    54    85    83   ar
    55    74    73    1
    56    74    75    2
    57    47    49   am
    58    47    48    2
    59    49    50    1
    60    73    72    1
    61    53    50    1
    62    72    69    1
    63    84    82   ar
    64    50    51    1
    65    83    82   ar
    66    82    81    1
    67    67    66   ar
    68    67    65   ar
    69    69    68    1
    70    69    70    1
    71    66    64   ar
    72    51    52    2
    73    68    60   am
    74    65    63   ar
    75    70    77   am
    76    70    71    2
    77    77    78    1
    78    81    78    1
    79    64    63   ar
    80    78    79    1
    81    63    62    1
    82    60    59    1
    83    60    61    2
    84    59    62    1
    85    59    58    1
    86    79    80    2
