@<TRIPOS>MOLECULE
tmp/4r3aB00.pdb
 166 160 0 0 0
SMALL
GASTEIGER

@<TRIPOS>ATOM
      1  N        -12.3410   32.8830   19.1090 N.3   129  ARG129     -0.1245
      2  CA       -12.9630   31.5580   19.1580 C.3   129  ARG129      0.1563
      3  C        -11.9490   30.5600   19.7470 C.2   129  ARG129      0.2260
      4  O        -12.2970   29.6500   20.4960 O.2   129  ARG129     -0.2867
      5  CB       -13.4100   31.1180   17.7660 C.3   129  ARG129      0.0307
      6  CG       -14.3230   32.1130   17.0610 C.3   129  ARG129      0.0489
      7  CD       -14.6760   31.6370   15.6600 C.3   129  ARG129      0.2205
      8  NE       -16.0140   32.0650   15.2530 N.pl3 129  ARG129     -0.0865
      9  CZ       -16.2930   33.2050   14.6260 C.cat 129  ARG129      0.5346
     10  NH1      -15.3310   34.0650   14.3180 N.pl3 129  ARG129      0.1354
     11  NH2      -17.5490   33.4870   14.3060 N.pl3 129  ARG129      0.1354
     12  N        -19.8480   30.8580   21.5120 N.3   195  GLU195     -0.1231
     13  CA       -20.5680   31.4070   20.3650 C.3   195  GLU195      0.1699
     14  C        -21.8820   32.0530   20.7940 C.2   195  GLU195      0.2592
     15  O        -22.1490   33.2110   20.4800 O.2   195  GLU195     -0.2718
     16  CB       -20.8240   30.3220   19.3160 C.3   195  GLU195      0.0402
     17  CG       -19.5930   29.9520   18.4990 C.3   195  GLU195      0.1161
     18  CD       -18.9960   31.1390   17.7620 C.2   195  GLU195      0.3649
     19  OE1      -19.7690   32.0120   17.3100 O.co2 195  GLU195     -0.2457
     20  OE2      -17.7530   31.2040   17.6430 O.co2 195  GLU195     -0.2457
     21  N        -22.6890   31.2900   21.5240 N.am  196  VAL196     -0.1980
     22  CA       -24.0460   31.6900   21.8780 C.3   196  VAL196      0.1595
     23  C        -24.0300   32.8080   22.9150 C.2   196  VAL196      0.2287
     24  O        -24.8620   33.7150   22.8690 O.2   196  VAL196     -0.2864
     25  CB       -24.8550   30.4990   22.4290 C.3   196  VAL196      0.0276
     26  CG1      -26.2840   30.9220   22.7690 C.3   196  VAL196      0.0022
     27  CG2      -24.8660   29.3540   21.4250 C.3   196  VAL196      0.0022
     28  N        -21.5820   34.9770   23.4410 N.3   198  THR198     -0.1203
     29  CA       -21.0830   36.1570   22.7450 C.3   198  THR198      0.1994
     30  C        -22.2140   36.8230   21.9590 C.2   198  THR198      0.2618
     31  O        -22.3160   38.0500   21.9210 O.2   198  THR198     -0.2717
     32  CB       -19.9360   35.8000   21.7780 C.3   198  THR198      0.1784
     33  OG1      -18.8980   35.1180   22.4890 O.3   198  THR198     -0.2211
     34  CG2      -19.3660   37.0510   21.1330 C.3   198  THR198      0.0376
     35  N        -23.0590   36.0030   21.3380 N.am  199  ASN199     -0.1960
     36  CA       -24.1910   36.4960   20.5560 C.3   199  ASN199      0.1819
     37  C        -25.1170   37.3750   21.3840 C.2   199  ASN199      0.2621
     38  O        -25.5970   38.4030   20.9110 O.2   199  ASN199     -0.2715
     39  CB       -24.9930   35.3250   19.9700 C.3   199  ASN199      0.1195
     40  CG       -24.5550   34.9510   18.5640 C.2   199  ASN199      0.2630
     41  OD1      -24.3200   35.8150   17.7200 O.2   199  ASN199     -0.2716
     42  ND2      -24.4490   33.6510   18.3070 N.am  199  ASN199     -0.0877
     43  N        -25.3610   36.9660   22.6230 N.am  200  ALA200     -0.1977
     44  CA       -26.2160   37.7200   23.5310 C.3   200  ALA200      0.1597
     45  C        -25.6900   39.1290   23.7910 C.2   200  ALA200      0.2287
     46  O        -26.4080   40.1090   23.6110 O.2   200  ALA200     -0.2864
     47  CB       -26.3590   36.9770   24.8430 C.3   200  ALA200      0.0319
     48  N        -23.3820   40.8450   22.2270 N.3   202  GLN202     -0.1231
     49  CA       -23.1070   41.6290   21.0270 C.3   202  GLN202      0.1698
     50  C        -24.3620   42.1960   20.3670 C.2   202  GLN202      0.2592
     51  O        -24.3450   43.3220   19.8730 O.2   202  GLN202     -0.2718
     52  CB       -22.3550   40.7780   20.0040 C.3   202  GLN202      0.0381
     53  CG       -20.9020   40.5140   20.3470 C.3   202  GLN202      0.0905
     54  CD       -20.1810   39.7550   19.2490 C.2   202  GLN202      0.2608
     55  OE1      -20.7900   39.3370   18.2630 O.2   202  GLN202     -0.2717
     56  NE2      -18.8770   39.5730   19.4150 N.am  202  GLN202     -0.0878
     57  N        -25.4460   41.4280   20.3700 N.am  203  HIS203     -0.1962
     58  CA       -26.6000   41.7340   19.5260 C.3   203  HIS203      0.1787
     59  C        -27.8620   42.0870   20.3100 C.2   203  HIS203      0.2620
     60  O        -28.6530   42.9210   19.8650 O.2   203  HIS203     -0.2715
     61  CB       -26.8810   40.5480   18.6010 C.3   203  HIS203      0.0785
     62  CG       -25.7400   40.2170   17.6890 C.ar  203  HIS203      0.0821
     63  ND1      -24.9560   41.1850   17.0980 N.ar  203  HIS203     -0.2267
     64  CD2      -25.2420   39.0270   17.2760 C.ar  203  HIS203      0.1154
     65  CE1      -24.0300   40.6060   16.3540 C.ar  203  HIS203      0.1986
     66  NE2      -24.1830   39.2970   16.4440 N.ar  203  HIS203     -0.2212
     67  N        -28.0560   41.4690   21.4710 N.am  204  ALA204     -0.1977
     68  CA       -29.3380   41.5650   22.1670 C.3   204  ALA204      0.1597
     69  C        -29.5760   42.9690   22.7130 C.2   204  ALA204      0.2287
     70  O        -30.6990   43.3150   23.0740 O.2   204  ALA204     -0.2864
     71  CB       -29.4160   40.5430   23.2980 C.3   204  ALA204      0.0319
     72  N        -31.4820   35.5910   27.4440 N.3   227  ASP227     -0.1239
     73  CA       -31.5260   37.0520   27.4190 C.3   227  ASP227      0.1674
     74  C        -32.8850   37.5480   27.8980 C.2   227  ASP227      0.2266
     75  O        -33.8620   36.8000   27.9050 O.2   227  ASP227     -0.2867
     76  CB       -31.2400   37.5850   26.0150 C.3   227  ASP227      0.1410
     77  CG       -29.8620   37.2170   25.5250 C.2   227  ASP227      0.3668
     78  OD1      -29.0310   36.8010   26.3580 O.co2 227  ASP227     -0.2456
     79  OD2      -29.6070   37.3480   24.3100 O.co2 227  ASP227     -0.2456
     80  N        -33.3080   41.9610   23.1870 N.3   230  ARG230     -0.1231
     81  CA       -33.9630   42.4050   21.9620 C.3   230  ARG230      0.1694
     82  C        -34.6740   41.2760   21.2190 C.2   230  ARG230      0.2593
     83  O        -35.6870   41.5050   20.5580 O.2   230  ARG230     -0.2718
     84  CB       -32.9020   43.0560   21.0660 C.3   230  ARG230      0.0321
     85  CG       -33.2240   43.2240   19.5870 C.3   230  ARG230      0.0489
     86  CD       -31.9180   43.4160   18.8280 C.3   230  ARG230      0.2205
     87  NE       -32.1120   43.7940   17.4270 N.pl3 230  ARG230     -0.0865
     88  CZ       -31.8900   45.0040   16.9180 C.cat 230  ARG230      0.5346
     89  NH1      -31.4520   45.9970   17.6820 N.pl3 230  ARG230      0.1354
     90  NH2      -32.1040   45.2270   15.6270 N.pl3 230  ARG230      0.1354
     91  N        -34.1450   40.0620   21.3280 N.am  231  GLY231     -0.1942
     92  CA       -34.7230   38.9150   20.6490 C.3   231  GLY231      0.2014
     93  C        -34.0900   38.7010   19.2880 C.2   231  GLY231      0.2639
     94  O        -33.6860   39.6610   18.6290 O.2   231  GLY231     -0.2714
     95  N        -34.0070   37.4440   18.8600 N.am  232  ILE232     -0.1963
     96  CA       -33.5320   37.1270   17.5170 C.3   232  ILE232      0.1712
     97  C        -34.5930   37.4990   16.4800 C.2   232  ILE232      0.2458
     98  O        -35.7570   37.1340   16.6480 O.2   232  ILE232     -0.2730
     99  CB       -33.1950   35.6260   17.3620 C.3   232  ILE232      0.0289
    100  CG1      -32.0970   35.2250   18.3520 C.3   232  ILE232      0.0022
    101  CG2      -32.7560   35.3150   15.9210 C.3   232  ILE232      0.0023
    102  CD1      -31.7470   33.7460   18.3430 C.3   232  ILE232      0.0001
    103  N        -34.2110   38.2550   15.4310 N.am  233  PRO233     -0.2727
    104  CA       -35.1900   38.6040   14.3930 C.3   233  PRO233      0.1402
    105  C        -35.9830   37.3920   13.8980 C.2   233  PRO233      0.2269
    106  O        -35.4330   36.2950   13.7940 O.2   233  PRO233     -0.2865
    107  CB       -34.3190   39.1820   13.2750 C.3   233  PRO233      0.0296
    108  CG       -33.1410   39.7410   13.9770 C.3   233  PRO233      0.0237
    109  CD       -32.8850   38.8300   15.1440 C.3   233  PRO233      0.0939
    110  N        -34.9310   35.6120   10.6730 N.3   236  CYS236     -0.1235
    111  CA       -33.7230   34.8200   10.8800 C.3   236  CYS236      0.1677
    112  C        -34.0380   33.5670   11.6930 C.2   236  CYS236      0.2270
    113  O        -34.4730   33.6550   12.8420 O.2   236  CYS236     -0.2867
    114  CB       -32.6440   35.6490   11.5830 C.3   236  CYS236      0.0956
    115  SG       -30.9970   34.8970   11.5460 S.3   236  CYS236     -0.0801
    116  N        -32.1220   31.2450   13.1190 N.3   238  TRP238     -0.1241
    117  CA       -30.8300   30.8710   13.6700 C.3   238  TRP238      0.1605
    118  C        -30.9710   29.5490   14.4250 C.2   238  TRP238      0.2264
    119  O        -31.9830   29.3230   15.0870 O.2   238  TRP238     -0.2867
    120  CB       -30.3320   31.9880   14.5990 C.3   238  TRP238      0.0550
    121  CG       -28.9010   31.8840   15.0450 C.ar  238  TRP238      0.0003
    122  CD1      -27.8140   32.4610   14.4520 C.ar  238  TRP238      0.0946
    123  CD2      -28.4050   31.1810   16.1910 C.ar  238  TRP238      0.0152
    124  NE1      -26.6720   32.1530   15.1530 N.ar  238  TRP238     -0.2442
    125  CE2      -27.0080   31.3680   16.2240 C.ar  238  TRP238      0.0810
    126  CE3      -29.0050   30.4080   17.1890 C.ar  238  TRP238      0.0012
    127  CZ2      -26.2040   30.8090   17.2140 C.ar  238  TRP238      0.0191
    128  CZ3      -28.2040   29.8530   18.1700 C.ar  238  TRP238      0.0001
    129  CH2      -26.8190   30.0570   18.1750 C.ar  238  TRP238      0.0015
    130  N        -27.7230   32.4150    9.1490 N.3   242  GLY242     -0.1210
    131  CA       -26.8840   33.3480    9.8740 C.3   242  GLY242      0.1956
    132  C        -25.5570   33.5430    9.1750 C.2   242  GLY242      0.2612
    133  O        -25.4230   33.2980    7.9760 O.2   242  GLY242     -0.2717
    134  N        -24.5730   33.9860    9.9490 N.am  243  ASN243     -0.1960
    135  CA       -23.2250   34.2080    9.4540 C.3   243  ASN243      0.1819
    136  C        -22.3960   33.0600   10.0100 C.2   243  ASN243      0.2621
    137  O        -22.9480   32.0060   10.3240 O.2   243  ASN243     -0.2715
    138  CB       -22.6740   35.5690    9.8870 C.3   243  ASN243      0.1195
    139  CG       -23.4620   36.7290    9.3080 C.2   243  ASN243      0.2630
    140  OD1      -23.9340   36.6710    8.1710 O.2   243  ASN243     -0.2716
    141  ND2      -23.6050   37.7930   10.0890 N.am  243  ASN243     -0.0877
    142  N        -21.0860   33.2380   10.1210 N.am  244  LEU244     -0.1963
    143  CA       -20.2130   32.1130   10.4230 C.3   244  LEU244      0.1728
    144  C        -20.5540   31.4620   11.7650 C.2   244  LEU244      0.2617
    145  O        -20.5000   30.2400   11.8950 O.2   244  LEU244     -0.2715
    146  CB       -18.7540   32.5630   10.4240 C.3   244  LEU244      0.0311
    147  CG       -17.7410   31.4190   10.4520 C.3   244  LEU244      0.0022
    148  CD1      -17.7250   30.6760    9.1240 C.3   244  LEU244      0.0001
    149  CD2      -16.3630   31.9340   10.7900 C.3   244  LEU244      0.0001
    150  N        -20.9080   32.2810   12.7520 N.am  245  GLY245     -0.1940
    151  CA       -21.3120   31.7940   14.0630 C.3   245  GLY245      0.2014
    152  C        -22.3670   30.7000   14.0740 C.2   245  GLY245      0.2639
    153  O        -22.2460   29.7170   14.8080 O.2   245  GLY245     -0.2714
    154  N        -23.4020   30.8720   13.2570 N.am  246  SER246     -0.1949
    155  CA       -24.5210   29.9330   13.2050 C.3   246  SER246      0.1924
    156  C        -24.0820   28.5680   12.6870 C.2   246  SER246      0.2314
    157  O        -24.5980   27.5360   13.1040 O.2   246  SER246     -0.2863
    158  CB       -25.6450   30.4800   12.3230 C.3   246  SER246      0.2116
    159  OG       -25.2810   30.4460   10.9550 O.3   246  SER246     -0.2180
    160  N        -34.2050   36.1320   24.2490 N.3   266  THR266     -0.1218
    161  CA       -33.8150   34.8810   23.6050 C.3   266  THR266      0.1862
    162  C        -33.4170   33.8320   24.6380 C.2   266  THR266      0.2287
    163  O        -32.5740   34.0810   25.4970 O.2   266  THR266     -0.2866
    164  CB       -32.6240   35.0920   22.6490 C.3   266  THR266      0.1770
    165  OG1      -32.8290   36.2740   21.8650 O.3   266  THR266     -0.2211
    166  CG2      -32.4480   33.8860   21.7400 C.3   266  THR266      0.0375
@<TRIPOS>BOND
     1   133   132    2
     2   140   139    2
     3   148   147    1
     4   130   131    1
     5   132   131    1
     6   132   134   am
     7   139   138    1
     8   139   141   am
     9   135   138    1
    10   135   134    1
    11   135   136    1
    12   136   142   am
    13   136   137    2
    14   142   143    1
    15   143   146    1
    16   143   144    1
    17   146   147    1
    18   147   149    1
    19   110   111    1
    20   111   114    1
    21   111   112    1
    22   159   158    1
    23   115   114    1
    24   112   113    2
    25   144   145    2
    26   144   150   am
    27   158   155    1
    28   156   157    2
    29   156   155    1
    30   150   151    1
    31   116   117    1
    32   155   154    1
    33   154   152   am
    34   107   108    1
    35   107   104    1
    36   117   118    1
    37   117   120    1
    38   106   105    2
    39   105   104    1
    40   108   109    1
    41   151   152    1
    42   152   153    2
    43    11     9    1
    44    10     9    1
    45   104   103    1
    46   118   119    2
    47   122   121   ar
    48   122   124   ar
    49   120   121    1
    50     9     8    2
    51   121   123   ar
    52   109   103    1
    53   124   125   ar
    54     8     7    1
    55   103    97   am
    56    90    88    1
    57     7     6    1
    58   101    99    1
    59   123   125   ar
    60   123   126   ar
    61   125   127   ar
    62    65    66   ar
    63    65    63   ar
    64    66    64   ar
    65    97    98    2
    66    97    96    1
    67    88    87    2
    68    88    89    1
    69     6     5    1
    70    63    62   ar
    71   126   128   ar
    72   127   129   ar
    73    64    62   ar
    74    19    18   ar
    75    99    96    1
    76    99   100    1
    77    87    86    1
    78    96    95    1
    79    20    18   ar
    80    62    61    1
    81    41    40    2
    82    18    17    1
    83     5     2    1
    84   128   129   ar
    85    55    54    2
    86    42    40   am
    87   102   100    1
    88    17    16    1
    89    40    39    1
    90    61    58    1
    91    94    93    2
    92    86    85    1
    93    95    93   am
    94     1     2    1
    95     2     3    1
    96    54    56   am
    97    54    53    1
    98    93    92    1
    99    16    13    1
   100    58    59    1
   101    58    57    1
   102    85    84    1
   103     3     4    2
   104    60    59    2
   105    51    50    2
   106    39    36    1
   107    52    53    1
   108    52    49    1
   109    59    67   am
   110    13    14    1
   111    13    12    1
   112    50    57   am
   113    50    49    1
   114    15    14    2
   115    36    35    1
   116    36    37    1
   117    83    82    2
   118    92    91    1
   119    14    21   am
   120    38    37    2
   121    49    48    1
   122    84    81    1
   123    34    32    1
   124    82    91   am
   125    82    81    1
   126    35    30   am
   127    37    43   am
   128    27    25    1
   129    67    68    1
   130    21    22    1
   131   166   164    1
   132    32    33    1
   133    32    29    1
   134   165   164    1
   135    22    25    1
   136    22    23    1
   137    31    30    2
   138    30    29    1
   139    81    80    1
   140    68    69    1
   141    68    71    1
   142    25    26    1
   143    43    44    1
   144   164   161    1
   145    69    70    2
   146    29    28    1
   147    24    23    2
   148    44    45    1
   149    44    47    1
   150   161   160    1
   151   161   162    1
   152    46    45    2
   153    79    77   ar
   154   162   163    2
   155    77    76    1
   156    77    78   ar
   157    76    73    1
   158    73    72    1
   159    73    74    1
   160    74    75    2
