@<TRIPOS>MOLECULE
tmp/4r3aA01.pdb
 178 162 0 0 0
SMALL
GASTEIGER

@<TRIPOS>ATOM
      1  N          5.8050   22.9150   55.6180 N.3    14  THR14      -0.1218
      2  CA         6.5600   22.1310   56.5670 C.3    14  THR14       0.1862
      3  C          6.4870   22.7440   57.9540 C.2    14  THR14       0.2287
      4  O          6.4470   23.9660   58.1030 O.2    14  THR14      -0.2866
      5  CB         8.0370   22.0370   56.1450 C.3    14  THR14       0.1770
      6  OG1        8.6280   23.3430   56.1940 O.3    14  THR14      -0.2211
      7  CG2        8.1630   21.4850   54.7310 C.3    14  THR14       0.0375
      8  N          8.5320   22.3500   61.7620 N.3    16  ALA16      -0.1245
      9  CA         9.6570   21.8000   62.5110 C.3    16  ALA16       0.1562
     10  C          9.5360   22.0910   64.0060 C.2    16  ALA16       0.2260
     11  O          8.9920   23.1190   64.4140 O.2    16  ALA16      -0.2867
     12  CB        10.9680   22.3650   61.9730 C.3    16  ALA16       0.0290
     13  N         11.7930   23.0930   66.7310 N.3    18  ILE18      -0.1245
     14  CA        13.1500   23.5910   66.9270 C.3    18  ILE18       0.1561
     15  C         13.5970   23.4170   68.3750 C.2    18  ILE18       0.2260
     16  O         14.7240   23.7630   68.7160 O.2    18  ILE18      -0.2867
     17  CB        13.3130   25.0670   66.5030 C.3    18  ILE18       0.0252
     18  CG1       12.5040   26.0120   67.3880 C.3    18  ILE18       0.0019
     19  CG2       12.9160   25.2440   65.0430 C.3    18  ILE18       0.0019
     20  CD1       12.9610   27.4490   67.2720 C.3    18  ILE18       0.0001
     21  N         16.5750   20.4140   65.2020 N.3    23  GLU23      -0.1245
     22  CA        15.3880   21.0390   64.6140 C.3    23  GLU23       0.1567
     23  C         14.7510   20.1920   63.5130 C.2    23  GLU23       0.2260
     24  O         14.6570   20.6250   62.3670 O.2    23  GLU23      -0.2867
     25  CB        15.7440   22.4170   64.0490 C.3    23  GLU23       0.0388
     26  CG        16.1320   23.4440   65.1040 C.3    23  GLU23       0.1160
     27  CD        17.6130   23.7460   65.1240 C.2    23  GLU23       0.3649
     28  OE1       18.1730   24.0760   64.0540 O.co2  23  GLU23      -0.2457
     29  OE2       18.2140   23.6540   66.2150 O.co2  23  GLU23      -0.2457
     30  N         12.0860   18.1600   61.1360 N.3    25  LEU25      -0.1245
     31  CA        10.7490   18.2730   60.5690 C.3    25  LEU25       0.1561
     32  C          9.8260   17.3060   61.2870 C.2    25  LEU25       0.2260
     33  O         10.1680   16.1400   61.4710 O.2    25  LEU25      -0.2867
     34  CB        10.7670   17.9710   59.0740 C.3    25  LEU25       0.0270
     35  CG        11.3830   19.0500   58.1910 C.3    25  LEU25       0.0019
     36  CD1       11.6390   18.5120   56.8050 C.3    25  LEU25       0.0001
     37  CD2       10.4550   20.2370   58.1260 C.3    25  LEU25       0.0001
     38  N         16.4560   17.2780   59.8100 N.3    47  ASN47      -0.1225
     39  CA        16.5160   18.7020   59.4830 C.3    47  ASN47       0.1785
     40  C         16.3620   18.9470   57.9860 C.2    47  ASN47       0.2597
     41  O         16.9490   18.2410   57.1680 O.2    47  ASN47      -0.2718
     42  CB        17.8210   19.3180   59.9680 C.3    47  ASN47       0.1169
     43  CG        17.8240   20.8220   59.8400 C.2    47  ASN47       0.2627
     44  OD1       18.1610   21.3670   58.7910 O.2    47  ASN47      -0.2716
     45  ND2       17.4290   21.5080   60.9080 N.am   47  ASN47      -0.0877
     46  N         15.5960   19.9690   57.6310 N.am   48  CYS48      -0.1956
     47  CA        15.2540   20.2200   56.2370 C.3    48  CYS48       0.1843
     48  C         16.4560   20.5890   55.3550 C.2    48  CYS48       0.2625
     49  O         16.3260   20.6780   54.1340 O.2    48  CYS48      -0.2714
     50  CB        14.2010   21.3320   56.1670 C.3    48  CYS48       0.0997
     51  SG        13.2010   21.2780   54.6670 S.3    48  CYS48      -0.0797
     52  N         17.6270   20.7750   55.9620 N.am   49  ARG49      -0.1977
     53  CA        18.8130   21.2090   55.2170 C.3    49  ARG49       0.1597
     54  C         19.3220   20.1830   54.2120 C.2    49  ARG49       0.2287
     55  O         20.2510   20.4630   53.4560 O.2    49  ARG49      -0.2864
     56  CB        19.9510   21.5610   56.1830 C.3    49  ARG49       0.0334
     57  CG        20.5470   20.3680   56.9300 C.3    49  ARG49       0.0492
     58  CD        21.8280   20.7510   57.6540 C.3    49  ARG49       0.2205
     59  NE        21.6500   21.9180   58.5140 N.pl3  49  ARG49      -0.0865
     60  CZ        21.2250   21.8750   59.7740 C.cat  49  ARG49       0.5346
     61  NH1       20.9240   20.7120   60.3490 N.pl3  49  ARG49       0.1354
     62  NH2       21.0990   23.0070   60.4630 N.pl3  49  ARG49       0.1354
     63  N         17.8840   19.5240   51.6650 N.3    51  LEU51      -0.1231
     64  CA        17.5530   20.0780   50.3560 C.3    51  LEU51       0.1693
     65  C         18.6640   20.9530   49.7790 C.2    51  LEU51       0.2591
     66  O         18.6330   21.3040   48.6000 O.2    51  LEU51      -0.2718
     67  CB        16.2670   20.9070   50.4460 C.3    51  LEU51       0.0284
     68  CG        14.9900   20.1760   50.8550 C.3    51  LEU51       0.0019
     69  CD1       13.8980   21.1800   51.1980 C.3    51  LEU51       0.0001
     70  CD2       14.5300   19.2480   49.7500 C.3    51  LEU51       0.0001
     71  N         19.6470   21.2980   50.6010 N.am   52  GLN52      -0.1979
     72  CA        20.6940   22.2160   50.1700 C.3    52  GLN52       0.1601
     73  C         21.8410   21.4590   49.5030 C.2    52  GLN52       0.2287
     74  O         21.9480   20.2390   49.6460 O.2    52  GLN52      -0.2864
     75  CB        21.2070   23.0170   51.3680 C.3    52  GLN52       0.0394
     76  CG        20.1380   23.8380   52.0730 C.3    52  GLN52       0.0908
     77  CD        20.6370   24.4800   53.3580 C.2    52  GLN52       0.2608
     78  OE1       21.8390   24.5450   53.6080 O.2    52  GLN52      -0.2717
     79  NE2       19.7090   24.9560   54.1810 N.am   52  GLN52      -0.0878
     80  N         21.7700   30.7850   53.8010 N.3    61  VAL61      -0.1245
     81  CA        21.6870   29.7700   54.8490 C.3    61  VAL61       0.1561
     82  C         21.9350   30.3400   56.2340 C.2    61  VAL61       0.2260
     83  O         21.2430   29.9920   57.1920 O.2    61  VAL61      -0.2867
     84  CB        22.6950   28.6340   54.6050 C.3    61  VAL61       0.0252
     85  CG1       22.7470   27.6740   55.7980 C.3    61  VAL61       0.0019
     86  CG2       22.3250   27.8790   53.3450 C.3    61  VAL61       0.0019
     87  N         18.9680   32.1820   57.4210 N.3    64  LEU64      -0.1231
     88  CA        17.9610   31.2710   57.9330 C.3    64  LEU64       0.1693
     89  C         18.3450   30.8390   59.3440 C.2    64  LEU64       0.2591
     90  O         17.5140   30.8490   60.2540 O.2    64  LEU64      -0.2718
     91  CB        17.8280   30.0400   57.0320 C.3    64  LEU64       0.0284
     92  CG        17.3670   30.2470   55.5910 C.3    64  LEU64       0.0019
     93  CD1       17.2350   28.8980   54.8970 C.3    64  LEU64       0.0001
     94  CD2       16.0530   30.9990   55.5510 C.3    64  LEU64       0.0001
     95  N         19.6200   30.5110   59.5320 N.am   65  ALA65      -0.1980
     96  CA        20.1060   30.0410   60.8240 C.3    65  ALA65       0.1597
     97  C         19.9110   31.1240   61.8760 C.2    65  ALA65       0.2287
     98  O         19.5110   30.8440   63.0080 O.2    65  ALA65      -0.2864
     99  CB        21.5680   29.6410   60.7300 C.3    65  ALA65       0.0319
    100  N         16.1550   31.4850   62.8670 N.3    68  ILE68      -0.1245
    101  CA        15.6870   30.4740   63.7970 C.3    68  ILE68       0.1561
    102  C         16.1510   30.8250   65.2040 C.2    68  ILE68       0.2260
    103  O         15.3630   30.7910   66.1450 O.2    68  ILE68      -0.2867
    104  CB        16.1930   29.0850   63.4140 C.3    68  ILE68       0.0252
    105  CG1       15.6360   28.6870   62.0490 C.3    68  ILE68       0.0019
    106  CG2       15.7740   28.0550   64.4610 C.3    68  ILE68       0.0019
    107  CD1       16.2430   27.4120   61.4670 C.3    68  ILE68       0.0001
    108  N         16.0910   30.5570   47.6230 N.3    78  ILE78      -0.1245
    109  CA        17.2810   29.7330   47.8240 C.3    78  ILE78       0.1561
    110  C         17.3350   28.5620   46.8590 C.2    78  ILE78       0.2260
    111  O         16.3010   27.9920   46.5100 O.2    78  ILE78      -0.2867
    112  CB        17.3530   29.2130   49.2670 C.3    78  ILE78       0.0252
    113  CG1       18.6540   28.4530   49.4950 C.3    78  ILE78       0.0019
    114  CG2       16.1570   28.3300   49.5790 C.3    78  ILE78       0.0019
    115  CD1       18.9970   28.3000   50.9610 C.3    78  ILE78       0.0001
    116  N         17.9240   24.8440   45.8650 N.3    80  ASN80      -0.1240
    117  CA        17.7180   23.5770   46.5660 C.3    80  ASN80       0.1653
    118  C         17.8160   22.4360   45.5740 C.2    80  ASN80       0.2266
    119  O         17.8610   22.6660   44.3680 O.2    80  ASN80      -0.2867
    120  CB        16.3560   23.5370   47.2770 C.3    80  ASN80       0.1155
    121  CG        16.3450   24.2610   48.6280 C.2    80  ASN80       0.2627
    122  OD1       15.2840   24.4090   49.2280 O.2    80  ASN80      -0.2716
    123  ND2       17.5040   24.7080   49.1150 N.am   80  ASN80      -0.0877
    124  N         14.0460   27.8350   45.2080 N.3    90  ASN90      -0.1240
    125  CA        12.9780   27.6970   46.1910 C.3    90  ASN90       0.1653
    126  C         12.7100   28.9980   46.9240 C.2    90  ASN90       0.2266
    127  O         13.5820   29.4780   47.6430 O.2    90  ASN90      -0.2867
    128  CB        13.3300   26.6040   47.2000 C.3    90  ASN90       0.1155
    129  CG        12.3050   26.4850   48.3110 C.2    90  ASN90       0.2627
    130  OD1       11.2450   27.1120   48.2730 O.2    90  ASN90      -0.2716
    131  ND2       12.6160   25.6720   49.3120 N.am   90  ASN90      -0.0877
    132  N         11.3840   30.5250   49.8590 N.3    92  LEU92      -0.1245
    133  CA        11.0670   30.0510   51.1950 C.3    92  LEU92       0.1561
    134  C         10.6020   31.1790   52.1170 C.2    92  LEU92       0.2260
    135  O         11.2720   32.2040   52.2150 O.2    92  LEU92      -0.2867
    136  CB        12.3050   29.3660   51.7680 C.3    92  LEU92       0.0270
    137  CG        12.2690   28.7820   53.1740 C.3    92  LEU92       0.0019
    138  CD1       11.1330   27.8020   53.3300 C.3    92  LEU92       0.0001
    139  CD2       13.6090   28.1040   53.4470 C.3    92  LEU92       0.0001
    140  N          9.4210   31.5900   56.1250 N.3    94  MET94      -0.1245
    141  CA         9.3000   30.8980   57.4010 C.3    94  MET94       0.1570
    142  C          9.4520   31.7990   58.6140 C.2    94  MET94       0.2261
    143  O          9.9160   32.9300   58.5140 O.2    94  MET94      -0.2867
    144  CB        10.3530   29.7860   57.4940 C.3    94  MET94       0.0387
    145  CG        11.5990   30.1760   58.3150 C.3    94  MET94       0.0595
    146  SD        12.8270   28.8750   58.4360 S.3    94  MET94      -0.1393
    147  CE        13.2010   28.6540   56.7120 C.3    94  MET94       0.0692
    148  N          8.4240   25.9500   64.2850 N.3   107  PHE107     -0.1227
    149  CA         8.5680   26.7590   63.0910 C.3   107  PHE107      0.1736
    150  C          7.8240   26.1910   61.9120 C.2   107  PHE107      0.2595
    151  O          7.7010   24.9800   61.7560 O.2   107  PHE107     -0.2718
    152  CB        10.0480   26.8690   62.7160 C.3   107  PHE107      0.0547
    153  CG        10.6970   28.1610   63.1200 C.ar  107  PHE107     -0.0202
    154  CD1       10.9510   28.4420   64.4510 C.ar  107  PHE107     -0.0042
    155  CD2       11.0920   29.0790   62.1580 C.ar  107  PHE107     -0.0042
    156  CE1       11.5660   29.6230   64.8140 C.ar  107  PHE107     -0.0003
    157  CE2       11.7120   30.2630   62.5150 C.ar  107  PHE107     -0.0003
    158  CZ        11.9470   30.5360   63.8380 C.ar  107  PHE107     -0.0000
    159  N          7.3310   27.1040   61.0890 N.am  108  VAL108     -0.1966
    160  CA         6.6310   26.7830   59.8600 C.3   108  VAL108      0.1727
    161  C          7.3440   27.4780   58.7420 C.2   108  VAL108      0.2616
    162  O          7.8950   28.5570   58.9410 O.2   108  VAL108     -0.2715
    163  CB         5.1630   27.2520   59.8760 C.3   108  VAL108      0.0290
    164  CG1        5.0770   28.7630   60.1520 C.3   108  VAL108      0.0023
    165  CG2        4.4680   26.9160   58.5700 C.3   108  VAL108      0.0023
    166  N          7.3730   26.8490   57.5800 N.am  109  GLY109     -0.1955
    167  CA         8.0500   27.4310   56.4440 C.3   109  GLY109      0.1869
    168  C          7.1780   27.0510   55.2680 C.2   109  GLY109      0.2309
    169  O          6.6140   25.9540   55.2510 O.2   109  GLY109     -0.2863
    170  N          7.2000   26.6940   50.9430 N.3   111  GLN111     -0.1245
    171  CA         8.0750   26.6070   49.7870 C.3   111  GLN111      0.1566
    172  C          7.3000   26.7400   48.4910 C.2   111  GLN111      0.2260
    173  O          6.2660   26.1000   48.3260 O.2   111  GLN111     -0.2867
    174  CB         8.8520   25.2890   49.8170 C.3   111  GLN111      0.0367
    175  CG         9.6590   25.0670   51.0930 C.3   111  GLN111      0.0905
    176  CD         8.8040   24.5980   52.2640 C.2   111  GLN111      0.2608
    177  OE1        7.9640   23.7100   52.1190 O.2   111  GLN111     -0.2717
    178  NE2        9.0140   25.1980   53.4310 N.am  111  GLN111     -0.0878
@<TRIPOS>BOND
     1   119   118    2
     2   124   125    1
     3   118   117    1
     4   116   117    1
     5   125   126    1
     6   125   128    1
     7   111   110    2
     8   117   120    1
     9   110   109    1
    10   126   127    2
    11   128   129    1
    12   120   121    1
    13   108   109    1
    14   109   112    1
    15   130   129    2
    16   129   131   am
    17   173   172    2
    18   172   171    1
    19    66    65    2
    20   121   123   am
    21   121   122    2
    22   112   113    1
    23   112   114    1
    24   113   115    1
    25    73    74    2
    26    73    72    1
    27    70    68    1
    28    65    64    1
    29    65    71   am
    30   171   174    1
    31   171   170    1
    32   174   175    1
    33   132   133    1
    34    72    71    1
    35    72    75    1
    36    64    67    1
    37    64    63    1
    38    67    68    1
    39    68    69    1
    40   175   176    1
    41   133   136    1
    42   133   134    1
    43    75    76    1
    44   136   137    1
    45    76    77    1
    46   134   135    2
    47   177   176    2
    48   176   178   am
    49   137   138    1
    50   137   139    1
    51    86    84    1
    52    77    78    2
    53    77    79   am
    54    55    54    2
    55    80    81    1
    56    49    48    2
    57    54    53    1
    58    84    81    1
    59    84    85    1
    60    51    50    1
    61     7     5    1
    62    81    82    1
    63    93    92    1
    64    53    52    1
    65    53    56    1
    66   169   168    2
    67   168   167    1
    68    48    52   am
    69    48    47    1
    70    94    92    1
    71    92    91    1
    72     1     2    1
    73   140   141    1
    74     5     6    1
    75     5     2    1
    76    50    47    1
    77    56    57    1
    78    82    83    2
    79    47    46    1
    80   167   166    1
    81     2     3    1
    82   147   146    1
    83    36    35    1
    84    57    58    1
    85    91    88    1
    86    41    40    2
    87   141   144    1
    88   141   142    1
    89    87    88    1
    90   144   145    1
    91   166   161   am
    92    46    40   am
    93    58    59    1
    94    88    89    1
    95     3     4    2
    96    40    39    1
    97    37    35    1
    98    35    34    1
    99   145   146    1
   100   143   142    2
   101    59    60    2
   102   165   163    1
   103   161   162    2
   104   161   160    1
   105    44    43    2
   106    34    31    1
   107    89    95   am
   108    89    90    2
   109    39    38    1
   110    39    42    1
   111    95    96    1
   112    60    61    1
   113    60    62    1
   114    43    42    1
   115    43    45   am
   116   160   163    1
   117   160   159    1
   118   163   164    1
   119    31    30    1
   120    31    32    1
   121    99    96    1
   122    96    97    1
   123   159   150   am
   124    32    33    2
   125   107   105    1
   126   151   150    2
   127     8     9    1
   128    97    98    2
   129   150   149    1
   130    12     9    1
   131   105   104    1
   132   155   157   ar
   133   155   153   ar
   134    24    23    2
   135     9    10    1
   136   157   158   ar
   137   152   149    1
   138   152   153    1
   139   100   101    1
   140   149   148    1
   141   153   154   ar
   142   104   101    1
   143   104   106    1
   144    23    22    1
   145   101   102    1
   146   158   156   ar
   147    10    11    2
   148    25    22    1
   149    25    26    1
   150    28    27   ar
   151   154   156   ar
   152    22    21    1
   153    19    17    1
   154    26    27    1
   155    27    29   ar
   156   102   103    2
   157    17    14    1
   158    17    18    1
   159    13    14    1
   160    14    15    1
   161    20    18    1
   162    15    16    2
