@<TRIPOS>MOLECULE
tmp/4r3aB01.pdb
 197 182 0 0 0
SMALL
GASTEIGER

@<TRIPOS>ATOM
      1  N          0.2030   32.0040   14.4470 N.3     3  THR3       -0.1203
      2  CA         0.8780   32.6730   13.3330 C.3     3  THR3        0.1994
      3  C          0.3750   32.1680   11.9760 C.2     3  THR3        0.2618
      4  O          0.0030   31.0000   11.8490 O.2     3  THR3       -0.2717
      5  CB         2.4010   32.4710   13.4100 C.3     3  THR3        0.1784
      6  OG1        2.7090   31.0770   13.2850 O.3     3  THR3       -0.2211
      7  CG2        2.9440   32.9910   14.7360 C.3     3  THR3        0.0376
      8  N          0.3590   33.0420   10.9700 N.am    4  ILE4       -0.1965
      9  CA         0.0220   32.6360    9.6020 C.3     4  ILE4        0.1727
     10  C          1.0620   33.1420    8.6060 C.2     4  ILE4        0.2616
     11  O          1.4270   34.3180    8.6180 O.2     4  ILE4       -0.2715
     12  CB        -1.3720   33.1550    9.1850 C.3     4  ILE4        0.0290
     13  CG1       -2.4570   32.5130   10.0550 C.3     4  ILE4        0.0022
     14  CG2       -1.6400   32.8600    7.7010 C.3     4  ILE4        0.0023
     15  CD1       -3.8530   33.0610    9.8160 C.3     4  ILE4        0.0001
     16  N          1.5300   32.2410    7.7460 N.am    5  ALA5       -0.1977
     17  CA         2.5030   32.5790    6.7100 C.3     5  ALA5        0.1597
     18  C          1.9640   32.2810    5.3110 C.2     5  ALA5        0.2287
     19  O          1.1930   31.3400    5.1210 O.2     5  ALA5       -0.2864
     20  CB         3.7960   31.8280    6.9440 C.3     5  ALA5        0.0319
     21  N          3.2680   30.8110    2.2290 N.3     7  ILE7       -0.1245
     22  CA         4.4320   30.0560    1.7670 C.3     7  ILE7        0.1561
     23  C          4.5900   30.0420    0.2460 C.2     7  ILE7        0.2260
     24  O          5.5560   29.4780   -0.2680 O.2     7  ILE7       -0.2867
     25  CB         4.3970   28.5870    2.2650 C.3     7  ILE7        0.0252
     26  CG1        3.2890   27.7750    1.5760 C.3     7  ILE7        0.0019
     27  CG2        4.2220   28.5420    3.7810 C.3     7  ILE7        0.0019
     28  CD1        3.4920   26.2790    1.6840 C.3     7  ILE7        0.0001
     29  N          8.5440   32.6610    2.5060 N.3    12  GLU12      -0.1245
     30  CA         7.4180   32.2800    3.3630 C.3    12  GLU12       0.1567
     31  C          7.1710   33.2900    4.4840 C.2    12  GLU12       0.2260
     32  O          7.2480   32.9450    5.6640 O.2    12  GLU12      -0.2867
     33  CB         7.6670   30.8920    3.9610 C.3    12  GLU12       0.0388
     34  CG         7.7770   29.7830    2.9220 C.3    12  GLU12       0.1160
     35  CD         9.0040   28.9120    3.1130 C.2    12  GLU12       0.3649
     36  OE1        9.2960   28.5330    4.2670 O.co2  12  GLU12      -0.2457
     37  OE2        9.6780   28.6060    2.1070 O.co2  12  GLU12      -0.2457
     38  N          5.5400   35.7320    7.2680 N.3    14  LEU14      -0.1245
     39  CA         4.3820   35.8570    8.1380 C.3    14  LEU14       0.1561
     40  C          3.5090   36.9890    7.6190 C.2    14  LEU14       0.2260
     41  O          4.0060   38.0680    7.2980 O.2    14  LEU14      -0.2867
     42  CB         4.8080   36.1050    9.5870 C.3    14  LEU14       0.0270
     43  CG         5.4230   34.8980   10.3020 C.3    14  LEU14       0.0019
     44  CD1        6.0430   35.3110   11.6250 C.3    14  LEU14       0.0001
     45  CD2        4.3760   33.8160   10.5260 C.3    14  LEU14       0.0001
     46  N         10.0440   36.1710    7.5460 N.3    36  ASN36      -0.1225
     47  CA        10.0460   34.7450    7.8510 C.3    36  ASN36       0.1785
     48  C         10.2430   34.4990    9.3380 C.2    36  ASN36       0.2597
     49  O         11.0690   35.1450    9.9790 O.2    36  ASN36      -0.2718
     50  CB        11.1420   34.0260    7.0600 C.3    36  ASN36       0.1169
     51  CG        11.1080   32.5190    7.2530 C.2    36  ASN36       0.2627
     52  OD1       11.6380   31.9960    8.2310 O.2    36  ASN36      -0.2716
     53  ND2       10.4830   31.8140    6.3170 N.am   36  ASN36      -0.0877
     54  N          9.4860   33.5500    9.8770 N.am   37  CYS37      -0.1956
     55  CA         9.4590   33.3000   11.3130 C.3    37  CYS37       0.1843
     56  C         10.7850   32.7910   11.8850 C.2    37  CYS37       0.2625
     57  O         10.9020   32.5990   13.0950 O.2    37  CYS37      -0.2714
     58  CB         8.3510   32.3030   11.6470 C.3    37  CYS37       0.0997
     59  SG         7.8700   32.3220   13.3850 S.3    37  CYS37      -0.0797
     60  N         11.7830   32.5670   11.0330 N.am   38  ARG38      -0.1977
     61  CA        13.0480   32.0100   11.5030 C.3    38  ARG38       0.1597
     62  C         13.8130   32.9520   12.4260 C.2    38  ARG38       0.2287
     63  O         14.8420   32.5690   12.9840 O.2    38  ARG38      -0.2864
     64  CB        13.9460   31.6490   10.3160 C.3    38  ARG38       0.0334
     65  CG        14.4280   32.8530    9.4970 C.3    38  ARG38       0.0492
     66  CD        15.6390   32.5030    8.6490 C.3    38  ARG38       0.2205
     67  NE        15.3890   31.3690    7.7620 N.pl3  38  ARG38      -0.0865
     68  CZ        14.8720   31.4610    6.5410 C.cat  38  ARG38       0.5346
     69  NH1       14.5370   32.6410    6.0350 N.pl3  38  ARG38       0.1354
     70  NH2       14.6870   30.3630    5.8200 N.pl3  38  ARG38       0.1354
     71  N         12.9150   33.6010   15.2120 N.3    40  LEU40      -0.1231
     72  CA        12.7890   33.0110   16.5370 C.3    40  LEU40       0.1693
     73  C         13.9190   32.0310   16.8080 C.2    40  LEU40       0.2591
     74  O         14.1090   31.5950   17.9430 O.2    40  LEU40      -0.2718
     75  CB        11.4450   32.2960   16.6800 C.3    40  LEU40       0.0284
     76  CG        10.1880   33.1640   16.6320 C.3    40  LEU40       0.0019
     77  CD1        8.9470   32.2880   16.6420 C.3    40  LEU40       0.0001
     78  CD2       10.1580   34.1400   17.7960 C.3    40  LEU40       0.0001
     79  N         14.6670   31.6810   15.7670 N.am   41  GLN41      -0.1979
     80  CA        15.7110   30.6790   15.9040 C.3    41  GLN41       0.1601
     81  C         16.9990   31.3770   16.3250 C.2    41  GLN41       0.2287
     82  O         17.1180   32.5940   16.1830 O.2    41  GLN41      -0.2864
     83  CB        15.8970   29.9150   14.5930 C.3    41  GLN41       0.0394
     84  CG        14.6250   29.2180   14.1110 C.3    41  GLN41       0.0908
     85  CD        14.7510   28.5950   12.7290 C.2    41  GLN41       0.2608
     86  OE1       13.7440   28.3120   12.0810 O.2    41  GLN41      -0.2717
     87  NE2       15.9800   28.3720   12.2700 N.am   41  GLN41      -0.0878
     88  N         15.1740   22.0800   11.9800 N.3    50  VAL50      -0.1245
     89  CA        14.8620   23.0810   10.9660 C.3    50  VAL50       0.1561
     90  C         14.7390   22.4490    9.5870 C.2    50  VAL50       0.2260
     91  O         13.8330   22.7910    8.8270 O.2    50  VAL50      -0.2867
     92  CB        15.9410   24.1890   10.9200 C.3    50  VAL50       0.0252
     93  CG1       15.7560   25.1050    9.7010 C.3    50  VAL50       0.0019
     94  CG2       15.9100   25.0050   12.2020 C.3    50  VAL50       0.0019
     95  N         11.5110   20.7510    9.5570 N.3    53  LEU53      -0.1231
     96  CA        10.4570   21.7520    9.4360 C.3    53  LEU53       0.1693
     97  C         10.3970   22.2450    8.0000 C.2    53  LEU53       0.2591
     98  O          9.3250   22.3740    7.4090 O.2    53  LEU53      -0.2718
     99  CB        10.7020   22.9330   10.3840 C.3    53  LEU53       0.0284
    100  CG        10.5900   22.7000   11.8950 C.3    53  LEU53       0.0019
    101  CD1       10.8340   24.0010   12.6370 C.3    53  LEU53       0.0001
    102  CD2        9.2410   22.1200   12.2720 C.3    53  LEU53       0.0001
    103  N         11.5760   22.5020    7.4470 N.am   54  ALA54      -0.1980
    104  CA        11.7080   23.0160    6.0950 C.3    54  ALA54       0.1597
    105  C         11.1350   22.0250    5.0890 C.2    54  ALA54       0.2287
    106  O         10.4410   22.4070    4.1470 O.2    54  ALA54      -0.2864
    107  CB        13.1650   23.3150    5.7890 C.3    54  ALA54       0.0319
    108  N          7.0220   21.8650    5.0350 N.3    57  ILE57      -0.1231
    109  CA         6.3530   22.9710    4.3460 C.3    57  ILE57       0.1692
    110  C          6.3530   22.8510    2.8250 C.2    57  ILE57       0.2591
    111  O          5.3230   23.0280    2.1730 O.2    57  ILE57      -0.2718
    112  CB         7.0140   24.3200    4.7080 C.3    57  ILE57       0.0266
    113  CG1        7.0240   24.5280    6.2250 C.3    57  ILE57       0.0019
    114  CG2        6.2850   25.4870    4.0250 C.3    57  ILE57       0.0020
    115  CD1        7.9400   25.6430    6.6790 C.3    57  ILE57       0.0001
    116  N          7.5190   22.5470    2.2750 N.am   58  ARG58      -0.1980
    117  CA         7.7030   22.4020    0.8350 C.3    58  ARG58       0.1597
    118  C          6.8610   21.2710    0.2510 C.2    58  ARG58       0.2287
    119  O          6.4430   21.3360   -0.9050 O.2    58  ARG58      -0.2864
    120  CB         9.1840   22.2230    0.5270 C.3    58  ARG58       0.0334
    121  CG         9.9710   23.4810    0.8850 C.3    58  ARG58       0.0492
    122  CD        11.3830   23.4460    0.3680 C.3    58  ARG58       0.2205
    123  NE        12.2600   22.6400    1.2170 N.pl3  58  ARG58      -0.0865
    124  CZ        13.0400   23.1170    2.1830 C.cat  58  ARG58       0.5346
    125  NH1       13.0760   24.4160    2.4540 N.pl3  58  ARG58       0.1354
    126  NH2       13.7970   22.2830    2.8860 N.pl3  58  ARG58       0.1354
    127  N         10.8890   22.5520   19.3190 N.3    67  ILE67      -0.1245
    128  CA        12.0620   23.2370   18.7830 C.3    67  ILE67       0.1561
    129  C         12.5260   24.3530   19.7100 C.2    67  ILE67       0.2260
    130  O         11.7120   25.0220   20.3460 O.2    67  ILE67      -0.2867
    131  CB        11.7790   23.8090   17.3770 C.3    67  ILE67       0.0252
    132  CG1       13.0490   24.4300   16.7940 C.3    67  ILE67       0.0019
    133  CG2       10.6380   24.8230   17.4220 C.3    67  ILE67       0.0019
    134  CD1       12.9800   24.6770   15.3060 C.3    67  ILE67       0.0001
    135  N         13.8120   27.9270   20.6480 N.3    69  ASN69      -0.1240
    136  CA        13.5420   29.2690   20.1360 C.3    69  ASN69       0.1653
    137  C         14.0770   30.2840   21.1280 C.2    69  ASN69       0.2266
    138  O         14.4440   29.9210   22.2460 O.2    69  ASN69      -0.2867
    139  CB        12.0470   29.4910   19.8830 C.3    69  ASN69       0.1155
    140  CG        11.5260   28.7300   18.6720 C.2    69  ASN69       0.2627
    141  OD1       10.3550   28.3720   18.6250 O.2    69  ASN69      -0.2716
    142  ND2       12.3840   28.4860   17.6850 N.am   69  ASN69      -0.0877
    143  N          9.7490   25.3590   22.3120 N.3    79  ASN79      -0.1240
    144  CA         8.5300   25.7200   21.6070 C.3    79  ASN79       0.1653
    145  C          7.9590   24.4750   20.9580 C.2    79  ASN79       0.2266
    146  O          8.5550   23.9230   20.0350 O.2    79  ASN79      -0.2867
    147  CB         8.8040   26.7950   20.5570 C.3    79  ASN79       0.1155
    148  CG         7.5920   27.0940   19.6880 C.2    79  ASN79       0.2627
    149  OD1        6.4570   26.7840   20.0500 O.2    79  ASN79      -0.2716
    150  ND2        7.8310   27.7040   18.5320 N.am   79  ASN79      -0.0877
    151  N          5.8030   23.2240   18.4560 N.3    81  LEU81      -0.1245
    152  CA         5.2380   23.8090   17.2470 C.3    81  LEU81       0.1561
    153  C          4.3830   22.8180   16.4760 C.2    81  LEU81       0.2260
    154  O          4.8110   21.6990   16.2040 O.2    81  LEU81      -0.2867
    155  CB         6.3630   24.3380   16.3510 C.3    81  LEU81       0.0270
    156  CG         5.9580   24.9290   14.9970 C.3    81  LEU81       0.0019
    157  CD1        4.9140   26.0220   15.1550 C.3    81  LEU81       0.0001
    158  CD2        7.1870   25.4660   14.2800 C.3    81  LEU81       0.0001
    159  N          2.0660   22.8120   12.9120 N.3    83  MET83      -0.1245
    160  CA         1.7240   23.5570   11.7030 C.3    83  MET83       0.1570
    161  C          1.3260   22.6110   10.5830 C.2    83  MET83       0.2261
    162  O          1.5530   21.4050   10.6620 O.2    83  MET83      -0.2867
    163  CB         2.8980   24.4390   11.2500 C.3    83  MET83       0.0387
    164  CG         3.7660   23.8520   10.1180 C.3    83  MET83       0.0595
    165  SD         5.0440   24.9800    9.5220 S.3    83  MET83      -0.1393
    166  CE         6.1290   25.0420   10.9310 C.3    83  MET83       0.0692
    167  N         -0.0180   28.6530    5.0390 N.3    90  PHE90      -0.1227
    168  CA         0.2090   27.8090    6.2120 C.3    90  PHE90       0.1736
    169  C         -0.0430   28.5410    7.5270 C.2    90  PHE90       0.2595
    170  O          0.1960   29.7420    7.6520 O.2    90  PHE90      -0.2718
    171  CB         1.6450   27.2840    6.2060 C.3    90  PHE90       0.0547
    172  CG         1.7860   25.8980    5.6560 C.ar   90  PHE90      -0.0202
    173  CD1        1.4750   25.6270    4.3370 C.ar   90  PHE90      -0.0042
    174  CD2        2.2460   24.8680    6.4580 C.ar   90  PHE90      -0.0042
    175  CE1        1.6120   24.3500    3.8290 C.ar   90  PHE90      -0.0003
    176  CE2        2.3850   23.5900    5.9550 C.ar   90  PHE90      -0.0003
    177  CZ         2.0670   23.3310    4.6400 C.ar   90  PHE90      -0.0000
    178  N         -0.5360   27.7770    8.4980 N.am   91  VAL91      -0.1966
    179  CA        -0.8100   28.2490    9.8540 C.3    91  VAL91       0.1727
    180  C         -0.0610   27.3950   10.8760 C.2    91  VAL91       0.2616
    181  O          0.1160   26.1950   10.6700 O.2    91  VAL91      -0.2715
    182  CB        -2.3220   28.2190   10.1630 C.3    91  VAL91       0.0290
    183  CG1       -2.8800   26.8070   10.0000 C.3    91  VAL91       0.0023
    184  CG2       -2.6030   28.7630   11.5620 C.3    91  VAL91       0.0023
    185  N          0.3760   28.0180   11.9680 N.am   92  GLY92      -0.1955
    186  CA         1.1360   27.3290   12.9990 C.3    92  GLY92       0.1869
    187  C          0.7680   27.8340   14.3850 C.2    92  GLY92       0.2309
    188  O          0.4370   29.0070   14.5530 O.2    92  GLY92      -0.2863
    189  N          2.1020   27.8550   18.6420 N.3    94  GLN94      -0.1245
    190  CA         3.2430   27.7310   19.5500 C.3    94  GLN94       0.1566
    191  C          2.7980   27.5970   21.0070 C.2    94  GLN94       0.2260
    192  O          1.9700   28.3780   21.4760 O.2    94  GLN94      -0.2867
    193  CB         4.1750   28.9380   19.4080 C.3    94  GLN94       0.0367
    194  CG         4.8020   29.0880   18.0240 C.3    94  GLN94       0.0905
    195  CD         3.8440   29.6520   16.9890 C.2    94  GLN94       0.2608
    196  OE1        2.9630   30.4500   17.3090 O.2    94  GLN94      -0.2717
    197  NE2        4.0140   29.2390   15.7370 N.am   94  GLN94      -0.0878
@<TRIPOS>BOND
     1   119   118    2
     2    24    23    2
     3    23    22    1
     4   118   117    1
     5   122   121    1
     6   122   123    1
     7   120   117    1
     8   120   121    1
     9   117   116    1
    10   123   124    2
    11    26    28    1
    12    26    25    1
    13    22    21    1
    14    22    25    1
    15    37    35   ar
    16   111   110    2
    17   124   125    1
    18   124   126    1
    19    25    27    1
    20   116   110   am
    21    29    30    1
    22   110   109    1
    23    34    35    1
    24    34    33    1
    25    35    36   ar
    26    30    33    1
    27    30    31    1
    28   175   173   ar
    29   175   177   ar
    30   114   112    1
    31   106   105    2
    32   173   172   ar
    33   109   112    1
    34   109   108    1
    35    31    32    2
    36   177   176   ar
    37   112   113    1
    38   167   168    1
    39   105   104    1
    40    19    18    2
    41    18    17    1
    42   172   171    1
    43   172   174   ar
    44   107   104    1
    45    70    68    1
    46   176   174   ar
    47    69    68    1
    48   104   103    1
    49   171   168    1
    50   168   169    1
    51   113   115    1
    52    53    51   am
    53    68    67    2
    54    17    20    1
    55    17    16    1
    56    50    51    1
    57    50    47    1
    58    51    52    2
    59    38    39    1
    60    41    40    2
    61    98    97    2
    62   103    97   am
    63   169   170    2
    64   169   178   am
    65    46    47    1
    66    40    39    1
    67    14    12    1
    68    16    10   am
    69    67    66    1
    70    47    48    1
    71    97    96    1
    72    39    42    1
    73   178   179    1
    74    10    11    2
    75    10     9    1
    76    66    65    1
    77    91    90    2
    78    12     9    1
    79    12    13    1
    80    48    54   am
    81    48    49    2
    82    96    95    1
    83    96    99    1
    84    65    64    1
    85   165   164    1
    86   165   166    1
    87    42    43    1
    88    90    89    1
    89     9     8    1
    90    93    92    1
    91    15    13    1
    92   179   182    1
    93   179   180    1
    94    54    55    1
    95   183   182    1
    96   164   163    1
    97   182   184    1
    98    43    45    1
    99    43    44    1
   100    64    61    1
   101    99   100    1
   102   161   162    2
   103   161   160    1
   104   181   180    2
   105   180   185   am
   106    92    89    1
   107    92    94    1
   108    89    88    1
   109     8     3   am
   110    60    61    1
   111    60    56   am
   112   163   160    1
   113    55    58    1
   114    55    56    1
   115    61    62    1
   116    58    59    1
   117   160   159    1
   118     4     3    2
   119    56    57    2
   120   100   102    1
   121   100   101    1
   122   185   186    1
   123     3     2    1
   124    86    85    2
   125    87    85   am
   126    62    63    2
   127    85    84    1
   128   186   187    1
   129     6     5    1
   130     2     5    1
   131     2     1    1
   132     5     7    1
   133    84    83    1
   134   158   156    1
   135   187   188    2
   136    83    80    1
   137   156   157    1
   138   156   155    1
   139    71    72    1
   140   134   132    1
   141   197   195   am
   142    79    80    1
   143    79    73   am
   144    80    81    1
   145    82    81    2
   146   154   153    2
   147   155   152    1
   148   153   152    1
   149    72    75    1
   150    72    73    1
   151    76    77    1
   152    76    75    1
   153    76    78    1
   154   132   131    1
   155    73    74    2
   156   195   196    2
   157   195   194    1
   158   152   151    1
   159   131   133    1
   160   131   128    1
   161   142   140   am
   162   194   193    1
   163   150   148   am
   164   141   140    2
   165   189   190    1
   166   140   139    1
   167   128   127    1
   168   128   129    1
   169   193   190    1
   170   190   191    1
   171   148   149    2
   172   148   147    1
   173   129   130    2
   174   139   136    1
   175   146   145    2
   176   136   135    1
   177   136   137    1
   178   147   144    1
   179   145   144    1
   180   191   192    2
   181   137   138    2
   182   144   143    1
