@<TRIPOS>MOLECULE
tmp/4r3aA00.pdb
 168 162 0 0 0
SMALL
GASTEIGER

@<TRIPOS>ATOM
      1  N         -7.2650   24.0680   55.3170 N.3   163  ARG163     -0.1245
      2  CA        -7.9130   25.3760   55.3260 C.3   163  ARG163      0.1563
      3  C         -7.2250   26.3790   54.3960 C.2   163  ARG163      0.2260
      4  O         -7.8930   27.2100   53.7790 O.2   163  ARG163     -0.2867
      5  CB        -7.9360   25.9170   56.7570 C.3   163  ARG163      0.0307
      6  CG        -8.3620   24.8630   57.7800 C.3   163  ARG163      0.0489
      7  CD        -8.2960   25.3720   59.1900 C.3   163  ARG163      0.2205
      8  NE        -9.6070   25.3210   59.8350 N.pl3 163  ARG163     -0.0865
      9  CZ       -10.0280   24.3550   60.6430 C.cat 163  ARG163      0.5346
     10  NH1       -9.2470   23.3260   60.9370 N.pl3 163  ARG163      0.1354
     11  NH2      -11.2420   24.4230   61.1680 N.pl3 163  ARG163      0.1354
     12  N        -14.9860   27.4900   54.7070 N.3   226  GLU226     -0.1245
     13  CA       -15.3850   27.0860   56.0480 C.3   226  GLU226      0.1567
     14  C        -16.8720   26.7320   56.0530 C.2   226  GLU226      0.2260
     15  O        -17.2550   25.6530   56.5000 O.2   226  GLU226     -0.2867
     16  CB       -15.0520   28.1730   57.0700 C.3   226  GLU226      0.0388
     17  CG       -13.5640   28.2320   57.4230 C.3   226  GLU226      0.1160
     18  CD       -13.0420   26.9440   58.0750 C.2   226  GLU226      0.3649
     19  OE1      -13.8650   26.1310   58.5510 O.co2 226  GLU226     -0.2457
     20  OE2      -11.8070   26.7420   58.1130 O.co2 226  GLU226     -0.2457
     21  N        -18.0050   23.8070   53.6780 N.3   229  THR229     -0.1203
     22  CA       -17.5850   22.5550   54.2900 C.3   229  THR229      0.1994
     23  C        -18.5630   22.1680   55.3940 C.2   229  THR229      0.2618
     24  O        -18.9120   20.9990   55.5360 O.2   229  THR229     -0.2717
     25  CB       -16.1510   22.6700   54.8770 C.3   229  THR229      0.1784
     26  OG1      -15.1890   22.6160   53.8160 O.3   229  THR229     -0.2211
     27  CG2      -15.8520   21.5470   55.8720 C.3   229  THR229      0.0376
     28  N        -19.0080   23.1550   56.1640 N.am  230  ASN230     -0.1960
     29  CA       -19.9570   22.9230   57.2500 C.3   230  ASN230      0.1819
     30  C        -21.2370   22.2710   56.7290 C.2   230  ASN230      0.2621
     31  O        -21.8000   21.3800   57.3640 O.2   230  ASN230     -0.2715
     32  CB       -20.2750   24.2270   57.9810 C.3   230  ASN230      0.1195
     33  CG       -19.2640   24.5440   59.0650 C.2   230  ASN230      0.2630
     34  OD1      -18.0620   24.3340   58.8980 O.2   230  ASN230     -0.2716
     35  ND2      -19.7520   25.0420   60.1920 N.am  230  ASN230     -0.0877
     36  N        -21.6880   22.7330   55.5700 N.am  231  ALA231     -0.1977
     37  CA       -22.8840   22.2050   54.9280 C.3   231  ALA231      0.1597
     38  C        -22.7520   20.7110   54.6290 C.2   231  ALA231      0.2287
     39  O        -23.6210   19.9200   55.0010 O.2   231  ALA231     -0.2864
     40  CB       -23.1700   22.9650   53.6500 C.3   231  ALA231      0.0319
     41  N        -20.6120   18.5310   55.7420 N.3   233  GLN233     -0.1231
     42  CA       -20.2500   17.7580   56.9280 C.3   233  GLN233      0.1698
     43  C        -21.3870   17.5420   57.9290 C.2   233  GLN233      0.2592
     44  O        -21.4540   16.4970   58.5720 O.2   233  GLN233     -0.2718
     45  CB       -19.0720   18.4230   57.6430 C.3   233  GLN233      0.0381
     46  CG       -17.7480   18.2580   56.9010 C.3   233  GLN233      0.0905
     47  CD       -16.5770   18.8990   57.6250 C.2   233  GLN233      0.2608
     48  OE1      -16.7460   19.5370   58.6650 O.2   233  GLN233     -0.2717
     49  NE2      -15.3780   18.7310   57.0740 N.am  233  GLN233     -0.0878
     50  N        -22.2430   18.5480   58.0940 N.am  234  HIS234     -0.1962
     51  CA       -23.1860   18.5970   59.2180 C.3   234  HIS234      0.1787
     52  C        -24.6640   18.5150   58.8480 C.2   234  HIS234      0.2620
     53  O        -25.4560   17.9190   59.5810 O.2   234  HIS234     -0.2715
     54  CB       -22.9800   19.8920   60.0110 C.3   234  HIS234      0.0785
     55  CG       -21.6800   19.9570   60.7490 C.ar  234  HIS234      0.0821
     56  ND1      -21.1010   18.8520   61.3350 N.ar  234  HIS234     -0.2267
     57  CD2      -20.8500   20.9960   61.0040 C.ar  234  HIS234      0.1154
     58  CE1      -19.9700   19.2080   61.9160 C.ar  234  HIS234      0.1986
     59  NE2      -19.7940   20.5030   61.7290 N.ar  234  HIS234     -0.2212
     60  N        -25.0330   19.0730   57.7010 N.am  235  ALA235     -0.1977
     61  CA       -26.4450   19.2790   57.3800 C.3   235  ALA235      0.1597
     62  C        -27.2420   18.0000   57.1310 C.2   235  ALA235      0.2287
     63  O        -28.4710   18.0260   57.1640 O.2   235  ALA235     -0.2864
     64  CB       -26.5610   20.1910   56.1610 C.3   235  ALA235      0.0319
     65  N        -28.6370   25.2820   52.9090 N.3   262  ASP262     -0.1239
     66  CA       -28.9830   23.8630   53.0550 C.3   262  ASP262      0.1674
     67  C        -30.4850   23.6370   53.0950 C.2   262  ASP262      0.2266
     68  O        -31.2590   24.5460   53.3900 O.2   262  ASP262     -0.2867
     69  CB       -28.3750   23.2880   54.3330 C.3   262  ASP262      0.1410
     70  CG       -26.8950   23.1210   54.2380 C.2   262  ASP262      0.3668
     71  OD1      -26.4200   22.7630   53.1420 O.co2 262  ASP262     -0.2456
     72  OD2      -26.2070   23.3510   55.2520 O.co2 262  ASP262     -0.2456
     73  N        -30.4170   19.2440   58.0280 N.3   265  ARG265     -0.1231
     74  CA       -30.8300   18.9200   59.3860 C.3   265  ARG265      0.1694
     75  C        -31.0990   20.1880   60.1850 C.2   265  ARG265      0.2593
     76  O        -31.9400   20.2030   61.0840 O.2   265  ARG265     -0.2718
     77  CB       -29.7340   18.0690   60.0490 C.3   265  ARG265      0.0321
     78  CG       -29.7040   18.0050   61.5760 C.3   265  ARG265      0.0489
     79  CD       -28.3140   17.5620   62.0170 C.3   265  ARG265      0.2205
     80  NE       -28.2110   17.2650   63.4470 N.pl3 265  ARG265     -0.0865
     81  CZ       -28.2960   16.0490   63.9860 C.cat 265  ARG265      0.5346
     82  NH1      -28.4950   14.9770   63.2230 N.pl3 265  ARG265      0.1354
     83  NH2      -28.1800   15.8970   65.3020 N.pl3 265  ARG265      0.1354
     84  N        -30.3760   21.2530   59.8550 N.am  266  GLY266     -0.1942
     85  CA       -30.5190   22.5170   60.5500 C.3   266  GLY266      0.2014
     86  C        -29.5240   22.5890   61.6850 C.2   266  GLY266      0.2639
     87  O        -29.1900   21.5680   62.2940 O.2   266  GLY266     -0.2714
     88  N        -29.0580   23.7940   61.9870 N.am  267  ILE267     -0.1963
     89  CA       -28.1860   24.0010   63.1350 C.3   267  ILE267      0.1712
     90  C        -28.9750   23.8940   64.4480 C.2   267  ILE267      0.2458
     91  O        -30.0260   24.5170   64.5830 O.2   267  ILE267     -0.2730
     92  CB       -27.4880   25.3820   63.0550 C.3   267  ILE267      0.0289
     93  CG1      -26.4840   25.3850   61.8980 C.3   267  ILE267      0.0022
     94  CG2      -26.7600   25.7190   64.3610 C.3   267  ILE267      0.0023
     95  CD1      -26.0070   26.7570   61.4950 C.3   267  ILE267      0.0001
     96  N        -28.4920   23.0790   65.4020 N.am  268  PRO268     -0.2727
     97  CA       -29.1470   22.9360   66.7090 C.3   268  PRO268      0.1402
     98  C        -29.4840   24.2880   67.3400 C.2   268  PRO268      0.2269
     99  O        -28.7230   25.2400   67.1770 O.2   268  PRO268     -0.2865
    100  CB       -28.1070   22.1840   67.5370 C.3   268  PRO268      0.0296
    101  CG       -27.4000   21.3420   66.5370 C.3   268  PRO268      0.0237
    102  CD       -27.3590   22.1450   65.2630 C.3   268  PRO268      0.0939
    103  N        -27.0360   25.9000   69.8200 N.3   271  CYS271     -0.1235
    104  CA       -25.8410   26.4030   69.1480 C.3   271  CYS271      0.1677
    105  C        -26.1360   27.6450   68.3100 C.2   271  CYS271      0.2270
    106  O        -26.9150   27.5920   67.3580 O.2   271  CYS271     -0.2867
    107  CB       -25.2250   25.3180   68.2670 C.3   271  CYS271      0.0956
    108  SG       -23.5220   25.6790   67.7940 S.3   271  CYS271     -0.0801
    109  N        -24.3000   29.4270   66.0870 N.3   273  TRP273     -0.1241
    110  CA       -23.1730   29.5410   65.1720 C.3   273  TRP273      0.1605
    111  C        -23.2700   30.8400   64.3610 C.2   273  TRP273      0.2264
    112  O        -24.3660   31.2470   63.9720 O.2   273  TRP273     -0.2867
    113  CB       -23.1350   28.3220   64.2380 C.3   273  TRP273      0.0550
    114  CG       -21.9680   28.2890   63.2990 C.ar  273  TRP273      0.0003
    115  CD1      -20.8130   27.5890   63.4580 C.ar  273  TRP273      0.0946
    116  CD2      -21.8450   28.9880   62.0580 C.ar  273  TRP273      0.0152
    117  NE1      -19.9760   27.8050   62.3910 N.ar  273  TRP273     -0.2442
    118  CE2      -20.5880   28.6590   61.5170 C.ar  273  TRP273      0.0810
    119  CE3      -22.6770   29.8550   61.3490 C.ar  273  TRP273      0.0012
    120  CZ2      -20.1430   29.1680   60.3040 C.ar  273  TRP273      0.0191
    121  CZ3      -22.2370   30.3570   60.1440 C.ar  273  TRP273      0.0001
    122  CH2      -20.9810   30.0130   59.6310 C.ar  273  TRP273      0.0015
    123  N        -21.0150   30.6260   68.6560 N.3   276  GLU276     -0.1231
    124  CA       -20.6530   29.3940   69.3490 C.3   276  GLU276      0.1699
    125  C        -20.1680   28.3970   68.3060 C.2   276  GLU276      0.2593
    126  O        -20.6340   28.4190   67.1700 O.2   276  GLU276     -0.2718
    127  CB       -21.8350   28.8400   70.1430 C.3   276  GLU276      0.0402
    128  CG       -22.2210   29.7090   71.3430 C.3   276  GLU276      0.1161
    129  CD       -23.4530   29.1960   72.0770 C.2   276  GLU276      0.3649
    130  OE1      -24.3210   28.5640   71.4330 O.co2 276  GLU276     -0.2457
    131  OE2      -23.5560   29.4330   73.3020 O.co2 276  GLU276     -0.2457
    132  N        -19.2160   27.5450   68.6680 N.am  277  GLY277     -0.1942
    133  CA       -18.7990   26.4850   67.7690 C.3   277  GLY277      0.2014
    134  C        -17.3950   26.0020   68.0620 C.2   277  GLY277      0.2639
    135  O        -16.8840   26.1570   69.1740 O.2   277  GLY277     -0.2714
    136  N        -16.7810   25.4010   67.0460 N.am  278  ASN278     -0.1958
    137  CA       -15.4190   24.8980   67.1560 C.3   278  ASN278      0.1819
    138  C        -14.5030   25.8460   66.3850 C.2   278  ASN278      0.2621
    139  O        -14.8500   27.0110   66.1810 O.2   278  ASN278     -0.2715
    140  CB       -15.3070   23.4770   66.6050 C.3   278  ASN278      0.1195
    141  CG       -16.2550   22.5140   67.2720 C.2   278  ASN278      0.2630
    142  OD1      -16.3970   22.5110   68.4940 O.2   278  ASN278     -0.2716
    143  ND2      -16.9090   21.6820   66.4700 N.am  278  ASN278     -0.0877
    144  N        -13.3390   25.3670   65.9610 N.am  279  LEU279     -0.1963
    145  CA       -12.3270   26.2650   65.4300 C.3   279  LEU279      0.1728
    146  C        -12.8530   26.9950   64.2070 C.2   279  LEU279      0.2617
    147  O        -12.6120   28.1870   64.0330 O.2   279  LEU279     -0.2715
    148  CB       -11.0700   25.4810   65.0620 C.3   279  LEU279      0.0311
    149  CG        -9.7410   26.1560   65.3740 C.3   279  LEU279      0.0022
    150  CD1       -9.5380   26.2760   66.8820 C.3   279  LEU279      0.0001
    151  CD2       -8.5950   25.3770   64.7320 C.3   279  LEU279      0.0001
    152  N        -13.6050   26.2650   63.3890 N.am  280  GLY280     -0.1940
    153  CA       -14.2410   26.8100   62.2040 C.3   280  GLY280      0.2014
    154  C        -15.0310   28.0760   62.4300 C.2   280  GLY280      0.2639
    155  O        -14.9590   29.0060   61.6330 O.2   280  GLY280     -0.2714
    156  N        -15.8150   28.0970   63.5040 N.am  281  SER281     -0.1949
    157  CA       -16.6660   29.2400   63.7810 C.3   281  SER281      0.1924
    158  C        -15.8260   30.4690   64.0840 C.2   281  SER281      0.2314
    159  O        -16.1750   31.5860   63.7200 O.2   281  SER281     -0.2863
    160  CB       -17.5880   28.9450   64.9690 C.3   281  SER281      0.2116
    161  OG       -16.8870   29.0510   66.2020 O.3   281  SER281     -0.2180
    162  N        -30.6020   25.2660   56.7290 N.3   304  THR304     -0.1218
    163  CA       -29.7210   26.3450   57.1750 C.3   304  THR304      0.1862
    164  C        -29.4340   27.2870   56.0130 C.2   304  THR304      0.2287
    165  O        -28.9760   26.8500   54.9590 O.2   304  THR304     -0.2866
    166  CB       -28.4010   25.8070   57.7280 C.3   304  THR304      0.1770
    167  OG1      -28.6550   25.0950   58.9450 O.3   304  THR304     -0.2211
    168  CG2      -27.4190   26.9460   58.0110 C.3   304  THR304      0.0375
@<TRIPOS>BOND
     1    65    66    1
     2    66    67    1
     3    66    69    1
     4    67    68    2
     5    71    70   ar
     6    40    37    1
     7    21    22    1
     8     4     3    2
     9    26    25    1
    10    70    69    1
    11    70    72   ar
    12    22    25    1
    13    22    23    1
    14     3     2    1
    15    38    37    1
    16    38    39    2
    17    12    13    1
    18    25    27    1
    19    37    36    1
    20   165   164    2
    21     1     2    1
    22     2     5    1
    23    23    24    2
    24    23    28   am
    25    36    30   am
    26    41    42    1
    27   164   163    1
    28    13    14    1
    29    13    16    1
    30    14    15    2
    31    64    61    1
    32    28    29    1
    33    30    29    1
    34    30    31    2
    35   162   163    1
    36     5     6    1
    37    46    47    1
    38    46    45    1
    39    42    45    1
    40    42    43    1
    41    16    17    1
    42    49    47   am
    43    62    63    2
    44    62    61    1
    45   163   166    1
    46    29    32    1
    47    61    60    1
    48    17    18    1
    49    47    48    2
    50    60    52   am
    51   166   168    1
    52   166   167    1
    53     6     7    1
    54    43    50   am
    55    43    44    2
    56    32    33    1
    57    73    74    1
    58    18    20   ar
    59    18    19   ar
    60    50    51    1
    61    52    51    1
    62    52    53    2
    63    34    33    2
    64    33    35   am
    65     7     8    1
    66    51    54    1
    67    74    77    1
    68    74    75    1
    69   122   121   ar
    70   122   120   ar
    71     8     9    2
    72    84    75   am
    73    84    85    1
    74    54    55    1
    75    77    78    1
    76   121   119   ar
    77    75    76    2
    78   120   118   ar
    79    85    86    1
    80     9    10    1
    81     9    11    1
    82    55    57   ar
    83    55    56   ar
    84    57    59   ar
    85    56    58   ar
    86   119   116   ar
    87    95    93    1
    88   118   116   ar
    89   118   117   ar
    90    78    79    1
    91   155   154    2
    92    86    88   am
    93    86    87    2
    94    59    58   ar
    95    93    92    1
    96    88    89    1
    97    79    80    1
    98   116   114   ar
    99   153   154    1
   100   153   152    1
   101   117   115   ar
   102   154   156   am
   103    92    89    1
   104    92    94    1
   105    89    90    1
   106    82    81    1
   107   114   115   ar
   108   114   113    1
   109   152   146   am
   110    80    81    2
   111   156   157    1
   112   159   158    2
   113   157   158    1
   114   157   160    1
   115   112   111    2
   116    81    83    1
   117   147   146    2
   118   146   145    1
   119   113   110    1
   120   111   110    1
   121    90    91    2
   122    90    96   am
   123   151   149    1
   124   160   161    1
   125   148   149    1
   126   148   145    1
   127   110   109    1
   128   102    96    1
   129   102   101    1
   130   149   150    1
   131    96    97    1
   132   145   144    1
   133   144   138   am
   134   139   138    2
   135   138   137    1
   136   143   141   am
   137   101   100    1
   138   140   137    1
   139   140   141    1
   140    97    98    1
   141    97   100    1
   142   136   137    1
   143   136   134   am
   144   126   125    2
   145    99    98    2
   146   141   142    2
   147   106   105    2
   148   133   134    1
   149   133   132    1
   150   108   107    1
   151   134   135    2
   152   107   104    1
   153   125   132   am
   154   125   124    1
   155   105   104    1
   156   123   124    1
   157   104   103    1
   158   124   127    1
   159   127   128    1
   160   128   129    1
   161   130   129   ar
   162   129   131   ar
