@<TRIPOS>MOLECULE
tmp/4r3bA01.pdb
 110 102 0 0 0
SMALL
GASTEIGER

@<TRIPOS>ATOM
      1  N          8.3530   32.5550    8.3890 N.3    45  SER45      -0.1217
      2  CA         7.9200   31.3860    7.6240 C.3    45  SER45       0.1889
      3  C          8.4480   30.0610    8.1630 C.2    45  SER45       0.2288
      4  O          7.9850   29.0030    7.7280 O.2    45  SER45      -0.2866
      5  CB         8.2780   31.5170    6.1360 C.3    45  SER45       0.2089
      6  OG         7.6520   32.6400    5.5240 O.3    45  SER45      -0.2183
      7  N          6.0520   27.2330    9.3400 N.3    48  LYS48      -0.1245
      8  CA         5.3500   26.3730    8.3940 C.3    48  LYS48       0.1561
      9  C          5.7440   24.9040    8.5460 C.2    48  LYS48       0.2260
     10  O          4.9620   24.0190    8.2220 O.2    48  LYS48      -0.2867
     11  CB         5.5530   26.8750    6.9600 C.3    48  LYS48       0.0271
     12  CG         4.8000   28.2050    6.7310 C.3    48  LYS48       0.0035
     13  CD         5.1940   28.8910    5.4570 C.3    48  LYS48       0.0206
     14  CE         4.5610   30.2810    5.3420 C.3    48  LYS48       0.1093
     15  NZ         4.9800   31.0180    4.1220 N.3    48  LYS48      -0.1314
     16  N         -0.8270   38.1360    0.3960 N.3    79  ASP79      -0.1225
     17  CA         0.4180   38.4670   -0.2860 C.3    79  ASP79       0.1805
     18  C          1.3400   37.2470   -0.4000 C.2    79  ASP79       0.2597
     19  O          1.5180   36.5290    0.5690 O.2    79  ASP79      -0.2718
     20  CB         1.1240   39.5880    0.4970 C.3    79  ASP79       0.1424
     21  CG         2.3880   40.0830   -0.1850 C.2    79  ASP79       0.3668
     22  OD1        2.4720   40.0230   -1.4290 O.co2  79  ASP79      -0.2456
     23  OD2        3.2990   40.5390    0.5400 O.co2  79  ASP79      -0.2456
     24  N          1.8760   37.0230   -1.6040 N.am   80  TYR80      -0.1976
     25  CA         2.8360   35.9640   -1.9330 C.3    80  TYR80       0.1639
     26  C          2.2540   34.5490   -1.9420 C.2    80  TYR80       0.2290
     27  O          2.3780   33.7800   -0.9760 O.2    80  TYR80      -0.2864
     28  CB         4.1100   36.0360   -1.0990 C.3    80  TYR80       0.0560
     29  CG         5.2140   35.3000   -1.8050 C.ar   80  TYR80      -0.0198
     30  CD1        5.7360   35.7990   -2.9960 C.ar   80  TYR80      -0.0009
     31  CD2        5.6900   34.0660   -1.3320 C.ar   80  TYR80      -0.0009
     32  CE1        6.7210   35.1270   -3.6900 C.ar   80  TYR80       0.0417
     33  CE2        6.7060   33.3770   -2.0280 C.ar   80  TYR80       0.0417
     34  CZ         7.2070   33.9260   -3.2090 C.ar   80  TYR80       0.1957
     35  OH         8.2040   33.3030   -3.9320 O.3    80  TYR80      -0.2866
     36  N          7.1800   28.7220    0.3150 N.3   105  SER105     -0.1217
     37  CA         6.7430   29.7460    1.2700 C.3   105  SER105      0.1889
     38  C          5.4570   30.4390    0.8100 C.2   105  SER105      0.2288
     39  O          5.2580   31.6470    1.0080 O.2   105  SER105     -0.2866
     40  CB         7.8510   30.7410    1.6150 C.3   105  SER105      0.2089
     41  OG         7.8700   30.9290    3.0190 O.3   105  SER105     -0.2183
     42  N          2.0820   31.8320    1.0950 N.3   107  ASN107     -0.1240
     43  CA         1.3840   32.3210    2.3050 C.3   107  ASN107      0.1653
     44  C         -0.0810   31.8990    2.3850 C.2   107  ASN107      0.2266
     45  O         -0.5890   31.5900    3.4750 O.2   107  ASN107     -0.2867
     46  CB         1.5090   33.8270    2.4640 C.3   107  ASN107      0.1155
     47  CG         2.8770   34.2270    2.9120 C.2   107  ASN107      0.2627
     48  OD1        3.5100   33.5140    3.7040 O.2   107  ASN107     -0.2716
     49  ND2        3.3540   35.3740    2.4240 N.am  107  ASN107     -0.0877
     50  N         -0.9620   34.5620    8.1950 N.3   141  GLU141     -0.1231
     51  CA        -0.1500   35.2520    7.1820 C.3   141  GLU141      0.1699
     52  C         -0.9680   36.4370    6.6620 C.2   141  GLU141      0.2592
     53  O         -2.1720   36.2830    6.4500 O.2   141  GLU141     -0.2718
     54  CB         0.2060   34.3280    6.0170 C.3   141  GLU141      0.0402
     55  CG         1.1980   33.2240    6.3630 C.3   141  GLU141      0.1161
     56  CD         2.6000   33.7580    6.6780 C.2   141  GLU141      0.3649
     57  OE1        2.8240   34.9970    6.5830 O.co2 141  GLU141     -0.2457
     58  OE2        3.4810   32.9290    7.0200 O.co2 141  GLU141     -0.2457
     59  N         -0.3560   37.6090    6.4690 N.am  142  THR142     -0.1953
     60  CA         1.0830   37.8620    6.6520 C.3   142  THR142      0.1897
     61  C          1.4250   38.6720    7.9170 C.2   142  THR142      0.2313
     62  O          2.6040   38.9960    8.1570 O.2   142  THR142     -0.2863
     63  CB         1.6600   38.6190    5.4350 C.3   142  THR142      0.1794
     64  OG1        1.0000   39.8830    5.3180 O.3   142  THR142     -0.2208
     65  CG2        1.4420   37.8330    4.1420 C.3   142  THR142      0.0378
     66  N          4.5010   38.1460   10.5620 N.3   145  ASN145     -0.1240
     67  CA         5.8850   38.5430   10.2700 C.3   145  ASN145      0.1653
     68  C          6.2610   39.9400   10.7720 C.2   145  ASN145      0.2266
     69  O          7.3630   40.4320   10.5020 O.2   145  ASN145     -0.2867
     70  CB         6.1350   38.4780    8.7560 C.3   145  ASN145      0.1155
     71  CG         5.8260   37.1090    8.1810 C.2   145  ASN145      0.2627
     72  OD1        6.4760   36.1310    8.5280 O.2   145  ASN145     -0.2716
     73  ND2        4.8190   37.0300    7.3130 N.am  145  ASN145     -0.0877
     74  N         13.4260   28.6170    5.5400 N.3   210  THR210     -0.1203
     75  CA        13.8510   29.9690    5.9130 C.3   210  THR210      0.1994
     76  C         12.6680   30.8970    6.1390 C.2   210  THR210      0.2618
     77  O         11.5430   30.5840    5.7570 O.2   210  THR210     -0.2717
     78  CB        14.8200   30.5820    4.8720 C.3   210  THR210      0.1784
     79  OG1       14.1570   30.6950    3.6140 O.3   210  THR210     -0.2211
     80  CG2       16.0780   29.7240    4.7210 C.3   210  THR210      0.0376
     81  N         12.9270   32.0310    6.7750 N.am  211  GLY211     -0.1942
     82  CA        11.9130   33.0400    6.9980 C.3   211  GLY211      0.2014
     83  C         12.5360   34.4130    7.0180 C.2   211  GLY211      0.2639
     84  O         13.7440   34.5680    7.2820 O.2   211  GLY211     -0.2714
     85  N         11.7080   35.4180    6.7700 N.am  212  ALA212     -0.1963
     86  CA        12.1300   36.8140    6.8390 C.3   212  ALA212      0.1728
     87  C         10.9560   37.6250    7.3560 C.2   212  ALA212      0.2617
     88  O          9.7920   37.2680    7.1220 O.2   212  ALA212     -0.2715
     89  CB        12.5590   37.3190    5.4610 C.3   212  ALA212      0.0334
     90  N         11.2560   38.7060    8.0720 N.am  213  GLY213     -0.1940
     91  CA        10.2190   39.5970    8.5850 C.3   213  GLY213      0.2014
     92  C         10.7050   41.0320    8.6810 C.2   213  GLY213      0.2638
     93  O         11.7460   41.3970    8.1160 O.2   213  GLY213     -0.2714
     94  N          9.9430   41.8560    9.3850 N.am  214  GLU214     -0.1977
     95  CA        10.2760   43.2750    9.5200 C.3   214  GLU214      0.1602
     96  C         11.4420   43.5070   10.4760 C.2   214  GLU214      0.2287
     97  O         11.8230   42.6160   11.2600 O.2   214  GLU214     -0.2864
     98  CB         9.0500   44.1020    9.9400 C.3   214  GLU214      0.0415
     99  CG         7.8230   43.9270    9.0170 C.3   214  GLU214      0.1163
    100  CD         6.7230   44.9550    9.2210 C.2   214  GLU214      0.3649
    101  OE1        6.9390   45.9690    9.9200 O.co2 214  GLU214     -0.2457
    102  OE2        5.6280   44.7390    8.6590 O.co2 214  GLU214     -0.2457
    103  N         19.1050   42.5690    3.4430 N.3   245  MET245     -0.1245
    104  CA        18.8760   41.1170    3.2920 C.3   245  MET245      0.1570
    105  C         20.1620   40.3730    2.9350 C.2   245  MET245      0.2261
    106  O         20.4620   39.3300    3.5100 O.2   245  MET245     -0.2867
    107  CB        17.8000   40.8470    2.2390 C.3   245  MET245      0.0387
    108  CG        17.4010   39.3770    2.1280 C.3   245  MET245      0.0595
    109  SD        16.6330   38.7210    3.6220 S.3   245  MET245     -0.1393
    110  CE        15.0450   39.5350    3.4940 C.3   245  MET245      0.0692
@<TRIPOS>BOND
     1    35    34    1
     2    32    34   ar
     3    32    30   ar
     4    34    33   ar
     5    30    29   ar
     6    33    31   ar
     7    26    25    1
     8    26    27    2
     9    25    24    1
    10    25    28    1
    11    29    31   ar
    12    29    28    1
    13    24    18   am
    14    22    21   ar
    15    18    17    1
    16    18    19    2
    17    17    16    1
    18    17    20    1
    19    21    20    1
    20    21    23   ar
    21    36    37    1
    22    38    39    2
    23    38    37    1
    24    42    43    1
    25    37    40    1
    26    40    41    1
    27   108   107    1
    28   108   109    1
    29   107   104    1
    30    43    44    1
    31    43    46    1
    32    44    45    2
    33    49    47   am
    34    46    47    1
    35    47    48    2
    36   105   104    1
    37   105   106    2
    38   104   103    1
    39   110   109    1
    40    79    78    1
    41    15    14    1
    42    65    63    1
    43    80    78    1
    44    78    75    1
    45    64    63    1
    46    14    13    1
    47    63    60    1
    48    13    12    1
    49    89    86    1
    50     6     5    1
    51    74    75    1
    52    77    76    2
    53    75    76    1
    54    54    55    1
    55    54    51    1
    56     5     2    1
    57    76    81   am
    58    55    56    1
    59    53    52    2
    60    59    60    1
    61    59    52   am
    62    57    56   ar
    63    60    61    1
    64    52    51    1
    65    56    58   ar
    66    12    11    1
    67    85    86    1
    68    85    83   am
    69    81    82    1
    70    86    87    1
    71    11     8    1
    72    82    83    1
    73    83    84    2
    74    88    87    2
    75    51    50    1
    76    73    71   am
    77    87    90   am
    78     2     3    1
    79     2     1    1
    80     4     3    2
    81    61    62    2
    82    90    91    1
    83    93    92    2
    84    71    72    2
    85    71    70    1
    86    10     9    2
    87     8     9    1
    88     8     7    1
    89    91    92    1
    90   102   100   ar
    91    92    94   am
    92    70    67    1
    93    99   100    1
    94    99    98    1
    95   100   101   ar
    96    94    95    1
    97    95    98    1
    98    95    96    1
    99    67    66    1
   100    67    68    1
   101    96    97    2
   102    69    68    2
