@<TRIPOS>MOLECULE
tmp/4r3cA00.pdb
 133 126 0 0 0
SMALL
GASTEIGER

@<TRIPOS>ATOM
      1  N         86.9070   86.7380   16.7530 N.3   174  PRO174     -0.2102
      2  CA        87.5780   88.0370   16.8870 C.3   174  PRO174      0.1504
      3  C         87.3310   88.9780   15.7200 C.2   174  PRO174      0.2575
      4  O         87.2280   90.1770   15.9390 O.2   174  PRO174     -0.2718
      5  CB        89.0610   87.6760   16.9360 C.3   174  PRO174      0.0282
      6  CG        89.1490   86.2860   16.4050 C.3   174  PRO174      0.0208
      7  CD        87.8710   85.6250   16.7950 C.3   174  PRO174      0.0893
      8  N         87.2990   88.4410   14.4930 N.am  175  GLU175     -0.1980
      9  CA        87.0630   89.2610   13.3280 C.3   175  GLU175      0.1602
     10  C         85.7160   89.9910   13.4230 C.2   175  GLU175      0.2287
     11  O         85.5760   91.0900   12.8860 O.2   175  GLU175     -0.2864
     12  CB        87.1810   88.4740   12.0030 C.3   175  GLU175      0.0415
     13  CG        86.2590   87.2800   11.8270 C.3   175  GLU175      0.1163
     14  CD        86.8360   85.9510   12.3440 C.2   175  GLU175      0.3649
     15  OE1       87.6570   85.9410   13.3020 O.co2 175  GLU175     -0.2457
     16  OE2       86.4570   84.9120   11.7540 O.co2 175  GLU175     -0.2457
     17  N         86.0580   92.8900   15.5740 N.3   178  LEU178     -0.1245
     18  CA        86.6800   93.9350   14.7940 C.3   178  LEU178      0.1561
     19  C         85.7540   94.5370   13.7430 C.2   178  LEU178      0.2260
     20  O         86.1710   95.4030   13.0000 O.2   178  LEU178     -0.2867
     21  CB        87.9420   93.4150   14.1180 C.3   178  LEU178      0.0270
     22  CG        89.0990   93.2650   15.0870 C.3   178  LEU178      0.0019
     23  CD1       90.2550   92.5860   14.3760 C.3   178  LEU178      0.0001
     24  CD2       89.5060   94.6330   15.6360 C.3   178  LEU178      0.0001
     25  N         84.4350   93.1550   10.9580 N.3   180  TRP180     -0.1241
     26  CA        84.7340   92.8270    9.5690 C.3   180  TRP180      0.1605
     27  C         83.4370   92.4150    8.9240 C.2   180  TRP180      0.2264
     28  O         82.7280   91.5690    9.4330 O.2   180  TRP180     -0.2867
     29  CB        85.7500   91.6910    9.4710 C.3   180  TRP180      0.0550
     30  CG        86.2900   91.4200    8.1000 C.ar  180  TRP180      0.0003
     31  CD1       86.6080   92.3560    7.1460 C.ar  180  TRP180      0.0946
     32  CD2       86.7840   90.1600    7.6000 C.ar  180  TRP180      0.0152
     33  NE1       87.1960   91.7410    6.0630 N.ar  180  TRP180     -0.2442
     34  CE2       87.3130   90.3970    6.3150 C.ar  180  TRP180      0.0810
     35  CE3       86.8260   88.8550    8.1150 C.ar  180  TRP180      0.0012
     36  CZ2       87.8600   89.3760    5.5270 C.ar  180  TRP180      0.0191
     37  CZ3       87.3610   87.8260    7.3190 C.ar  180  TRP180      0.0001
     38  CH2       87.8740   88.1080    6.0360 C.ar  180  TRP180      0.0015
     39  N         88.1620   91.0350   22.8380 N.3   215  LEU215     -0.1245
     40  CA        89.3010   90.9470   21.9450 C.3   215  LEU215      0.1561
     41  C         90.6140   90.8100   22.7350 C.2   215  LEU215      0.2260
     42  O         91.4760   90.0160   22.3650 O.2   215  LEU215     -0.2867
     43  CB        89.3580   92.1580   21.0220 C.3   215  LEU215      0.0270
     44  CG        90.4100   92.0350   19.9210 C.3   215  LEU215      0.0019
     45  CD1       90.1470   90.7950   19.0670 C.3   215  LEU215      0.0001
     46  CD2       90.4350   93.2920   19.0620 C.3   215  LEU215      0.0001
     47  N         93.3810   87.7010   22.2750 N.3   219  LEU219     -0.1245
     48  CA        94.7540   87.8980   21.8300 C.3   219  LEU219      0.1561
     49  C         95.7360   87.4520   22.9210 C.2   219  LEU219      0.2260
     50  O         96.8560   87.0560   22.6320 O.2   219  LEU219     -0.2867
     51  CB        94.9830   89.3710   21.4470 C.3   219  LEU219      0.0270
     52  CG        94.0600   89.9260   20.3750 C.3   219  LEU219      0.0019
     53  CD1       94.3960   91.3600   20.0300 C.3   219  LEU219      0.0001
     54  CD2       94.1280   89.0720   19.1230 C.3   219  LEU219      0.0001
     55  N         98.0970   89.5020   16.1230 N.3   225  PRO225     -0.2116
     56  CA        98.2300   89.1030   14.7070 C.3   225  PRO225      0.1372
     57  C         99.6430   89.1780   14.0820 C.2   225  PRO225      0.2244
     58  O        100.3470   90.1660   14.2440 O.2   225  PRO225     -0.2868
     59  CB        97.3180   90.0950   13.9770 C.3   225  PRO225      0.0268
     60  CG        96.3660   90.5780   14.9810 C.3   225  PRO225      0.0207
     61  CD        97.0590   90.5340   16.3130 C.3   225  PRO225      0.0892
     62  N         98.3940   88.0570    8.6180 N.3   229  LEU229     -0.1245
     63  CA        97.0380   88.4540    8.9790 C.3   229  LEU229      0.1561
     64  C         96.8510   89.9760    8.9600 C.2   229  LEU229      0.2260
     65  O         95.7790   90.4640    8.5800 O.2   229  LEU229     -0.2867
     66  CB        96.6270   87.8590   10.3270 C.3   229  LEU229      0.0270
     67  CG        95.2070   88.1990   10.7940 C.3   229  LEU229      0.0019
     68  CD1       94.1320   87.8470    9.7520 C.3   229  LEU229      0.0001
     69  CD2       94.9160   87.5340   12.1390 C.3   229  LEU229      0.0001
     70  N         95.6160   91.6420    5.7230 N.3   232  LYS232     -0.1231
     71  CA        94.2340   91.4530    5.2830 C.3   232  LYS232      0.1693
     72  C         93.2580   92.4310    5.8950 C.2   232  LYS232      0.2592
     73  O         92.0750   92.4090    5.5540 O.2   232  LYS232     -0.2718
     74  CB        93.7720   90.0170    5.6160 C.3   232  LYS232      0.0285
     75  CG        94.6620   88.9560    4.9730 C.3   232  LYS232      0.0035
     76  CD        94.2180   87.5590    5.3650 C.3   232  LYS232      0.0206
     77  CE        95.2100   86.5160    4.8630 C.3   232  LYS232      0.1093
     78  NZ        94.7640   85.1590    5.2630 N.3   232  LYS232     -0.1314
     79  N         93.7290   93.2870    6.7940 N.am  233  ILE233     -0.1966
     80  CA        92.8380   94.2270    7.4650 C.3   233  ILE233      0.1727
     81  C         92.7590   95.5270    6.6870 C.2   233  ILE233      0.2617
     82  O         93.7450   96.2880    6.6020 O.2   233  ILE233     -0.2715
     83  CB        93.2830   94.4930    8.9050 C.3   233  ILE233      0.0290
     84  CG1       93.5160   93.1630    9.6200 C.3   233  ILE233      0.0022
     85  CG2       92.2280   95.3420    9.6140 C.3   233  ILE233      0.0023
     86  CD1       93.9460   93.2740   11.0750 C.3   233  ILE233      0.0001
     87  N         91.5950   95.7660    6.0980 N.am  234  SER234     -0.1936
     88  CA        91.3540   96.9540    5.3050 C.3   234  SER234      0.2055
     89  C         90.9880   98.1690    6.1590 C.2   234  SER234      0.2643
     90  O         91.3530   99.2860    5.8160 O.2   234  SER234     -0.2714
     91  CB        90.2690   96.6960    4.2660 C.3   234  SER234      0.2130
     92  OG        89.0340   96.3410    4.8680 O.3   234  SER234     -0.2179
     93  N         90.2710   97.9550    7.2560 N.am  235  SER235     -0.1949
     94  CA        89.9130   99.0580    8.1520 C.3   235  SER235      0.1924
     95  C         91.1560   99.7300    8.7360 C.2   235  SER235      0.2314
     96  O         91.8910   99.1230    9.5190 O.2   235  SER235     -0.2863
     97  CB        89.0160   98.5550    9.2860 C.3   235  SER235      0.2116
     98  OG        88.8150   99.5720   10.2510 O.3   235  SER235     -0.2180
     99  N         90.9060   99.9500   12.6690 N.3   238  ALA238     -0.1245
    100  CA        91.0610   98.6360   13.3050 C.3   238  ALA238      0.1562
    101  C         92.5140   98.1820   13.2310 C.2   238  ALA238      0.2260
    102  O         93.0550   97.6720   14.2190 O.2   238  ALA238     -0.2867
    103  CB        90.1600   97.6000   12.6570 C.3   238  ALA238      0.0290
    104  N         94.9770   97.5190   16.5030 N.3   242  ILE242     -0.1245
    105  CA        95.6670   96.2390   16.6720 C.3   242  ILE242      0.1561
    106  C         97.1870   96.3980   16.7200 C.2   242  ILE242      0.2260
    107  O         97.8470   95.8350   17.5860 O.2   242  ILE242     -0.2867
    108  CB        95.3260   95.2770   15.5080 C.3   242  ILE242      0.0252
    109  CG1       93.8660   94.8000   15.5930 C.3   242  ILE242      0.0019
    110  CG2       96.2610   94.0810   15.4940 C.3   242  ILE242      0.0019
    111  CD1       93.4980   94.1430   16.9020 C.3   242  ILE242      0.0001
    112  N         93.7380   82.5390   14.8340 N.3   274  LEU274     -0.1231
    113  CA        93.3270   83.9180   14.7280 C.3   274  LEU274      0.1693
    114  C         92.8770   84.2630   13.2970 C.2   274  LEU274      0.2592
    115  O         91.8280   84.8750   13.1210 O.2   274  LEU274     -0.2718
    116  CB        94.4540   84.8310   15.2110 C.3   274  LEU274      0.0284
    117  CG        94.0150   86.2330   15.5620 C.3   274  LEU274      0.0019
    118  CD1       92.9300   86.1860   16.6370 C.3   274  LEU274      0.0001
    119  CD2       95.2160   87.0510   16.0380 C.3   274  LEU274      0.0001
    120  N         93.6610   83.8410   12.3050 N.am  275  ASP275     -0.1960
    121  CA        93.3510   84.0330   10.8860 C.3   275  ASP275      0.1840
    122  C         92.2980   82.9890   10.4560 C.2   275  ASP275      0.2622
    123  O         92.5770   81.7740   10.3950 O.2   275  ASP275     -0.2715
    124  CB        94.6320   83.8840   10.0490 C.3   275  ASP275      0.1450
    125  CG        94.4340   84.2280    8.5670 C.2   275  ASP275      0.3671
    126  OD1       93.2740   84.2220    8.0780 O.co2 275  ASP275     -0.2456
    127  OD2       95.4620   84.5070    7.8790 O.co2 275  ASP275     -0.2456
    128  N         91.1290   83.4850   10.0610 N.am  276  SER276     -0.1950
    129  CA        90.0030   82.6490    9.6890 C.3   276  SER276      0.1924
    130  C         90.2600   81.8000    8.4440 C.2   276  SER276      0.2314
    131  O         89.6470   80.7400    8.2780 O.2   276  SER276     -0.2863
    132  CB        88.7310   83.4980    9.5280 C.3   276  SER276      0.2116
    133  OG        88.7830   84.3550    8.4060 O.3   276  SER276     -0.2180
@<TRIPOS>BOND
     1    91    92    1
     2    91    88    1
     3    77    78    1
     4    77    76    1
     5    75    76    1
     6    75    74    1
     7    71    74    1
     8    71    70    1
     9    71    72    1
    10    88    87    1
    11    88    89    1
    12    36    38   ar
    13    36    34   ar
    14    73    72    2
    15    90    89    2
    16    72    79   am
    17    38    37   ar
    18    33    34   ar
    19    33    31   ar
    20    87    81   am
    21    89    93   am
    22    34    32   ar
    23    82    81    2
    24    81    80    1
    25    79    80    1
    26    31    30   ar
    27    93    94    1
    28    37    35   ar
    29    80    83    1
    30    32    30   ar
    31    32    35   ar
    32   127   125   ar
    33   126   125   ar
    34    30    29    1
    35    94    95    1
    36    94    97    1
    37   131   130    2
    38   133   132    1
    39   130   129    1
    40   125   124    1
    41    65    64    2
    42    62    63    1
    43    95    96    2
    44    83    85    1
    45    83    84    1
    46    27    28    2
    47    27    26    1
    48    64    63    1
    49    63    66    1
    50    97    98    1
    51    29    26    1
    52   132   129    1
    53    26    25    1
    54    84    86    1
    55   129   128    1
    56    68    67    1
    57   124   121    1
    58   128   122   am
    59    66    67    1
    60   123   122    2
    61   122   121    1
    62    67    69    1
    63   121   120    1
    64    16    14   ar
    65    13    12    1
    66    13    14    1
    67    12     9    1
    68   120   114   am
    69    14    15   ar
    70   103   100    1
    71    99   100    1
    72    11    10    2
    73    20    19    2
    74   115   114    2
    75   101   100    1
    76   101   102    2
    77   114   113    1
    78     9    10    1
    79     9     8    1
    80    19    18    1
    81    59    56    1
    82    59    60    1
    83    57    58    2
    84    57    56    1
    85    21    18    1
    86    21    22    1
    87    23    22    1
    88     8     3   am
    89    56    55    1
    90   113   112    1
    91   113   116    1
    92    18    17    1
    93    60    61    1
    94    22    24    1
    95   116   117    1
    96   110   108    1
    97   108   109    1
    98   108   105    1
    99   117   119    1
   100   117   118    1
   101   109   111    1
   102     3     4    2
   103     3     2    1
   104    55    61    1
   105     6     7    1
   106     6     5    1
   107   104   105    1
   108   105   106    1
   109   106   107    2
   110     1     7    1
   111     1     2    1
   112     2     5    1
   113    46    44    1
   114    45    44    1
   115    54    52    1
   116    44    43    1
   117    53    52    1
   118    52    51    1
   119    43    40    1
   120    51    48    1
   121    48    47    1
   122    48    49    1
   123    40    41    1
   124    40    39    1
   125    42    41    2
   126    50    49    2
