@<TRIPOS>MOLECULE
tmp/4r3cA01.pdb
 163 153 0 0 0
SMALL
GASTEIGER

@<TRIPOS>ATOM
      1  N         57.2790   76.1700   28.3340 N.3    27  VAL27      -0.1245
      2  CA        58.6760   75.7960   28.5450 C.3    27  VAL27       0.1561
      3  C         59.5540   77.0360   28.6780 C.2    27  VAL27       0.2260
      4  O         60.6100   76.9880   29.3010 O.2    27  VAL27      -0.2867
      5  CB        59.2160   74.9460   27.3680 C.3    27  VAL27       0.0252
      6  CG1       60.6960   74.6110   27.5560 C.3    27  VAL27       0.0019
      7  CG2       58.4060   73.6770   27.2200 C.3    27  VAL27       0.0019
      8  N         57.2260   79.1940   23.7390 N.3    35  VAL35      -0.1245
      9  CA        57.2720   77.7890   23.4890 C.3    35  VAL35       0.1561
     10  C         56.5080   76.9900   24.5270 C.2    35  VAL35       0.2260
     11  O         56.6240   77.2220   25.7280 O.2    35  VAL35      -0.2867
     12  CB        58.7430   77.2980   23.5000 C.3    35  VAL35       0.0252
     13  CG1       58.8210   75.7840   23.3110 C.3    35  VAL35       0.0019
     14  CG2       59.5450   78.0280   22.4370 C.3    35  VAL35       0.0019
     15  N         57.5970   70.2800   20.9870 N.3    48  ALA48      -0.1231
     16  CA        57.6900   71.6540   21.4280 C.3    48  ALA48       0.1694
     17  C         57.0330   72.4680   20.3130 C.2    48  ALA48       0.2592
     18  O         57.3380   72.2830   19.1200 O.2    48  ALA48      -0.2718
     19  CB        59.1220   72.0850   21.6550 C.3    48  ALA48       0.0304
     20  N         56.1370   73.3470   20.7150 N.am   49  VAL49      -0.1966
     21  CA        55.3980   74.2180   19.8120 C.3    49  VAL49       0.1727
     22  C         55.8090   75.6640   20.0860 C.2    49  VAL49       0.2616
     23  O         55.7170   76.1530   21.2300 O.2    49  VAL49      -0.2715
     24  CB        53.8720   74.1030   20.0400 C.3    49  VAL49       0.0290
     25  CG1       53.1040   74.9080   19.0050 C.3    49  VAL49       0.0023
     26  CG2       53.4080   72.6470   20.0000 C.3    49  VAL49       0.0023
     27  N         56.2760   76.3500   19.0490 N.am   50  LYS50      -0.1977
     28  CA        56.6650   77.7410   19.1940 C.3    50  LYS50       0.1596
     29  C         55.6920   78.6530   18.4690 C.2    50  LYS50       0.2287
     30  O         55.4310   78.5000   17.2580 O.2    50  LYS50      -0.2864
     31  CB        58.0610   78.0080   18.6340 C.3    50  LYS50       0.0298
     32  CG        58.4460   79.4890   18.7230 C.3    50  LYS50       0.0038
     33  CD        59.7160   79.8400   17.9710 C.3    50  LYS50       0.0206
     34  CE        60.9410   79.2250   18.6030 C.3    50  LYS50       0.1093
     35  NZ        62.1790   79.7120   17.9350 N.3    50  LYS50      -0.1314
     36  N         63.0140   82.4390    8.7960 N.3    68  GLU68      -0.1245
     37  CA        62.9080   81.3840    9.7860 C.3    68  GLU68       0.1567
     38  C         62.1690   80.1630    9.2260 C.2    68  GLU68       0.2260
     39  O         62.6250   79.0240    9.3520 O.2    68  GLU68      -0.2867
     40  CB        62.2040   81.9750   11.0070 C.3    68  GLU68       0.0388
     41  CG        61.6750   81.0250   12.0640 C.3    68  GLU68       0.1160
     42  CD        62.7440   80.3970   12.9100 C.2    68  GLU68       0.3649
     43  OE1       63.9060   80.3090   12.4490 O.co2  68  GLU68      -0.2457
     44  OE2       62.3980   79.9800   14.0420 O.co2  68  GLU68      -0.2457
     45  N         63.8910   76.5590    8.4350 N.3    72  LEU72      -0.1245
     46  CA        63.3680   75.3850    9.1240 C.3    72  LEU72       0.1561
     47  C         62.8080   74.3340    8.1650 C.2    72  LEU72       0.2260
     48  O         62.9990   73.1430    8.3760 O.2    72  LEU72      -0.2867
     49  CB        62.3280   75.7740   10.1360 C.3    72  LEU72       0.0270
     50  CG        62.8990   76.5170   11.3160 C.3    72  LEU72       0.0019
     51  CD1       61.7550   76.9880   12.2000 C.3    72  LEU72       0.0001
     52  CD2       63.8620   75.6130   12.0640 C.3    72  LEU72       0.0001
     53  N         67.8020   71.3340   14.3610 N.3    81  ILE81      -0.1231
     54  CA        66.3930   71.3440   14.7060 C.3    81  ILE81       0.1692
     55  C         65.6100   71.4290   13.4020 C.2    81  ILE81       0.2593
     56  O         65.9660   72.1880   12.5090 O.2    81  ILE81      -0.2718
     57  CB        66.0410   72.5190   15.6360 C.3    81  ILE81       0.0266
     58  CG1       64.7370   72.2540   16.3850 C.3    81  ILE81       0.0019
     59  CG2       66.0200   73.8380   14.9040 C.3    81  ILE81       0.0020
     60  CD1       64.9390   71.3190   17.5680 C.3    81  ILE81       0.0001
     61  N         64.5740   70.6070   13.2840 N.am   82  GLY82      -0.1942
     62  CA        63.7530   70.5890   12.0880 C.3    82  GLY82       0.2014
     63  C         62.2740   70.7280   12.4090 C.2    82  GLY82       0.2638
     64  O         61.8680   70.8060   13.5900 O.2    82  GLY82      -0.2714
     65  N         61.4780   70.7640   11.3530 N.am   83  LEU83      -0.1977
     66  CA        60.0270   70.9350   11.4950 C.3    83  LEU83       0.1596
     67  C         59.2160   69.6840   11.3750 C.2    83  LEU83       0.2287
     68  O         59.2510   69.0180   10.3300 O.2    83  LEU83      -0.2864
     69  CB        59.4650   71.8630   10.4130 C.3    83  LEU83       0.0297
     70  CG        59.5290   73.3590   10.5420 C.3    83  LEU83       0.0022
     71  CD1       58.8690   73.9640    9.3130 C.3    83  LEU83       0.0001
     72  CD2       58.8220   73.8370   11.7910 C.3    83  LEU83       0.0001
     73  N         55.0440   76.8430   14.9840 N.3   101  LEU101     -0.1231
     74  CA        56.0640   75.8740   14.5640 C.3   101  LEU101      0.1693
     75  C         56.1150   74.7220   15.5490 C.2   101  LEU101      0.2592
     76  O         56.0060   74.9390   16.7450 O.2   101  LEU101     -0.2718
     77  CB        57.4390   76.5400   14.5290 C.3   101  LEU101      0.0284
     78  CG        57.4430   77.8660   13.7850 C.3   101  LEU101      0.0019
     79  CD1       58.7700   78.5820   13.9850 C.3   101  LEU101      0.0001
     80  CD2       57.1330   77.6080   12.3320 C.3   101  LEU101      0.0001
     81  N         56.3210   73.5110   15.0470 N.am  102  VAL102     -0.1966
     82  CA        56.3700   72.3230   15.8930 C.3   102  VAL102      0.1727
     83  C         57.6260   71.4980   15.6040 C.2   102  VAL102      0.2617
     84  O         57.9690   71.2490   14.4240 O.2   102  VAL102     -0.2715
     85  CB        55.1440   71.4350   15.6460 C.3   102  VAL102      0.0290
     86  CG1       55.1960   70.2070   16.5550 C.3   102  VAL102      0.0023
     87  CG2       53.8540   72.2200   15.8360 C.3   102  VAL102      0.0023
     88  N         58.3140   71.0880   16.6640 N.am  103  THR103     -0.1937
     89  CA        59.4900   70.2170   16.5650 C.3   103  THR103      0.2028
     90  C         59.5200   69.2110   17.7560 C.2   103  THR103      0.2642
     91  O         58.7120   69.3380   18.6810 O.2   103  THR103     -0.2714
     92  CB        60.7980   71.0130   16.5610 C.3   103  THR103      0.1808
     93  OG1       61.8710   70.1480   16.1580 O.3   103  THR103     -0.2208
     94  CG2       61.0960   71.6120   17.9550 C.3   103  THR103      0.0379
     95  N         60.4410   68.2290   17.7180 N.am  104  HIS104     -0.1959
     96  CA        60.5950   67.2260   18.7940 C.3   104  HIS104      0.1787
     97  C         60.9400   67.9340   20.0790 C.2   104  HIS104      0.2620
     98  O         61.7600   68.8410   20.0750 O.2   104  HIS104     -0.2715
     99  CB        61.7170   66.2240   18.4930 C.3   104  HIS104      0.0785
    100  CG        61.4440   65.2980   17.3450 C.ar  104  HIS104      0.0821
    101  ND1       60.6990   64.1440   17.4790 N.ar  104  HIS104     -0.2267
    102  CD2       61.8880   65.3100   16.0630 C.ar  104  HIS104      0.1154
    103  CE1       60.6610   63.5080   16.3190 C.ar  104  HIS104      0.1986
    104  NE2       61.3750   64.1940   15.4430 N.ar  104  HIS104     -0.2212
    105  N         60.3220   67.5520   21.1900 N.am  105  LEU105     -0.1963
    106  CA        60.6280   68.2230   22.4440 C.3   105  LEU105      0.1728
    107  C         62.0500   67.8100   22.8480 C.2   105  LEU105      0.2616
    108  O         62.4060   66.6340   22.7400 O.2   105  LEU105     -0.2715
    109  CB        59.6230   67.8500   23.5460 C.3   105  LEU105      0.0311
    110  CG        59.9040   68.4350   24.9410 C.3   105  LEU105      0.0022
    111  CD1       59.7680   69.9450   24.9210 C.3   105  LEU105      0.0001
    112  CD2       58.9720   67.8520   25.9970 C.3   105  LEU105      0.0001
    113  N         62.8710   68.7800   23.2490 N.am  106  MET106     -0.1977
    114  CA        64.2400   68.5070   23.7320 C.3   106  MET106      0.1605
    115  C         64.2410   68.9260   25.1920 C.2   106  MET106      0.2287
    116  O         63.7570   69.9980   25.5340 O.2   106  MET106     -0.2864
    117  CB        65.2880   69.2920   22.9440 C.3   106  MET106      0.0413
    118  CG        65.3480   68.9660   21.4630 C.3   106  MET106      0.0598
    119  SD        65.8910   67.2920   21.0970 S.3   106  MET106     -0.1393
    120  CE        67.6520   67.3620   21.4660 C.3   106  MET106      0.0692
    121  N         69.3690   72.3750   27.4400 N.3   109  ASP109     -0.1239
    122  CA        70.3580   72.9940   26.5710 C.3   109  ASP109      0.1674
    123  C         71.7190   72.7180   27.1780 C.2   109  ASP109      0.2266
    124  O         71.8470   72.4050   28.3930 O.2   109  ASP109     -0.2867
    125  CB        70.0840   74.4880   26.3170 C.3   109  ASP109      0.1410
    126  CG        70.2980   75.3570   27.5450 C.2   109  ASP109      0.3668
    127  OD1       71.3100   75.1540   28.2460 O.co2 109  ASP109     -0.2456
    128  OD2       69.4750   76.2810   27.7720 O.co2 109  ASP109     -0.2456
    129  N         73.7750   77.8270   25.0600 N.3   151  SER151     -0.1202
    130  CA        72.3250   77.9400   25.2180 C.3   151  SER151      0.2020
    131  C         71.5140   77.7140   23.9260 C.2   151  SER151      0.2618
    132  O         70.2990   77.5930   23.9840 O.2   151  SER151     -0.2717
    133  CB        71.9680   79.2800   25.8460 C.3   151  SER151      0.2103
    134  OG        72.5130   80.2980   25.0430 O.3   151  SER151     -0.2182
    135  N         72.1720   77.6870   22.7690 N.am  152  ASN152     -0.1974
    136  CA        71.5120   77.4170   21.4890 C.3   152  ASN152      0.1688
    137  C         71.7270   75.9680   21.0300 C.2   152  ASN152      0.2292
    138  O         71.5230   75.6250   19.8470 O.2   152  ASN152     -0.2864
    139  CB        72.0270   78.3960   20.4000 C.3   152  ASN152      0.1181
    140  CG        71.4820   79.8020   20.5880 C.2   152  ASN152      0.2629
    141  OD1       70.5290   80.0170   21.3530 O.2   152  ASN152     -0.2716
    142  ND2       72.0840   80.7700   19.9090 N.am  152  ASN152     -0.0877
    143  N         70.5280   72.2510   21.8280 N.3   154  ALA154     -0.1245
    144  CA        69.5800   71.4340   22.6000 C.3   154  ALA154      0.1562
    145  C         70.1380   70.0180   22.7650 C.2   154  ALA154      0.2260
    146  O         70.7060   69.4540   21.8320 O.2   154  ALA154     -0.2867
    147  CB        68.2200   71.4060   21.9390 C.3   154  ALA154      0.0290
    148  N         70.0750   74.7880   17.3730 N.3   163  LEU163     -0.1231
    149  CA        68.8660   75.6190   17.3740 C.3   163  LEU163      0.1693
    150  C         69.2370   77.0570   16.9710 C.2   163  LEU163      0.2592
    151  O         70.4120   77.4050   16.9000 O.2   163  LEU163     -0.2718
    152  CB        68.3040   75.7030   18.8000 C.3   163  LEU163      0.0284
    153  CG        68.1090   74.4960   19.7280 C.3   163  LEU163      0.0019
    154  CD1       67.9170   74.9870   21.1630 C.3   163  LEU163      0.0001
    155  CD2       66.9340   73.6320   19.3200 C.3   163  LEU163      0.0001
    156  N         68.2310   77.8960   16.7480 N.am  164  ASP164     -0.1974
    157  CA        68.4320   79.3240   16.4280 C.3   164  ASP164      0.1709
    158  C         69.4300   79.6760   15.3270 C.2   164  ASP164      0.2293
    159  O         70.1950   80.6260   15.4830 O.2   164  ASP164     -0.2864
    160  CB        68.8570   80.0770   17.6860 C.3   164  ASP164      0.1436
    161  CG        67.7390   80.2060   18.6970 C.2   164  ASP164      0.3671
    162  OD1       66.6500   79.6300   18.4790 O.co2 164  ASP164     -0.2456
    163  OD2       67.9480   80.9010   19.7140 O.co2 164  ASP164     -0.2456
@<TRIPOS>BOND
     1    47    48    2
     2    47    46    1
     3    45    46    1
     4    36    37    1
     5    46    49    1
     6    38    39    2
     7    38    37    1
     8    71    70    1
     9    37    40    1
    10    49    50    1
    11    68    67    2
    12    69    70    1
    13    69    66    1
    14    70    72    1
    15    40    41    1
    16    50    52    1
    17    50    51    1
    18    65    66    1
    19    65    63   am
    20    67    66    1
    21    41    42    1
    22    62    63    1
    23    62    61    1
    24    80    78    1
    25    63    64    2
    26    43    42   ar
    27    56    55    2
    28    42    44   ar
    29    61    55   am
    30    55    54    1
    31    78    79    1
    32    78    77    1
    33    53    54    1
    34    84    83    2
    35    77    74    1
    36    74    73    1
    37    74    75    1
    38    54    57    1
    39    59    57    1
    40    81    75   am
    41    81    82    1
    42   158   159    2
    43   158   157    1
    44   104   102   ar
    45   104   103   ar
    46    75    76    2
    47    83    82    1
    48    83    88   am
    49    57    58    1
    50    85    87    1
    51    85    82    1
    52    85    86    1
    53   102   100   ar
    54    93    92    1
    55   103   101   ar
    56    58    60    1
    57   157   156    1
    58   157   160    1
    59    92    89    1
    60    92    94    1
    61    89    88    1
    62    89    90    1
    63   156   150   am
    64   151   150    2
    65   150   149    1
    66    30    29    2
    67   100   101   ar
    68   100    99    1
    69   148   149    1
    70   149   152    1
    71   160   161    1
    72    95    90   am
    73    95    96    1
    74    90    91    2
    75    35    34    1
    76    33    34    1
    77    33    32    1
    78    29    28    1
    79   162   161   ar
    80    99    96    1
    81    31    32    1
    82    31    28    1
    83   161   163   ar
    84    96    97    1
    85   152   153    1
    86    25    24    1
    87    27    28    1
    88    27    22   am
    89    18    17    2
    90   155   153    1
    91   153   154    1
    92    21    24    1
    93    21    22    1
    94    21    20    1
    95   138   137    2
    96   142   140   am
    97    26    24    1
    98    98    97    2
    99    97   105   am
   100    22    23    2
   101    17    20   am
   102    17    16    1
   103   139   140    1
   104   139   136    1
   105   140   141    2
   106    15    16    1
   107   137   136    1
   108   119   118    1
   109   119   120    1
   110   105   106    1
   111    16    19    1
   112   118   117    1
   113   136   135    1
   114   143   144    1
   115   146   145    2
   116   147   144    1
   117    14    12    1
   118   106   107    1
   119   106   109    1
   120   144   145    1
   121   108   107    2
   122   135   131   am
   123   107   113   am
   124   117   114    1
   125   113   114    1
   126    13    12    1
   127     9    12    1
   128     9     8    1
   129     9    10    1
   130   109   110    1
   131   114   115    1
   132   131   132    2
   133   131   130    1
   134    10    11    2
   135   111   110    1
   136   110   112    1
   137   134   133    1
   138   129   130    1
   139   115   116    2
   140   130   133    1
   141   125   122    1
   142   125   126    1
   143   122   123    1
   144   122   121    1
   145   123   124    2
   146     7     5    1
   147     5     6    1
   148     5     2    1
   149   126   128   ar
   150   126   127   ar
   151     1     2    1
   152     2     3    1
   153     3     4    2
