@<TRIPOS>MOLECULE
tmp/4r3fA00.pdb
 83 81 0 0 0
SMALL
GASTEIGER

@<TRIPOS>ATOM
      1  N         31.2490    2.5710   -6.5680 N.3    43  TYR43      -0.1241
      2  CA        30.5120    2.9510   -7.7720 C.3    43  TYR43       0.1605
      3  C         29.0110    3.0730   -7.5470 C.2    43  TYR43       0.2264
      4  O         28.3340    3.8580   -8.2100 O.2    43  TYR43      -0.2867
      5  CB        30.7650    1.9030   -8.8520 C.3    43  TYR43       0.0534
      6  CG        30.2860    2.2000  -10.2500 C.ar   43  TYR43      -0.0201
      7  CD1       31.0500    2.9660  -11.1250 C.ar   43  TYR43      -0.0009
      8  CD2       29.1090    1.6470  -10.7320 C.ar   43  TYR43      -0.0009
      9  CE1       30.6460    3.1770  -12.4250 C.ar   43  TYR43       0.0417
     10  CE2       28.7060    1.8540  -12.0330 C.ar   43  TYR43       0.0417
     11  CZ        29.4700    2.6250  -12.8680 C.ar   43  TYR43       0.1957
     12  OH        29.0530    2.8060  -14.1550 O.3    43  TYR43      -0.2866
     13  N         27.6760    3.8160   -4.5260 N.3    45  ASP45      -0.1225
     14  CA        27.3950    4.7070   -3.3990 C.3    45  ASP45       0.1805
     15  C         26.6020    5.9150   -3.8960 C.2    45  ASP45       0.2598
     16  O         27.0100    6.5750   -4.8520 O.2    45  ASP45      -0.2718
     17  CB        28.6830    5.1910   -2.7100 C.3    45  ASP45       0.1424
     18  CG        29.4570    4.0910   -2.0170 C.2    45  ASP45       0.3668
     19  OD1       29.0630    2.9150   -2.0770 O.co2  45  ASP45      -0.2456
     20  OD2       30.5070    4.4340   -1.4100 O.co2  45  ASP45      -0.2456
     21  N         25.4770    6.1930   -3.2470 N.am   46  GLY46      -0.1942
     22  CA        24.6150    7.3050   -3.6140 C.3    46  GLY46       0.2014
     23  C         23.6650    7.0270   -4.7680 C.2    46  GLY46       0.2640
     24  O         22.8710    7.8940   -5.1430 O.2    46  GLY46      -0.2714
     25  N         23.7400    5.8370   -5.3600 N.am   47  THR47      -0.1936
     26  CA        22.8210    5.4950   -6.4410 C.3    47  THR47       0.2028
     27  C         21.4760    5.0760   -5.8620 C.2    47  THR47       0.2642
     28  O         21.3930    4.6470   -4.7100 O.2    47  THR47      -0.2714
     29  CB        23.3590    4.3790   -7.3810 C.3    47  THR47       0.1808
     30  OG1       23.5110    3.1380   -6.6810 O.3    47  THR47      -0.2208
     31  CG2       24.6740    4.8070   -8.0150 C.3    47  THR47       0.0379
     32  N         20.4270    5.2450   -6.6520 N.am   48  ILE48      -0.1977
     33  CA        19.0720    4.9980   -6.2040 C.3    48  ILE48       0.1596
     34  C         18.4810    3.7900   -6.9140 C.2    48  ILE48       0.2287
     35  O         19.0240    3.2960   -7.9120 O.2    48  ILE48      -0.2864
     36  CB        18.1580    6.2450   -6.4260 C.3    48  ILE48       0.0276
     37  CG1       17.9890    6.5770   -7.9070 C.3    48  ILE48       0.0022
     38  CG2       18.6910    7.4400   -5.6400 C.3    48  ILE48       0.0022
     39  CD1       16.8210    7.5020   -8.1890 C.3    48  ILE48       0.0001
     40  N         22.5220    2.5120  -11.4890 N.3    62  ASP62      -0.1225
     41  CA        22.8500    3.4810  -12.5270 C.3    62  ASP62       0.1790
     42  C         23.3990    4.7600  -11.8940 C.2    62  ASP62       0.2440
     43  O         22.6520    5.5150  -11.2850 O.2    62  ASP62      -0.2733
     44  CB        21.5930    3.8120  -13.3400 C.3    62  ASP62       0.1423
     45  CG        21.8580    4.7530  -14.5010 C.2    62  ASP62       0.3668
     46  OD1       22.9740    5.3120  -14.6150 O.co2  62  ASP62      -0.2456
     47  OD2       20.9200    4.9400  -15.3040 O.co2  62  ASP62      -0.2456
     48  N         24.6960    5.0460  -12.0630 N.am   63  PRO63      -0.2718
     49  CA        25.2240    6.2960  -11.4970 C.3    63  PRO63       0.1535
     50  C         24.5140    7.5570  -11.9830 C.2    63  PRO63       0.2599
     51  O         24.6390    8.5900  -11.3210 O.2    63  PRO63      -0.2715
     52  CB        26.6770    6.3240  -11.9660 C.3    63  PRO63       0.0310
     53  CG        27.0010    4.9820  -12.3550 C.3    63  PRO63       0.0237
     54  CD        25.7340    4.2810  -12.7690 C.3    63  PRO63       0.0939
     55  N         23.7980    7.4870  -13.0990 N.am   64  THR64      -0.1937
     56  CA        23.0260    8.6400  -13.5860 C.3    64  THR64       0.2028
     57  C         21.5770    8.6510  -13.0880 C.2    64  THR64       0.2643
     58  O         20.8910    9.6850  -13.1810 O.2    64  THR64      -0.2714
     59  CB        23.0140    8.7000  -15.1280 C.3    64  THR64       0.1808
     60  OG1       22.1420    7.6990  -15.6660 O.3    64  THR64      -0.2208
     61  CG2       24.4060    8.4960  -15.6890 C.3    64  THR64       0.0379
     62  N         21.1060    7.5380  -12.5350 N.am   65  GLY65      -0.1939
     63  CA        19.7500    7.4640  -12.0050 C.3    65  GLY65       0.2014
     64  C         18.6360    7.5490  -13.0410 C.2    65  GLY65       0.2639
     65  O         17.4670    7.7250  -12.6760 O.2    65  GLY65      -0.2714
     66  N         18.9890    7.4150  -14.3210 N.am   66  THR66      -0.1950
     67  CA        18.0240    7.5540  -15.4200 C.3    66  THR66       0.1897
     68  C         17.4870    6.2360  -15.9450 C.2    66  THR66       0.2313
     69  O         16.4460    6.1890  -16.6170 O.2    66  THR66      -0.2863
     70  CB        18.6520    8.2540  -16.6300 C.3    66  THR66       0.1794
     71  OG1       19.7090    7.4420  -17.1760 O.3    66  THR66      -0.2208
     72  CG2       19.1920    9.6220  -16.2360 C.3    66  THR66       0.0378
     73  N          9.1860    5.8040  -11.6970 N.3   177  ARG177     -0.1245
     74  CA        10.1700    6.3440  -10.7680 C.3   177  ARG177      0.1563
     75  C          9.5270    6.6360   -9.4130 C.2   177  ARG177      0.2260
     76  O          8.5860    7.4190   -9.3290 O.2   177  ARG177     -0.2867
     77  CB        10.7720    7.6390  -11.3070 C.3   177  ARG177      0.0307
     78  CG        11.9540    8.1190  -10.4810 C.3   177  ARG177      0.0489
     79  CD        12.4470    9.4490  -10.9630 C.3   177  ARG177      0.2205
     80  NE        13.7030    9.8320  -10.3340 N.pl3 177  ARG177     -0.0865
     81  CZ        14.9050    9.5710  -10.8390 C.cat 177  ARG177      0.5346
     82  NH1       15.0400    8.8920  -11.9720 N.pl3 177  ARG177      0.1354
     83  NH2       15.9830    9.9760  -10.1960 N.pl3 177  ARG177      0.1354
@<TRIPOS>BOND
     1    71    70    1
     2    70    72    1
     3    70    67    1
     4    69    68    2
     5    68    67    1
     6    61    59    1
     7    60    59    1
     8    67    66    1
     9    47    45   ar
    10    59    56    1
    11    46    45   ar
    12    45    44    1
    13    66    64   am
    14    12    11    1
    15    56    55    1
    16    56    57    1
    17    44    41    1
    18    58    57    2
    19    55    50   am
    20    57    62   am
    21    64    65    2
    22    64    63    1
    23    11     9   ar
    24    11    10   ar
    25    54    53    1
    26    54    48    1
    27    62    63    1
    28    41    42    1
    29    41    40    1
    30     9     7   ar
    31    53    52    1
    32    48    42   am
    33    48    49    1
    34    10     8   ar
    35    50    49    1
    36    50    51    2
    37    82    81    1
    38    52    49    1
    39    42    43    2
    40    73    74    1
    41    77    74    1
    42    77    78    1
    43     7     6   ar
    44    79    78    1
    45    79    80    1
    46    81    80    2
    47    81    83    1
    48    74    75    1
    49     8     6   ar
    50     6     5    1
    51    75    76    2
    52     5     2    1
    53     4     3    2
    54    39    37    1
    55    31    29    1
    56    35    34    2
    57    37    36    1
    58     2     3    1
    59     2     1    1
    60    29    30    1
    61    29    26    1
    62    34    33    1
    63    32    33    1
    64    32    27   am
    65    26    27    1
    66    26    25    1
    67    36    33    1
    68    36    38    1
    69    27    28    2
    70    25    23   am
    71    24    23    2
    72    16    15    2
    73    23    22    1
    74    13    14    1
    75    15    14    1
    76    15    21   am
    77    22    21    1
    78    14    17    1
    79    17    18    1
    80    19    18   ar
    81    18    20   ar
