@<TRIPOS>MOLECULE
tmp/4r3jA00.pdb
 131 124 0 0 0
SMALL
GASTEIGER

@<TRIPOS>ATOM
      1  N        -25.8090   31.9990  -20.2520 N.3   132  GLY132     -0.1210
      2  CA       -26.8760   32.3610  -21.1780 C.3   132  GLY132      0.1956
      3  C        -26.3060   32.5100  -22.5680 C.2   132  GLY132      0.2612
      4  O        -25.3190   31.8380  -22.9230 O.2   132  GLY132     -0.2717
      5  N        -26.8860   33.4310  -23.3250 N.am  133  SER133     -0.1952
      6  CA       -26.6720   33.4970  -24.7550 C.3   133  SER133      0.1924
      7  C        -25.2300   33.8460  -25.1010 C.2   133  SER133      0.2314
      8  O        -24.8260   33.6850  -26.2650 O.2   133  SER133     -0.2863
      9  CB       -27.6310   34.4890  -25.4040 C.3   133  SER133      0.2116
     10  OG       -28.9700   34.2400  -24.9720 O.3   133  SER133     -0.2180
     11  N        -37.9660   28.7000  -26.2330 N.3   168  HIS168     -0.1241
     12  CA       -38.5640   29.9670  -26.6460 C.3   168  HIS168      0.1621
     13  C        -37.5150   31.0320  -26.9440 C.2   168  HIS168      0.2264
     14  O        -36.4390   31.0560  -26.3350 O.2   168  HIS168     -0.2867
     15  CB       -39.6420   30.4810  -25.6450 C.3   168  HIS168      0.0745
     16  CG       -39.2710   30.3610  -24.1880 C.ar  168  HIS168      0.0817
     17  ND1      -39.3220   29.1660  -23.4960 N.ar  168  HIS168     -0.2268
     18  CD2      -38.9020   31.3000  -23.2790 C.ar  168  HIS168      0.1154
     19  CE1      -38.9710   29.3700  -22.2350 C.ar  168  HIS168      0.1986
     20  NE2      -38.7120   30.6560  -22.0780 N.ar  168  HIS168     -0.2212
     21  N        -36.7890   35.0060  -26.5180 N.3   170  TYR170     -0.1241
     22  CA       -37.1590   36.0450  -25.5620 C.3   170  TYR170      0.1605
     23  C        -38.4930   36.6450  -26.0190 C.2   170  TYR170      0.2264
     24  O        -38.6440   36.9980  -27.2000 O.2   170  TYR170     -0.2867
     25  CB       -36.0390   37.1160  -25.4500 C.3   170  TYR170      0.0534
     26  CG       -36.3790   38.4340  -24.7150 C.ar  170  TYR170     -0.0201
     27  CD1      -37.0210   39.4880  -25.3760 C.ar  170  TYR170     -0.0009
     28  CD2      -36.0230   38.6310  -23.3720 C.ar  170  TYR170     -0.0009
     29  CE1      -37.3220   40.6770  -24.7170 C.ar  170  TYR170      0.0417
     30  CE2      -36.3100   39.8150  -22.7170 C.ar  170  TYR170      0.0417
     31  CZ       -36.9670   40.8310  -23.3880 C.ar  170  TYR170      0.1957
     32  OH       -37.2610   42.0160  -22.7390 O.3   170  TYR170     -0.2866
     33  N        -29.3550   38.6230  -33.2250 N.3   185  ARG185     -0.1231
     34  CA       -30.5780   38.9250  -32.5230 C.3   185  ARG185      0.1694
     35  C        -30.7140   38.0140  -31.3430 C.2   185  ARG185      0.2592
     36  O        -31.6480   38.1510  -30.5980 O.2   185  ARG185     -0.2718
     37  CB       -31.7870   38.7660  -33.4600 C.3   185  ARG185      0.0321
     38  CG       -31.8850   39.8790  -34.4930 C.3   185  ARG185      0.0489
     39  CD       -32.9570   39.6610  -35.5500 C.3   185  ARG185      0.2205
     40  NE       -34.3280   39.7800  -35.0290 N.pl3 185  ARG185     -0.0865
     41  CZ       -35.4280   39.7730  -35.7920 C.cat 185  ARG185      0.5346
     42  NH1      -36.6410   39.8590  -35.2490 N.pl3 185  ARG185      0.1354
     43  NH2      -35.3180   39.6630  -37.1070 N.pl3 185  ARG185      0.1354
     44  N        -29.8120   37.0450  -31.2170 N.am  186  SER186     -0.1952
     45  CA       -29.7810   36.0860  -30.1070 C.3   186  SER186      0.1924
     46  C        -31.0360   35.2190  -29.9700 C.2   186  SER186      0.2314
     47  O        -31.5870   35.0700  -28.8550 O.2   186  SER186     -0.2863
     48  CB       -29.4410   36.7750  -28.7670 C.3   186  SER186      0.2116
     49  OG       -28.6510   35.9090  -27.9530 O.3   186  SER186     -0.2180
     50  N        -32.8410   32.0370  -29.3580 N.3   188  ASN188     -0.1240
     51  CA       -32.7680   30.6930  -28.7910 C.3   188  ASN188      0.1653
     52  C        -33.3240   29.5470  -29.6890 C.2   188  ASN188      0.2266
     53  O        -32.7590   28.4470  -29.7440 O.2   188  ASN188     -0.2867
     54  CB       -33.4980   30.6550  -27.4400 C.3   188  ASN188      0.1155
     55  CG       -32.8270   31.5050  -26.3640 C.2   188  ASN188      0.2627
     56  OD1      -31.6140   31.5630  -26.2770 O.2   188  ASN188     -0.2716
     57  ND2      -33.6300   32.1290  -25.5070 N.am  188  ASN188     -0.0877
     58  N        -31.1790   23.5710  -24.8420 N.3   238  TRP238     -0.1241
     59  CA       -31.0000   24.6890  -23.9350 C.3   238  TRP238      0.1605
     60  C        -29.5410   24.9000  -23.5570 C.2   238  TRP238      0.2264
     61  O        -29.1490   26.0180  -23.3070 O.2   238  TRP238     -0.2867
     62  CB       -31.7960   24.5170  -22.6320 C.3   238  TRP238      0.0550
     63  CG       -33.1700   25.1050  -22.6710 C.ar  238  TRP238      0.0003
     64  CD1      -34.3290   24.4660  -22.3670 C.ar  238  TRP238      0.0946
     65  CD2      -33.5410   26.4480  -23.0440 C.ar  238  TRP238      0.0152
     66  NE1      -35.3980   25.3160  -22.5140 N.ar  238  TRP238     -0.2442
     67  CE2      -34.9470   26.5350  -22.9350 C.ar  238  TRP238      0.0810
     68  CE3      -32.8250   27.5760  -23.4660 C.ar  238  TRP238      0.0012
     69  CZ2      -35.6490   27.6950  -23.2260 C.ar  238  TRP238      0.0191
     70  CZ3      -33.5280   28.7370  -23.7540 C.ar  238  TRP238      0.0001
     71  CH2      -34.9270   28.7860  -23.6300 C.ar  238  TRP238      0.0015
     72  N        -27.8330   27.1590  -25.7670 N.3   241  CYS241     -0.1235
     73  CA       -28.2580   28.5440  -25.5830 C.3   241  CYS241      0.1677
     74  C        -27.6830   29.1060  -24.3240 C.2   241  CYS241      0.2270
     75  O        -28.0330   30.1950  -23.9060 O.2   241  CYS241     -0.2867
     76  CB       -29.7740   28.6170  -25.5260 C.3   241  CYS241      0.0956
     77  SG       -30.4650   28.2530  -27.1390 S.3   241  CYS241     -0.0801
     78  N        -27.9480   27.6100  -21.2820 N.3   243  LEU243     -0.1245
     79  CA       -28.7510   27.2980  -20.0960 C.3   243  LEU243      0.1561
     80  C        -28.6260   25.8650  -19.5950 C.2   243  LEU243      0.2260
     81  O        -29.0180   24.8950  -20.2930 O.2   243  LEU243     -0.2867
     82  CB       -30.2080   27.6620  -20.3070 C.3   243  LEU243      0.0270
     83  CG       -30.5360   29.1590  -20.3120 C.3   243  LEU243      0.0019
     84  CD1      -32.0500   29.3010  -20.2270 C.3   243  LEU243      0.0001
     85  CD2      -29.8870   29.9320  -19.1630 C.3   243  LEU243      0.0001
     86  N        -28.3480   42.5980  -30.5560 N.3   320  THR320     -0.1218
     87  CA       -28.5280   42.7110  -29.1050 C.3   320  THR320      0.1862
     88  C        -27.4790   43.5560  -28.4180 C.2   320  THR320      0.2287
     89  O        -27.7130   44.0090  -27.3220 O.2   320  THR320     -0.2866
     90  CB       -28.4790   41.3220  -28.4150 C.3   320  THR320      0.1770
     91  OG1      -27.2340   40.6530  -28.7080 O.3   320  THR320     -0.2211
     92  CG2      -29.6210   40.4570  -28.8940 C.3   320  THR320      0.0375
     93  N        -23.6980   39.1210  -26.4180 N.3   334  THR334     -0.1203
     94  CA       -24.3870   39.4970  -25.1770 C.3   334  THR334      0.1994
     95  C        -24.9830   38.2570  -24.6060 C.2   334  THR334      0.2618
     96  O        -25.1270   37.2310  -25.3110 O.2   334  THR334     -0.2717
     97  CB       -25.5460   40.5080  -25.4080 C.3   334  THR334      0.1784
     98  OG1      -26.4550   40.0150  -26.4220 O.3   334  THR334     -0.2211
     99  CG2      -24.9800   41.8740  -25.8130 C.3   334  THR334      0.0376
    100  N        -25.3640   38.3630  -23.3400 N.am  335  GLY335     -0.1942
    101  CA       -26.0740   37.2820  -22.6770 C.3   335  GLY335      0.2014
    102  C        -27.0090   37.8290  -21.6260 C.2   335  GLY335      0.2640
    103  O        -26.7620   38.8700  -21.0650 O.2   335  GLY335     -0.2714
    104  N        -28.0680   37.1010  -21.3450 N.am  336  THR336     -0.1936
    105  CA       -28.9750   37.4330  -20.2690 C.3   336  THR336      0.2028
    106  C        -29.4170   36.0780  -19.7330 C.2   336  THR336      0.2642
    107  O        -29.7460   35.1770  -20.5160 O.2   336  THR336     -0.2714
    108  CB       -30.1970   38.2090  -20.7960 C.3   336  THR336      0.1808
    109  OG1      -29.7600   39.3100  -21.5940 O.3   336  THR336     -0.2208
    110  CG2      -31.0460   38.7180  -19.6690 C.3   336  THR336      0.0379
    111  N        -29.3980   35.9050  -18.4160 N.am  337  ALA337     -0.1963
    112  CA       -29.8340   34.6280  -17.8320 C.3   337  ALA337      0.1728
    113  C        -30.5600   34.8150  -16.4940 C.2   337  ALA337      0.2616
    114  O        -30.1530   35.6590  -15.7000 O.2   337  ALA337     -0.2715
    115  CB       -28.6370   33.6980  -17.7000 C.3   337  ALA337      0.0334
    116  N        -31.6250   34.0410  -16.2550 N.am  338  ASP338     -0.1971
    117  CA       -32.4040   34.1020  -14.9780 C.3   338  ASP338      0.1709
    118  C        -31.6310   33.7490  -13.7080 C.2   338  ASP338      0.2293
    119  O        -31.9880   34.1900  -12.6170 O.2   338  ASP338     -0.2864
    120  CB       -33.6200   33.1790  -15.0490 C.3   338  ASP338      0.1436
    121  CG       -34.6770   33.6890  -15.9840 C.2   338  ASP338      0.3671
    122  OD1      -34.3500   34.4820  -16.8960 O.co2 338  ASP338     -0.2456
    123  OD2      -35.8450   33.2960  -15.8050 O.co2 338  ASP338     -0.2456
    124  N        -30.8550   44.6270  -17.9660 N.3   371  LEU371     -0.1245
    125  CA       -30.8370   44.1910  -19.3570 C.3   371  LEU371      0.1561
    126  C        -29.9530   45.1290  -20.1870 C.2   371  LEU371      0.2260
    127  O        -30.0970   46.3450  -20.1140 O.2   371  LEU371     -0.2867
    128  CB       -32.2770   44.1430  -19.9160 C.3   371  LEU371      0.0270
    129  CG       -32.5420   43.9390  -21.4290 C.3   371  LEU371      0.0019
    130  CD1      -31.9240   42.6400  -21.9430 C.3   371  LEU371      0.0001
    131  CD2      -34.0430   44.0010  -21.7730 C.3   371  LEU371      0.0001
@<TRIPOS>BOND
     1    43    41    1
     2    41    42    1
     3    41    40    2
     4    39    40    1
     5    39    38    1
     6    38    37    1
     7    37    34    1
     8    33    34    1
     9    34    35    1
    10    35    44   am
    11    35    36    2
    12    44    45    1
    13    86    87    1
    14    45    46    1
    15    45    48    1
    16    46    47    2
    17    53    52    2
    18    52    51    1
    19    50    51    1
    20    87    88    1
    21    87    90    1
    22    92    90    1
    23    51    54    1
    24    48    49    1
    25    91    90    1
    26    88    89    2
    27    54    55    1
    28    24    23    2
    29    77    76    1
    30    13    12    1
    31    13    14    2
    32    12    11    1
    33    12    15    1
    34    21    22    1
    35    98    97    1
    36    93    94    1
    37    55    56    2
    38    55    57   am
    39     8     7    2
    40    23    22    1
    41    99    97    1
    42    72    73    1
    43    15    16    1
    44    73    76    1
    45    73    74    1
    46    22    25    1
    47    25    26    1
    48    97    94    1
    49     9    10    1
    50     9     6    1
    51    27    29   ar
    52    27    26   ar
    53    96    95    2
    54    94    95    1
    55     7     6    1
    56    58    59    1
    57     6     5    1
    58    29    31   ar
    59    26    28   ar
    60    95   100   am
    61    74    75    2
    62    16    17   ar
    63    16    18   ar
    64    59    60    1
    65    59    62    1
    66    70    71   ar
    67    70    68   ar
    68    71    69   ar
    69    60    61    2
    70    17    19   ar
    71    68    65   ar
    72    31    32    1
    73    31    30   ar
    74    28    30   ar
    75   100   101    1
    76     5     3   am
    77    18    20   ar
    78    69    67   ar
    79    65    67   ar
    80    65    63   ar
    81    67    66   ar
    82     4     3    2
    83   101   102    1
    84    63    62    1
    85    63    64   ar
    86     3     2    1
    87    66    64   ar
    88    19    20   ar
    89   130   129    1
    90   131   129    1
    91   102   104   am
    92   102   103    2
    93   109   108    1
    94   129   128    1
    95   104   105    1
    96    78    79    1
    97     2     1    1
    98   108   105    1
    99   108   110    1
   100   107   106    2
   101    83    82    1
   102    83    84    1
   103    83    85    1
   104    82    79    1
   105    81    80    2
   106   105   106    1
   107   126   127    2
   108   126   125    1
   109    79    80    1
   110   128   125    1
   111   106   111   am
   112   125   124    1
   113   111   112    1
   114   112   115    1
   115   112   113    1
   116   122   121   ar
   117   113   116   am
   118   113   114    2
   119   116   117    1
   120   121   123   ar
   121   121   120    1
   122   120   117    1
   123   117   118    1
   124   118   119    2
