@<TRIPOS>MOLECULE
tmp/4r3lA00.pdb
 118 115 0 0 0
SMALL
GASTEIGER

@<TRIPOS>ATOM
      1  N         13.3610   69.2860   15.4260 N.3    23  LEU23      -0.1245
      2  CA        12.8580   69.6660   14.1140 C.3    23  LEU23       0.1561
      3  C         13.3320   71.0680   13.6990 C.2    23  LEU23       0.2260
      4  O         13.6800   71.8880   14.5460 O.2    23  LEU23      -0.2867
      5  CB        11.3280   69.5950   14.1010 C.3    23  LEU23       0.0270
      6  CG        10.7250   68.1900   14.1630 C.3    23  LEU23       0.0019
      7  CD1        9.2420   68.2450   14.4690 C.3    23  LEU23       0.0001
      8  CD2       10.9640   67.4590   12.8480 C.3    23  LEU23       0.0001
      9  N         11.3450   73.1100   11.6380 N.3    25  GLU25      -0.1245
     10  CA        10.1470   73.9400   11.5540 C.3    25  GLU25       0.1567
     11  C          9.7030   74.3690   12.9460 C.2    25  GLU25       0.2260
     12  O          8.8820   73.7050   13.5750 O.2    25  GLU25      -0.2867
     13  CB         9.0140   73.1890   10.8510 C.3    25  GLU25       0.0388
     14  CG         9.4370   72.4360    9.5960 C.3    25  GLU25       0.1160
     15  CD         9.9820   71.0440    9.8890 C.2    25  GLU25       0.3649
     16  OE1        9.5480   70.4190   10.8840 O.co2  25  GLU25      -0.2457
     17  OE2       10.8500   70.5740    9.1210 O.co2  25  GLU25      -0.2457
     18  N          7.5910   76.3620   14.8600 N.3    27  TYR27      -0.1241
     19  CA         6.3530   77.1120   14.9460 C.3    27  TYR27       0.1605
     20  C          6.2590   77.9190   16.2380 C.2    27  TYR27       0.2264
     21  O          6.8260   77.5380   17.2550 O.2    27  TYR27      -0.2867
     22  CB         5.1800   76.1340   14.8530 C.3    27  TYR27       0.0534
     23  CG         5.0980   75.4500   13.5170 C.ar   27  TYR27      -0.0201
     24  CD1        4.7530   76.1690   12.3800 C.ar   27  TYR27      -0.0009
     25  CD2        5.3480   74.0880   13.3860 C.ar   27  TYR27      -0.0009
     26  CE1        4.6670   75.5570   11.1500 C.ar   27  TYR27       0.0417
     27  CE2        5.2640   73.4650   12.1560 C.ar   27  TYR27       0.0417
     28  CZ         4.9240   74.2130   11.0380 C.ar   27  TYR27       0.1957
     29  OH         4.8360   73.6330    9.7910 O.3    27  TYR27      -0.2866
     30  N         -4.2120   65.7760    8.3140 N.3    78  HIS78      -0.1226
     31  CA        -2.8850   66.1830    7.8950 C.3    78  HIS78       0.1752
     32  C         -2.0010   66.1760    9.1240 C.2    78  HIS78       0.2596
     33  O         -2.3080   66.8560   10.0980 O.2    78  HIS78      -0.2718
     34  CB        -2.9710   67.5760    7.2530 C.3    78  HIS78       0.0759
     35  CG        -1.6860   68.0840    6.6690 C.ar   78  HIS78       0.0818
     36  ND1       -1.6030   69.3000    6.0330 N.ar   78  HIS78      -0.2268
     37  CD2       -0.4460   67.5370    6.6100 C.ar   78  HIS78       0.1154
     38  CE1       -0.3630   69.4880    5.6040 C.ar   78  HIS78       0.1986
     39  NE2        0.3580   68.4390    5.9490 N.ar   78  HIS78      -0.2212
     40  N         -0.9180   65.4080    9.1080 N.am   79  VAL79      -0.1966
     41  CA         0.0180   65.4540   10.2280 C.3    79  VAL79       0.1727
     42  C          0.9260   66.6380   10.0480 C.2    79  VAL79       0.2616
     43  O          1.7230   66.6570    9.1180 O.2    79  VAL79      -0.2715
     44  CB         0.9020   64.1770   10.3280 C.3    79  VAL79       0.0290
     45  CG1        1.8280   64.2620   11.5500 C.3    79  VAL79       0.0023
     46  CG2        0.0390   62.9220   10.3760 C.3    79  VAL79       0.0023
     47  N          0.8210   67.6180   10.9340 N.am   80  VAL80      -0.1963
     48  CA         1.5910   68.8500   10.7700 C.3    80  VAL80       0.1727
     49  C          2.9920   68.6280   11.3150 C.2    80  VAL80       0.2616
     50  O          3.9990   69.0320   10.7160 O.2    80  VAL80      -0.2715
     51  CB         0.9180   70.0280   11.4830 C.3    80  VAL80       0.0290
     52  CG1        1.7750   71.2950   11.3610 C.3    80  VAL80       0.0023
     53  CG2       -0.4730   70.2480   10.9220 C.3    80  VAL80       0.0023
     54  N          3.0590   67.9150   12.4310 N.am   81  SER81      -0.1950
     55  CA         4.3190   67.7440   13.1170 C.3    81  SER81       0.1924
     56  C          4.2490   66.5070   14.0050 C.2    81  SER81       0.2314
     57  O          3.2500   66.2820   14.6820 O.2    81  SER81      -0.2863
     58  CB         4.6340   69.0130   13.9350 C.3    81  SER81       0.2116
     59  OG         5.9270   68.9730   14.5010 O.3    81  SER81      -0.2180
     60  N          4.0200   65.5450    5.0340 N.3   117  GLU117     -0.1231
     61  CA         5.2120   65.8070    4.2400 C.3   117  GLU117      0.1699
     62  C          6.4470   65.3320    5.0090 C.2   117  GLU117      0.2592
     63  O          6.5060   65.4760    6.2280 O.2   117  GLU117     -0.2718
     64  CB         5.3190   67.2980    3.9150 C.3   117  GLU117      0.0402
     65  CG         4.3430   67.8000    2.8550 C.3   117  GLU117      0.1161
     66  CD         2.9690   68.1310    3.3980 C.2   117  GLU117      0.3649
     67  OE1        2.8490   68.4410    4.6020 O.co2 117  GLU117     -0.2457
     68  OE2        1.9990   68.0960    2.6070 O.co2 117  GLU117     -0.2457
     69  N          7.4360   64.7530    4.3290 N.am  118  VAL118     -0.1966
     70  CA         8.6640   64.3720    5.0400 C.3   118  VAL118      0.1727
     71  C          9.9070   64.6590    4.1800 C.2   118  VAL118      0.2616
     72  O          9.8770   64.4200    2.9860 O.2   118  VAL118     -0.2715
     73  CB         8.6220   62.8820    5.4560 C.3   118  VAL118      0.0290
     74  CG1        8.4010   61.9790    4.2540 C.3   118  VAL118      0.0023
     75  CG2        9.8790   62.4850    6.2130 C.3   118  VAL118      0.0023
     76  N         10.9670   65.2060    4.7790 N.am  119  ARG119     -0.1977
     77  CA        12.2180   65.4440    4.0410 C.3   119  ARG119      0.1597
     78  C         12.7040   64.1580    3.3880 C.2   119  ARG119      0.2287
     79  O         12.7040   63.1100    4.0180 O.2   119  ARG119     -0.2864
     80  CB        13.3150   65.9960    4.9630 C.3   119  ARG119      0.0334
     81  CG        13.1250   67.4310    5.3810 C.3   119  ARG119      0.0492
     82  CD        14.3190   67.9490    6.1900 C.3   119  ARG119      0.2205
     83  NE        14.1060   69.3140    6.6690 N.pl3 119  ARG119     -0.0865
     84  CZ        14.5730   70.4040    6.0630 C.cat 119  ARG119      0.5346
     85  NH1       15.2890   70.2890    4.9490 N.pl3 119  ARG119      0.1354
     86  NH2       14.3290   71.6120    6.5680 N.pl3 119  ARG119      0.1354
     87  N         15.0370   62.1630    5.4440 N.3   122  ASN122     -0.1240
     88  CA        14.6140   61.7090    6.7650 C.3   122  ASN122      0.1653
     89  C         14.3440   60.2110    6.7680 C.2   122  ASN122      0.2266
     90  O         13.1880   59.7790    6.8120 O.2   122  ASN122     -0.2867
     91  CB        13.3670   62.4730    7.2190 C.3   122  ASN122      0.1155
     92  CG        13.1510   62.3980    8.7210 C.2   122  ASN122      0.2627
     93  OD1       13.6850   61.5180    9.3990 O.2   122  ASN122     -0.2716
     94  ND2       12.3660   63.3250    9.2470 N.am  122  ASN122     -0.0877
     95  N         10.0960   71.9690   -1.1200 N.3   143  TYR143     -0.1227
     96  CA         9.1250   72.1900   -0.0590 C.3   143  TYR143      0.1736
     97  C          9.7310   72.8740    1.1720 C.2   143  TYR143      0.2595
     98  O          9.0720   73.6860    1.8100 O.2   143  TYR143     -0.2718
     99  CB         8.4710   70.8580    0.3540 C.3   143  TYR143      0.0548
    100  CG         7.3290   71.0330    1.3310 C.ar  143  TYR143     -0.0200
    101  CD1        6.1100   71.5450    0.9120 C.ar  143  TYR143     -0.0009
    102  CD2        7.4720   70.6940    2.6690 C.ar  143  TYR143     -0.0009
    103  CE1        5.0620   71.7210    1.8010 C.ar  143  TYR143      0.0417
    104  CE2        6.4310   70.8650    3.5660 C.ar  143  TYR143      0.0417
    105  CZ         5.2300   71.3770    3.1250 C.ar  143  TYR143      0.1957
    106  OH         4.1870   71.5450    4.0030 O.3   143  TYR143     -0.2866
    107  N         10.9740   72.5480    1.5170 N.am  144  TYR144     -0.1976
    108  CA        11.5490   73.1040    2.7520 C.3   144  TYR144      0.1639
    109  C         12.3270   74.3800    2.4760 C.2   144  TYR144      0.2290
    110  O         12.7280   74.6300    1.3360 O.2   144  TYR144     -0.2864
    111  CB        12.4050   72.0500    3.4490 C.3   144  TYR144      0.0560
    112  CG        11.5290   70.9010    3.9000 C.ar  144  TYR144     -0.0198
    113  CD1       10.8250   70.9600    5.1010 C.ar  144  TYR144     -0.0009
    114  CD2       11.3400   69.7960    3.0850 C.ar  144  TYR144     -0.0009
    115  CE1        9.9840   69.9200    5.4930 C.ar  144  TYR144      0.0417
    116  CE2       10.5160   68.7680    3.4630 C.ar  144  TYR144      0.0417
    117  CZ         9.8360   68.8290    4.6610 C.ar  144  TYR144      0.1957
    118  OH         9.0180   67.7750    5.0010 O.3   144  TYR144     -0.2866
@<TRIPOS>BOND
     1    95    96    1
     2    96    99    1
     3    96    97    1
     4    99   100    1
     5   101   100   ar
     6   101   103   ar
     7    97   107   am
     8    97    98    2
     9   100   102   ar
    10   110   109    2
    11   107   108    1
    12   103   105   ar
    13   109   108    1
    14    68    66   ar
    15   102   104   ar
    16   108   111    1
    17    65    66    1
    18    65    64    1
    19    72    71    2
    20   114   116   ar
    21   114   112   ar
    22   105   104   ar
    23   105   106    1
    24    78    79    2
    25    78    77    1
    26    66    67   ar
    27   111   112    1
    28   116   117   ar
    29   112   113   ar
    30    64    61    1
    31    77    76    1
    32    77    80    1
    33    71    76   am
    34    71    70    1
    35    61    62    1
    36    61    60    1
    37    74    73    1
    38    69    62   am
    39    69    70    1
    40   117   118    1
    41   117   115   ar
    42    85    84    1
    43    80    81    1
    44    62    63    2
    45    70    73    1
    46   113   115   ar
    47    81    82    1
    48    87    88    1
    49    73    75    1
    50    38    39   ar
    51    38    36   ar
    52    39    37   ar
    53    36    35   ar
    54    84    86    1
    55    84    83    2
    56    82    83    1
    57    37    35   ar
    58    35    34    1
    59    88    89    1
    60    88    91    1
    61    89    90    2
    62    91    92    1
    63    34    31    1
    64    31    30    1
    65    31    32    1
    66    92    94   am
    67    92    93    2
    68    40    32   am
    69    40    41    1
    70    43    42    2
    71    17    15   ar
    72    32    33    2
    73    14    15    1
    74    14    13    1
    75    29    28    1
    76    15    16   ar
    77    42    41    1
    78    42    47   am
    79    41    44    1
    80    44    46    1
    81    44    45    1
    82    50    49    2
    83    48    47    1
    84    48    49    1
    85    48    51    1
    86    13    10    1
    87    53    51    1
    88    28    26   ar
    89    28    27   ar
    90    26    24   ar
    91    49    54   am
    92    52    51    1
    93    10     9    1
    94    10    11    1
    95    27    25   ar
    96    24    23   ar
    97    54    55    1
    98     8     6    1
    99    11    12    2
   100    55    58    1
   101    55    56    1
   102    25    23   ar
   103    23    22    1
   104     3     2    1
   105     3     4    2
   106    58    59    1
   107    56    57    2
   108     5     2    1
   109     5     6    1
   110     2     1    1
   111     6     7    1
   112    22    19    1
   113    18    19    1
   114    19    20    1
   115    20    21    2
