@<TRIPOS>MOLECULE
tmp/4r3mA00.pdb
 162 152 0 0 0
SMALL
GASTEIGER

@<TRIPOS>ATOM
      1  N        -34.1600  -11.5530  -16.2850 N.3    33  LEU33      -0.1245
      2  CA       -34.6940  -12.0710  -17.5490 C.3    33  LEU33       0.1561
      3  C        -35.9720  -11.3370  -17.9500 C.2    33  LEU33       0.2260
      4  O        -36.1740  -11.0340  -19.1280 O.2    33  LEU33      -0.2867
      5  CB       -34.9350  -13.5830  -17.4780 C.3    33  LEU33       0.0270
      6  CG       -33.6700  -14.4030  -17.2370 C.3    33  LEU33       0.0019
      7  CD1      -34.0590  -15.8690  -17.1540 C.3    33  LEU33       0.0001
      8  CD2      -32.6700  -14.2020  -18.3490 C.3    33  LEU33       0.0001
      9  N        -34.9940   -8.0450  -19.3120 N.3    36  ASN36      -0.1225
     10  CA       -34.5610   -8.2210  -20.7010 C.3    36  ASN36       0.1785
     11  C        -35.7450   -8.3280  -21.6750 C.2    36  ASN36       0.2597
     12  O        -35.7360   -7.7440  -22.7720 O.2    36  ASN36      -0.2718
     13  CB       -33.6740   -9.4720  -20.8240 C.3    36  ASN36       0.1169
     14  CG       -32.3060   -9.2730  -20.2010 C.2    36  ASN36       0.2627
     15  OD1      -31.9040   -8.1400  -19.9240 O.2    36  ASN36      -0.2716
     16  ND2      -31.5640  -10.3700  -20.0100 N.am   36  ASN36      -0.0877
     17  N        -36.7440   -9.1030  -21.2790 N.am   37  SER37      -0.1952
     18  CA       -37.9370   -9.2710  -22.0990 C.3    37  SER37       0.1924
     19  C        -38.6620   -7.9500  -22.2980 C.2    37  SER37       0.2314
     20  O        -39.0900   -7.6220  -23.4130 O.2    37  SER37      -0.2863
     21  CB       -38.8770  -10.3010  -21.4810 C.3    37  SER37       0.2116
     22  OG       -38.3140  -11.5970  -21.6230 O.3    37  SER37      -0.2180
     23  N        -36.9310   -5.8750  -24.8060 N.3    40  ALA40      -0.1245
     24  CA       -37.1350   -6.4000  -26.1580 C.3    40  ALA40       0.1562
     25  C        -38.5160   -6.0460  -26.6690 C.2    40  ALA40       0.2260
     26  O        -38.7120   -5.8000  -27.8640 O.2    40  ALA40      -0.2867
     27  CB       -36.9650   -7.9050  -26.1680 C.3    40  ALA40       0.0290
     28  N        -41.0930  -14.2990  -24.3000 N.3    78  ASP78      -0.1239
     29  CA       -41.5940  -12.9710  -24.6400 C.3    78  ASP78       0.1674
     30  C        -41.8730  -12.8890  -26.1300 C.2    78  ASP78       0.2266
     31  O        -41.3650  -13.7010  -26.9130 O.2    78  ASP78      -0.2867
     32  CB       -40.6190  -11.8510  -24.2000 C.3    78  ASP78       0.1410
     33  CG       -39.3080  -11.8740  -24.9550 C.2    78  ASP78       0.3668
     34  OD1      -39.3280  -11.6360  -26.1770 O.co2  78  ASP78      -0.2456
     35  OD2      -38.2410  -12.0850  -24.3220 O.co2  78  ASP78      -0.2456
     36  N        -38.5880   -8.1820  -29.6820 N.3    81  ILE81      -0.1231
     37  CA       -37.9280   -8.0540  -30.9780 C.3    81  ILE81       0.1692
     38  C        -37.1820   -9.3230  -31.4410 C.2    81  ILE81       0.2593
     39  O        -36.9870   -9.5440  -32.6500 O.2    81  ILE81      -0.2718
     40  CB       -36.9650   -6.8520  -30.9880 C.3    81  ILE81       0.0266
     41  CG1      -36.4880   -6.5760  -32.4160 C.3    81  ILE81       0.0019
     42  CG2      -35.7920   -7.1040  -30.0500 C.3    81  ILE81       0.0020
     43  CD1      -36.5660   -5.1180  -32.8230 C.3    81  ILE81       0.0001
     44  N        -36.7750  -10.1650  -30.4940 N.am   82  GLY82      -0.1942
     45  CA       -36.0540  -11.3710  -30.8520 C.3    82  GLY82       0.2014
     46  C        -34.6120  -11.0720  -31.2290 C.2    82  GLY82       0.2638
     47  O        -34.2000   -9.9110  -31.2240 O.2    82  GLY82      -0.2714
     48  N        -33.8440  -12.1140  -31.5410 N.am   83  MET83      -0.1976
     49  CA       -32.4230  -11.9570  -31.8560 C.3    83  MET83       0.1605
     50  C        -32.0630  -12.6280  -33.1770 C.2    83  MET83       0.2287
     51  O        -32.5350  -13.7270  -33.4760 O.2    83  MET83      -0.2864
     52  CB       -31.5590  -12.5310  -30.7300 C.3    83  MET83       0.0413
     53  CG       -31.5580  -11.6840  -29.4620 C.3    83  MET83       0.0598
     54  SD       -30.6010  -12.3970  -28.1100 S.3    83  MET83      -0.1393
     55  CE       -31.6560  -13.7610  -27.6620 C.3    83  MET83       0.0692
     56  N        -26.6770  -11.3700  -33.8790 N.3    87  ASP87      -0.1225
     57  CA       -26.8000  -11.0400  -32.4640 C.3    87  ASP87       0.1805
     58  C        -26.1980  -12.1450  -31.5940 C.2    87  ASP87       0.2597
     59  O        -25.3620  -11.8840  -30.7280 O.2    87  ASP87      -0.2718
     60  CB       -28.2710  -10.8520  -32.0760 C.3    87  ASP87       0.1424
     61  CG       -28.8460   -9.5080  -32.5050 C.2    87  ASP87       0.3668
     62  OD1      -28.0760   -8.5460  -32.7020 O.co2  87  ASP87      -0.2456
     63  OD2      -30.0930   -9.4280  -32.6360 O.co2  87  ASP87      -0.2456
     64  N        -26.6320  -13.3820  -31.8240 N.am   88  LEU88      -0.1979
     65  CA       -26.2240  -14.5160  -30.9940 C.3    88  LEU88       0.1596
     66  C        -24.7230  -14.7910  -31.0420 C.2    88  LEU88       0.2287
     67  O        -24.1050  -15.1240  -30.0320 O.2    88  LEU88      -0.2864
     68  CB       -26.9700  -15.7820  -31.4380 C.3    88  LEU88       0.0297
     69  CG       -28.4820  -15.8010  -31.2350 C.3    88  LEU88       0.0022
     70  CD1      -29.0320  -17.0860  -31.8110 C.3    88  LEU88       0.0001
     71  CD2      -28.8000  -15.7470  -29.7510 C.3    88  LEU88       0.0001
     72  N        -22.7450   -9.9130  -32.0000 N.3    91  ASN91      -0.1225
     73  CA       -23.1140   -8.6770  -31.3300 C.3    91  ASN91       0.1785
     74  C        -23.1980   -8.8060  -29.8170 C.2    91  ASN91       0.2597
     75  O        -22.7050   -7.9400  -29.1080 O.2    91  ASN91      -0.2718
     76  CB       -24.4170   -8.1150  -31.9070 C.3    91  ASN91       0.1169
     77  CG       -24.3280   -7.8560  -33.3940 C.2    91  ASN91       0.2627
     78  OD1      -23.2390   -7.6630  -33.9310 O.2    91  ASN91      -0.2716
     79  ND2      -25.4710   -7.8680  -34.0740 N.am   91  ASN91      -0.0877
     80  N        -23.8320   -9.8780  -29.3350 N.am   92  LEU92      -0.1980
     81  CA       -23.9440  -10.1310  -27.8990 C.3    92  LEU92       0.1596
     82  C        -22.5640  -10.1330  -27.2740 C.2    92  LEU92       0.2287
     83  O        -22.3320   -9.4590  -26.2730 O.2    92  LEU92      -0.2864
     84  CB       -24.5960  -11.4860  -27.6200 C.3    92  LEU92       0.0297
     85  CG       -26.1100  -11.6320  -27.7210 C.3    92  LEU92       0.0022
     86  CD1      -26.5250  -13.0650  -27.4010 C.3    92  LEU92       0.0001
     87  CD2      -26.8060  -10.6670  -26.7960 C.3    92  LEU92       0.0001
     88  N        -20.9580   -6.5700  -26.9480 N.3    95  ILE95      -0.1231
     89  CA       -21.5640   -5.8230  -25.8480 C.3    95  ILE95       0.1692
     90  C        -21.2170   -6.4260  -24.4920 C.2    95  ILE95       0.2591
     91  O        -20.8550   -5.7060  -23.5510 O.2    95  ILE95      -0.2718
     92  CB       -23.1110   -5.7420  -26.0050 C.3    95  ILE95       0.0266
     93  CG1      -23.5300   -4.4090  -26.6120 C.3    95  ILE95       0.0019
     94  CG2      -23.8130   -5.8640  -24.6660 C.3    95  ILE95       0.0020
     95  CD1      -22.9360   -4.1310  -27.9560 C.3    95  ILE95       0.0001
     96  N        -21.3140   -7.7490  -24.3970 N.am   96  ALA96      -0.1980
     97  CA       -21.1170   -8.4450  -23.1330 C.3    96  ALA96       0.1597
     98  C        -19.6810   -8.3400  -22.6110 C.2    96  ALA96       0.2287
     99  O        -19.4550   -8.3590  -21.4010 O.2    96  ALA96      -0.2864
    100  CB       -21.5190   -9.8990  -23.2700 C.3    96  ALA96       0.0319
    101  N        -25.5740   -4.6820  -18.2420 N.3   120  GLY120     -0.1225
    102  CA       -26.1010   -5.2750  -19.4540 C.3   120  GLY120      0.1811
    103  C        -25.8440   -6.7600  -19.5980 C.2   120  GLY120      0.2280
    104  O        -26.0630   -7.3220  -20.6670 O.2   120  GLY120     -0.2866
    105  N        -28.4910  -11.3410  -18.1030 N.3   123  PHE123     -0.1227
    106  CA       -28.8170  -12.6750  -18.6260 C.3   123  PHE123      0.1736
    107  C        -28.0170  -13.7810  -17.9510 C.2   123  PHE123      0.2595
    108  O        -28.5580  -14.8470  -17.6570 O.2   123  PHE123     -0.2718
    109  CB       -28.5550  -12.7320  -20.1330 C.3   123  PHE123      0.0547
    110  CG       -28.6090  -14.1300  -20.7140 C.ar  123  PHE123     -0.0202
    111  CD1      -29.8260  -14.7130  -21.0490 C.ar  123  PHE123     -0.0042
    112  CD2      -27.4330  -14.8450  -20.9580 C.ar  123  PHE123     -0.0042
    113  CE1      -29.8720  -16.0090  -21.5960 C.ar  123  PHE123     -0.0003
    114  CE2      -27.4730  -16.1260  -21.4970 C.ar  123  PHE123     -0.0003
    115  CZ       -28.6870  -16.7080  -21.8120 C.ar  123  PHE123     -0.0000
    116  N        -26.7260  -13.5470  -17.7220 N.am  124  TYR124     -0.1976
    117  CA       -25.8620  -14.6230  -17.2380 C.3   124  TYR124      0.1639
    118  C        -26.1540  -15.0270  -15.7970 C.2   124  TYR124      0.2290
    119  O        -25.6970  -16.0690  -15.3340 O.2   124  TYR124     -0.2864
    120  CB       -24.3740  -14.2940  -17.4660 C.3   124  TYR124      0.0560
    121  CG       -24.0690  -14.0830  -18.9330 C.ar  124  TYR124     -0.0198
    122  CD1      -23.8140  -15.1590  -19.7810 C.ar  124  TYR124     -0.0009
    123  CD2      -24.0800  -12.8020  -19.4840 C.ar  124  TYR124     -0.0009
    124  CE1      -23.5560  -14.9530  -21.1450 C.ar  124  TYR124      0.0417
    125  CE2      -23.8360  -12.5860  -20.8360 C.ar  124  TYR124      0.0417
    126  CZ       -23.5750  -13.6600  -21.6610 C.ar  124  TYR124      0.1957
    127  OH       -23.3260  -13.4240  -23.0020 O.3   124  TYR124     -0.2866
    128  N        -31.7740  -20.9570  -25.4300 N.3   135  VAL135     -0.1245
    129  CA       -32.5080  -19.7650  -25.8510 C.3   135  VAL135      0.1561
    130  C        -33.0500  -19.9570  -27.2470 C.2   135  VAL135      0.2260
    131  O        -32.2860  -20.1340  -28.1910 O.2   135  VAL135     -0.2867
    132  CB       -31.6100  -18.5070  -25.8070 C.3   135  VAL135      0.0252
    133  CG1      -32.3930  -17.2960  -26.2800 C.3   135  VAL135      0.0019
    134  CG2      -31.1290  -18.2700  -24.3930 C.3   135  VAL135      0.0019
    135  N        -29.9700  -21.2590  -29.3190 N.3   147  TRP147     -0.1241
    136  CA       -28.6550  -21.0520  -28.7040 C.3   147  TRP147      0.1605
    137  C        -28.6410  -21.8950  -27.4400 C.2   147  TRP147      0.2264
    138  O        -29.6660  -22.0350  -26.7760 O.2   147  TRP147     -0.2867
    139  CB       -28.5390  -19.5640  -28.3390 C.3   147  TRP147      0.0550
    140  CG       -27.3090  -19.1140  -27.5770 C.ar  147  TRP147      0.0003
    141  CD1      -26.2320  -18.4470  -28.0890 C.ar  147  TRP147      0.0946
    142  CD2      -27.0770  -19.2250  -26.1600 C.ar  147  TRP147      0.0152
    143  NE1      -25.3310  -18.1620  -27.0810 N.ar  147  TRP147     -0.2442
    144  CE2      -25.8290  -18.6290  -25.8940 C.ar  147  TRP147      0.0810
    145  CE3      -27.8070  -19.7890  -25.0980 C.ar  147  TRP147      0.0012
    146  CZ2      -25.2820  -18.5810  -24.6010 C.ar  147  TRP147      0.0191
    147  CZ3      -27.2680  -19.7350  -23.8160 C.ar  147  TRP147      0.0001
    148  CH2      -26.0200  -19.1300  -23.5770 C.ar  147  TRP147      0.0015
    149  N        -38.5080  -14.3660  -27.9670 N.3   169  THR169     -0.1218
    150  CA       -37.4280  -15.1200  -27.3470 C.3   169  THR169      0.1862
    151  C        -37.9770  -15.9880  -26.2230 C.2   169  THR169      0.2287
    152  O        -38.8170  -15.5420  -25.4310 O.2   169  THR169     -0.2866
    153  CB       -36.3590  -14.1490  -26.8020 C.3   169  THR169      0.1770
    154  OG1      -35.8360  -13.3780  -27.8900 O.3   169  THR169     -0.2211
    155  CG2      -35.2040  -14.8930  -26.1250 C.3   169  THR169      0.0375
    156  N        -36.3800  -18.1390  -23.0630 N.3   171  VAL171     -0.1245
    157  CA       -35.2130  -18.5500  -22.2880 C.3   171  VAL171      0.1561
    158  C        -35.5850  -19.7510  -21.4350 C.2   171  VAL171      0.2260
    159  O        -36.4070  -19.6520  -20.5230 O.2   171  VAL171     -0.2867
    160  CB       -34.6930  -17.4010  -21.4280 C.3   171  VAL171      0.0252
    161  CG1      -33.4260  -17.8280  -20.6810 C.3   171  VAL171      0.0019
    162  CG2      -34.3980  -16.2010  -22.3200 C.3   171  VAL171      0.0019
@<TRIPOS>BOND
     1    79    77   am
     2    78    77    2
     3    56    57    1
     4    51    50    2
     5    77    76    1
     6    50    49    1
     7    43    41    1
     8    62    61   ar
     9    39    38    2
    10    63    61   ar
    11    61    60    1
    12    57    60    1
    13    57    58    1
    14    41    40    1
    15    72    73    1
    16    76    73    1
    17    49    48    1
    18    49    52    1
    19    64    58   am
    20    64    65    1
    21    70    69    1
    22    58    59    2
    23    48    46   am
    24    38    37    1
    25    38    44   am
    26    68    69    1
    27    68    65    1
    28    73    74    1
    29    69    71    1
    30    46    47    2
    31    46    45    1
    32    66    65    1
    33    66    67    2
    34    40    37    1
    35    40    42    1
    36    37    36    1
    37    45    44    1
    38    52    53    1
    39    74    80   am
    40    74    75    2
    41    53    54    1
    42    80    81    1
    43   135   136    1
    44   136   139    1
    45   136   137    1
    46   139   140    1
    47   131   130    2
    48    54    55    1
    49   141   140   ar
    50   141   143   ar
    51   149   150    1
    52    95    93    1
    53    81    84    1
    54    81    82    1
    55   154   153    1
    56    26    25    2
    57    85    84    1
    58    85    86    1
    59    85    87    1
    60   140   142   ar
    61   137   138    2
    62   150   153    1
    63   150   151    1
    64    82    83    2
    65   130   129    1
    66   143   144   ar
    67    88    89    1
    68    31    30    2
    69   153   155    1
    70    25    24    1
    71    93    92    1
    72   133   132    1
    73   151   152    2
    74    34    33   ar
    75    27    24    1
    76   142   144   ar
    77   142   145   ar
    78    24    23    1
    79    30    29    1
    80    92    89    1
    81    92    94    1
    82   144   146   ar
    83   129   132    1
    84   129   128    1
    85    89    90    1
    86   132   134    1
    87   145   147   ar
    88    33    35   ar
    89    33    32    1
    90    29    28    1
    91    29    32    1
    92   146   148   ar
    93    90    96   am
    94    90    91    2
    95    96    97    1
    96   147   148   ar
    97    20    19    2
    98   100    97    1
    99    97    98    1
   100   156   157    1
   101   127   126    1
   102    12    11    2
   103    98    99    2
   104   162   160    1
   105    19    18    1
   106   157   158    1
   107   157   160    1
   108    18    21    1
   109    18    17    1
   110   115   113   ar
   111   115   114   ar
   112    11    17   am
   113    11    10    1
   114   126   124   ar
   115   126   125   ar
   116    22    21    1
   117   113   111   ar
   118   114   112   ar
   119   158   159    2
   120   160   161    1
   121   124   122   ar
   122   111   110   ar
   123   112   110   ar
   124   125   123   ar
   125    13    10    1
   126    13    14    1
   127   110   109    1
   128    10     9    1
   129   104   103    2
   130    14    16   am
   131    14    15    2
   132   109   106    1
   133   122   121   ar
   134   103   102    1
   135   123   121   ar
   136   102   101    1
   137     4     3    2
   138   121   120    1
   139   106   105    1
   140   106   107    1
   141     8     6    1
   142   107   116   am
   143   107   108    2
   144     3     2    1
   145   116   117    1
   146     2     5    1
   147     2     1    1
   148     5     6    1
   149   120   117    1
   150   117   118    1
   151     6     7    1
   152   118   119    2
