@<TRIPOS>MOLECULE
tmp/4r3nA01.pdb
 91 83 0 0 0
SMALL
GASTEIGER

@<TRIPOS>ATOM
      1  N         -9.4150    1.9110    6.1070 N.3    72  GLY72      -0.1210
      2  CA        -9.2230    2.8280    4.9880 C.3    72  GLY72       0.1956
      3  C         -9.2160    4.2690    5.4400 C.2    72  GLY72       0.2612
      4  O         -9.8950    4.6280    6.4010 O.2    72  GLY72      -0.2717
      5  N         -8.4510    5.1000    4.7470 N.am   73  SER73      -0.1952
      6  CA        -8.3160    6.5020    5.1150 C.3    73  SER73       0.1924
      7  C         -9.6420    7.2340    5.1460 C.2    73  SER73       0.2314
      8  O         -9.8590    8.0940    6.0100 O.2    73  SER73      -0.2863
      9  CB        -7.3720    7.2260    4.1590 C.3    73  SER73       0.2116
     10  OG        -6.0320    6.9830    4.5200 O.3    73  SER73      -0.2180
     11  N         -4.5590    3.4130   12.0140 N.3    93  ASN93      -0.1225
     12  CA        -3.6700    2.7580   11.0740 C.3    93  ASN93       0.1785
     13  C         -3.9630    3.1060    9.6090 C.2    93  ASN93       0.2598
     14  O         -3.9820    2.2590    8.7870 O.2    93  ASN93      -0.2718
     15  CB        -3.7630    1.2660   11.2660 C.3    93  ASN93       0.1169
     16  CG        -2.7320    0.5350   10.4950 C.2    93  ASN93       0.2627
     17  OD1       -1.5980    0.9690   10.4260 O.2    93  ASN93      -0.2716
     18  ND2       -3.1060   -0.5830    9.9130 N.am   93  ASN93      -0.0877
     19  N         -4.1820    4.3610    9.3160 N.am   94  THR94      -0.1939
     20  CA        -4.3420    4.8290    7.9560 C.3    94  THR94       0.2028
     21  C         -3.4610    6.0610    7.7860 C.2    94  THR94       0.2642
     22  O         -2.8710    6.5810    8.7330 O.2    94  THR94      -0.2714
     23  CB        -5.7960    5.1820    7.5800 C.3    94  THR94       0.1808
     24  OG1       -6.1010    6.4950    8.0450 O.3    94  THR94      -0.2208
     25  CG2       -6.7990    4.1660    8.1230 C.3    94  THR94       0.0379
     26  N         -3.3450    6.5000    6.5360 N.am   95  SER95      -0.1949
     27  CA        -2.5550    7.6850    6.2410 C.3    95  SER95       0.1924
     28  C         -3.2400    9.0000    6.6030 C.2    95  SER95       0.2314
     29  O         -2.5880   10.0440    6.5760 O.2    95  SER95      -0.2863
     30  CB        -2.1530    7.7150    4.7610 C.3    95  SER95       0.2116
     31  OG        -3.3050    7.8170    3.9660 O.3    95  SER95      -0.2180
     32  N         -1.7930   11.3320    9.4110 N.3    98  ARG98      -0.1245
     33  CA        -0.3850   11.1920    9.7510 C.3    98  ARG98       0.1563
     34  C          0.3950   12.4840    9.7540 C.2    98  ARG98       0.2260
     35  O          1.3620   12.6150   10.5300 O.2    98  ARG98      -0.2867
     36  CB         0.3030   10.2080    8.8160 C.3    98  ARG98       0.0307
     37  CG        -0.0960    8.7710    9.0230 C.3    98  ARG98       0.0489
     38  CD         0.7130    7.8490    8.1290 C.3    98  ARG98       0.2205
     39  NE         0.2630    6.4870    8.3100 N.pl3  98  ARG98      -0.0865
     40  CZ         0.0640    5.6040    7.3470 C.cat  98  ARG98       0.5346
     41  NH1        0.4530    5.8650    6.0970 N.pl3  98  ARG98       0.1354
     42  NH2       -0.4890    4.4350    7.6450 N.pl3  98  ARG98       0.1354
     43  N          2.9820    4.1800    7.8390 N.3   126  ASN126     -0.1225
     44  CA         2.9340    3.1320    6.8400 C.3   126  ASN126      0.1785
     45  C          3.9510    2.0270    7.1790 C.2   126  ASN126      0.2597
     46  O          5.0530    2.2860    7.6840 O.2   126  ASN126     -0.2718
     47  CB         3.3060    3.7170    5.4720 C.3   126  ASN126      0.1169
     48  CG         3.3090    2.6720    4.3780 C.2   126  ASN126      0.2627
     49  OD1        4.3630    2.1980    3.9770 O.2   126  ASN126     -0.2716
     50  ND2        2.1470    2.3150    3.9110 N.am  126  ASN126     -0.0877
     51  N          3.5910    0.8000    6.8100 N.am  127  CYS127     -0.1970
     52  CA         4.4060   -0.3750    7.0920 C.3   127  CYS127      0.1712
     53  C          5.8490   -0.2640    6.6070 C.2   127  CYS127      0.2296
     54  O          6.7910   -0.6270    7.3290 O.2   127  CYS127     -0.2864
     55  CB         3.7340   -1.6300    6.5170 C.3   127  CYS127      0.0983
     56  SG         3.2720   -1.4460    4.7780 S.3   127  CYS127     -0.0798
     57  N         -0.0600   -6.3570    1.9430 N.3   158  GLY158     -0.1210
     58  CA        -0.1710   -4.9410    2.2000 C.3   158  GLY158      0.1956
     59  C         -1.3340   -4.2630    1.5160 C.2   158  GLY158      0.2611
     60  O         -1.7310   -3.1620    1.9040 O.2   158  GLY158     -0.2717
     61  N         -1.8450   -4.8890    0.4580 N.am  159  ALA159     -0.1979
     62  CA        -2.9190   -4.3300   -0.3290 C.3   159  ALA159      0.1597
     63  C         -4.2760   -4.9510   -0.0220 C.2   159  ALA159      0.2287
     64  O         -5.2590   -4.6600   -0.7230 O.2   159  ALA159     -0.2864
     65  CB        -2.6040   -4.4860   -1.8120 C.3   159  ALA159      0.0319
     66  N          0.1590    2.4450   -4.4210 N.3   209  ASP209     -0.1239
     67  CA        -0.7520    3.5790   -4.3340 C.3   209  ASP209      0.1674
     68  C         -0.7980    4.3120   -5.6900 C.2   209  ASP209      0.2266
     69  O         -0.1870    3.8760   -6.6760 O.2   209  ASP209     -0.2867
     70  CB        -0.4210    4.5480   -3.1740 C.3   209  ASP209      0.1410
     71  CG        -1.6870    5.1760   -2.5340 C.2   209  ASP209      0.3668
     72  OD1       -2.5950    5.7280   -3.2470 O.co2 209  ASP209     -0.2456
     73  OD2       -1.7710    5.1120   -1.2870 O.co2 209  ASP209     -0.2456
     74  N          2.8500    6.1850   -2.0070 N.3   219  GLU219     -0.1245
     75  CA         3.6170    5.3460   -1.0960 C.3   219  GLU219      0.1567
     76  C          5.0270    5.8620   -0.9000 C.2   219  GLU219      0.2260
     77  O          5.5460    5.9360    0.1980 O.2   219  GLU219     -0.2867
     78  CB         3.6000    3.8800   -1.5390 C.3   219  GLU219      0.0388
     79  CG         4.4170    2.9080   -0.7050 C.3   219  GLU219      0.1160
     80  CD         3.8400    2.6060    0.6350 C.2   219  GLU219      0.3649
     81  OE1        2.8040    3.1920    0.9880 O.co2 219  GLU219     -0.2457
     82  OE2        4.4470    1.7240    1.2900 O.co2 219  GLU219     -0.2457
     83  N          4.8180    8.9730    1.1800 N.3   222  LYS222     -0.1245
     84  CA         4.5840    8.6340    2.5870 C.3   222  LYS222      0.1561
     85  C          5.9010    8.2850    3.2530 C.2   222  LYS222      0.2260
     86  O          6.1710    8.7660    4.3520 O.2   222  LYS222     -0.2867
     87  CB         3.6130    7.4520    2.7130 C.3   222  LYS222      0.0271
     88  CG         2.1510    7.7650    2.4560 C.3   222  LYS222      0.0035
     89  CD         1.3360    6.4740    2.4230 C.3   222  LYS222      0.0206
     90  CE        -0.0290    6.6690    1.8370 C.3   222  LYS222      0.1093
     91  NZ        -0.6190    5.3350    1.6230 N.3   222  LYS222     -0.1314
@<TRIPOS>BOND
     1    69    68    2
     2    68    67    1
     3    66    67    1
     4    67    70    1
     5    72    71   ar
     6    70    71    1
     7    71    73   ar
     8    74    75    1
     9    65    62    1
    10    78    75    1
    11    78    79    1
    12    75    76    1
    13    76    77    2
    14    64    63    2
    15    79    80    1
    16    62    63    1
    17    62    61    1
    18    61    59   am
    19    80    81   ar
    20    80    82   ar
    21    83    84    1
    22    59    60    2
    23    59    58    1
    24    91    90    1
    25    90    89    1
    26    57    58    1
    27    89    88    1
    28    88    87    1
    29    84    87    1
    30    84    85    1
    31    85    86    2
    32    50    48   am
    33    31    30    1
    34    49    48    2
    35     9    10    1
    36     9     6    1
    37    48    47    1
    38     5     6    1
    39     5     3   am
    40    30    27    1
    41    56    55    1
    42     2     3    1
    43     2     1    1
    44     6     7    1
    45     7     8    2
    46     3     4    2
    47    47    44    1
    48    41    40    1
    49    27    26    1
    50    27    28    1
    51    55    52    1
    52    26    21   am
    53    29    28    2
    54    53    52    1
    55    53    54    2
    56    51    52    1
    57    51    45   am
    58    44    45    1
    59    44    43    1
    60    45    46    2
    61    40    42    1
    62    40    39    2
    63    23    20    1
    64    23    24    1
    65    23    25    1
    66    21    20    1
    67    21    22    2
    68    20    19    1
    69    38    39    1
    70    38    37    1
    71    14    13    2
    72    36    37    1
    73    36    33    1
    74    19    13   am
    75    32    33    1
    76    13    12    1
    77    33    34    1
    78    34    35    2
    79    18    16   am
    80    17    16    2
    81    16    15    1
    82    12    15    1
    83    12    11    1
