@<TRIPOS>MOLECULE
tmp/4r3pA00.pdb
 176 170 0 0 0
SMALL
GASTEIGER

@<TRIPOS>ATOM
      1  N        -53.7700  -13.0940  -30.6450 N.3   142  ASP142     -0.1239
      2  CA       -52.9480  -12.9570  -29.4470 C.3   142  ASP142      0.1674
      3  C        -53.8170  -12.5730  -28.2560 C.2   142  ASP142      0.2266
      4  O        -53.5360  -11.6020  -27.5550 O.2   142  ASP142     -0.2867
      5  CB       -51.8420  -11.9170  -29.6550 C.3   142  ASP142      0.1410
      6  CG       -50.7470  -12.0010  -28.5990 C.2   142  ASP142      0.3668
      7  OD1      -50.9680  -12.6290  -27.5420 O.co2 142  ASP142     -0.2456
      8  OD2      -49.6600  -11.4310  -28.8270 O.co2 142  ASP142     -0.2456
      9  N        -52.5230  -10.7430  -20.4690 N.3   146  ARG146     -0.1231
     10  CA       -51.5850   -9.6290  -20.5110 C.3   146  ARG146      0.1694
     11  C        -52.0230   -8.5760  -21.5220 C.2   146  ARG146      0.2592
     12  O        -51.5080   -7.4590  -21.5300 O.2   146  ARG146     -0.2718
     13  CB       -50.1780  -10.1220  -20.8500 C.3   146  ARG146      0.0321
     14  CG       -49.9760  -10.4240  -22.3220 C.3   146  ARG146      0.0489
     15  CD       -48.5960  -10.9910  -22.5890 C.3   146  ARG146      0.2205
     16  NE       -48.6140  -11.9270  -23.7080 N.pl3 146  ARG146     -0.0865
     17  CZ       -48.9850  -13.1990  -23.6070 C.cat 146  ARG146      0.5346
     18  NH1      -49.3690  -13.6880  -22.4360 N.pl3 146  ARG146      0.1354
     19  NH2      -48.9730  -13.9820  -24.6760 N.pl3 146  ARG146      0.1354
     20  N        -52.9750   -8.9390  -22.3750 N.am  147  ASN147     -0.1974
     21  CA       -53.4570   -8.0320  -23.4090 C.3   147  ASN147      0.1688
     22  C        -54.8970   -7.5970  -23.1680 C.2   147  ASN147      0.2292
     23  O        -55.6130   -7.2340  -24.1000 O.2   147  ASN147     -0.2864
     24  CB       -53.3240   -8.6800  -24.7860 C.3   147  ASN147      0.1181
     25  CG       -51.8870   -9.0050  -25.1360 C.2   147  ASN147      0.2629
     26  OD1      -51.5740  -10.1190  -25.5550 O.2   147  ASN147     -0.2716
     27  ND2      -51.0000   -8.0340  -24.9530 N.am  147  ASN147     -0.0877
     28  N        -53.7800   -4.7780  -27.9180 N.3   160  ASP160     -0.1239
     29  CA       -52.6410   -5.4160  -28.5810 C.3   160  ASP160      0.1674
     30  C        -52.8350   -6.0760  -29.9420 C.2   160  ASP160      0.2266
     31  O        -52.6600   -7.2840  -30.0890 O.2   160  ASP160     -0.2867
     32  CB       -51.9770   -6.4410  -27.6580 C.3   160  ASP160      0.1410
     33  CG       -50.5580   -6.7730  -28.0800 C.2   160  ASP160      0.3668
     34  OD1      -49.6410   -5.9930  -27.7470 O.co2 160  ASP160     -0.2456
     35  OD2      -50.3600   -7.8100  -28.7470 O.co2 160  ASP160     -0.2456
     36  N        -50.8020   -8.4680  -33.9110 N.3   163  ARG163     -0.1245
     37  CA       -50.9330   -9.7130  -34.6570 C.3   163  ARG163      0.1563
     38  C        -52.3600   -9.9240  -35.1500 C.2   163  ARG163      0.2260
     39  O        -52.6820  -10.9700  -35.7110 O.2   163  ARG163     -0.2867
     40  CB       -50.4980  -10.9010  -33.7960 C.3   163  ARG163      0.0307
     41  CG       -49.1210  -10.7460  -33.1740 C.3   163  ARG163      0.0489
     42  CD       -48.3820  -12.0740  -33.1240 C.3   163  ARG163      0.2205
     43  NE       -49.2230  -13.1630  -32.6350 N.pl3 163  ARG163     -0.0865
     44  CZ       -49.3070  -14.3570  -33.2130 C.cat 163  ARG163      0.5346
     45  NH1      -48.5990  -14.6180  -34.3030 N.pl3 163  ARG163      0.1354
     46  NH2      -50.0970  -15.2900  -32.7020 N.pl3 163  ARG163      0.1354
     47  N        -44.1650  -17.0930  -39.7740 N.3   178  GLY178     -0.1210
     48  CA       -43.3230  -17.2010  -38.6010 C.3   178  GLY178      0.1956
     49  C        -43.2400  -15.9490  -37.7570 C.2   178  GLY178      0.2612
     50  O        -44.1400  -15.1100  -37.7690 O.2   178  GLY178     -0.2717
     51  N        -42.1370  -15.8240  -37.0290 N.am  179  GLY179     -0.1942
     52  CA       -42.0030  -14.7990  -36.0150 C.3   179  GLY179      0.2014
     53  C        -42.2940  -15.4350  -34.6720 C.2   179  GLY179      0.2639
     54  O        -42.8100  -16.5500  -34.6120 O.2   179  GLY179     -0.2714
     55  N        -41.9630  -14.7380  -33.5920 N.am  180  LYS180     -0.1963
     56  CA       -42.1910  -15.2750  -32.2570 C.3   180  LYS180      0.1728
     57  C        -43.6820  -15.2830  -31.9230 C.2   180  LYS180      0.2616
     58  O        -44.3880  -14.3040  -32.1690 O.2   180  LYS180     -0.2715
     59  CB       -41.4030  -14.4730  -31.2220 C.3   180  LYS180      0.0311
     60  CG       -39.9060  -14.4400  -31.4910 C.3   180  LYS180      0.0038
     61  CD       -39.1200  -14.0700  -30.2450 C.3   180  LYS180      0.0206
     62  CE       -37.6230  -14.1930  -30.4830 C.3   180  LYS180      0.1093
     63  NZ       -37.1660  -13.3380  -31.6130 N.3   180  LYS180     -0.1314
     64  N        -44.1570  -16.3990  -31.3740 N.am  181  VAL181     -0.1964
     65  CA       -45.5840  -16.5940  -31.1190 C.3   181  VAL181      0.1712
     66  C        -45.8530  -17.1260  -29.7090 C.2   181  VAL181      0.2458
     67  O        -44.9970  -17.7840  -29.1170 O.2   181  VAL181     -0.2730
     68  CB       -46.2050  -17.5680  -32.1500 C.3   181  VAL181      0.0289
     69  CG1      -46.1100  -16.9960  -33.5560 C.3   181  VAL181      0.0023
     70  CG2      -45.5300  -18.9270  -32.0750 C.3   181  VAL181      0.0023
     71  N        -47.0460  -16.8320  -29.1620 N.am  182  PRO182     -0.2716
     72  CA       -47.4400  -17.3310  -27.8380 C.3   182  PRO182      0.1536
     73  C        -47.9650  -18.7660  -27.8690 C.2   182  PRO182      0.2598
     74  O        -49.1760  -18.9740  -27.9230 O.2   182  PRO182     -0.2715
     75  CB       -48.5430  -16.3590  -27.4180 C.3   182  PRO182      0.0310
     76  CG       -49.1510  -15.9210  -28.7030 C.3   182  PRO182      0.0237
     77  CD       -48.0280  -15.8730  -29.7020 C.3   182  PRO182      0.0939
     78  N        -47.0560  -19.7360  -27.8170 N.am  183  ILE183     -0.1964
     79  CA       -47.4030  -21.1530  -27.9160 C.3   183  ILE183      0.1727
     80  C        -48.4480  -21.5990  -26.8900 C.2   183  ILE183      0.2616
     81  O        -49.3870  -22.3230  -27.2230 O.2   183  ILE183     -0.2715
     82  CB       -46.1470  -22.0360  -27.7520 C.3   183  ILE183      0.0290
     83  CG1      -45.1310  -21.7360  -28.8550 C.3   183  ILE183      0.0022
     84  CG2      -46.5160  -23.5090  -27.7760 C.3   183  ILE183      0.0023
     85  CD1      -45.5870  -22.1580  -30.2340 C.3   183  ILE183      0.0001
     86  N        -48.2870  -21.1500  -25.6500 N.am  184  LYS184     -0.1963
     87  CA       -49.1180  -21.6150  -24.5420 C.3   184  LYS184      0.1728
     88  C        -50.5800  -21.1760  -24.6460 C.2   184  LYS184      0.2616
     89  O        -51.4530  -21.7580  -24.0040 O.2   184  LYS184     -0.2715
     90  CB       -48.5300  -21.1310  -23.2160 C.3   184  LYS184      0.0311
     91  CG       -47.0400  -21.3920  -23.0710 C.3   184  LYS184      0.0038
     92  CD       -46.7660  -22.6100  -22.2070 C.3   184  LYS184      0.0206
     93  CE       -45.2750  -22.8730  -22.0930 C.3   184  LYS184      0.1093
     94  NZ       -44.9160  -23.6020  -20.8450 N.3   184  LYS184     -0.1314
     95  N        -50.8430  -20.1520  -25.4510 N.am  185  TRP185     -0.1974
     96  CA       -52.1990  -19.6340  -25.6120 C.3   185  TRP185      0.1640
     97  C        -52.8440  -20.0990  -26.9120 C.2   185  TRP185      0.2290
     98  O        -54.0400  -19.9060  -27.1250 O.2   185  TRP185     -0.2864
     99  CB       -52.1970  -18.1040  -25.5670 C.3   185  TRP185      0.0576
    100  CG       -52.1220  -17.5320  -24.1880 C.ar  185  TRP185      0.0006
    101  CD1      -53.1490  -16.9970  -23.4670 C.ar  185  TRP185      0.0946
    102  CD2      -50.9580  -17.4330  -23.3600 C.ar  185  TRP185      0.0152
    103  NE1      -52.6970  -16.5720  -22.2420 N.ar  185  TRP185     -0.2442
    104  CE2      -51.3530  -16.8300  -22.1520 C.ar  185  TRP185      0.0810
    105  CE3      -49.6180  -17.7980  -23.5260 C.ar  185  TRP185      0.0012
    106  CZ2      -50.4600  -16.5810  -21.1130 C.ar  185  TRP185      0.0191
    107  CZ3      -48.7320  -17.5520  -22.4930 C.ar  185  TRP185      0.0001
    108  CH2      -49.1570  -16.9490  -21.3020 C.ar  185  TRP185      0.0015
    109  N        -50.5210  -24.0770  -33.9610 N.3   191  ILE191     -0.1231
    110  CA       -49.1460  -24.4900  -33.7090 C.3   191  ILE191      0.1692
    111  C        -48.6320  -25.4080  -34.8160 C.2   191  ILE191      0.2591
    112  O        -47.5100  -25.2470  -35.2980 O.2   191  ILE191     -0.2718
    113  CB       -49.0120  -25.2050  -32.3520 C.3   191  ILE191      0.0266
    114  CG1      -49.5490  -24.3170  -31.2290 C.3   191  ILE191      0.0019
    115  CG2      -47.5630  -25.5800  -32.0860 C.3   191  ILE191      0.0020
    116  CD1      -49.5130  -24.9660  -29.8650 C.3   191  ILE191      0.0001
    117  N        -49.4640  -26.3570  -35.2280 N.am  192  LEU192     -0.1980
    118  CA       -49.0510  -27.3620  -36.2000 C.3   192  LEU192      0.1596
    119  C        -49.1000  -26.8660  -37.6470 C.2   192  LEU192      0.2287
    120  O        -48.2130  -27.1800  -38.4400 O.2   192  LEU192     -0.2864
    121  CB       -49.9160  -28.6170  -36.0600 C.3   192  LEU192      0.0297
    122  CG       -49.7730  -29.4350  -34.7750 C.3   192  LEU192      0.0022
    123  CD1      -50.5680  -30.7280  -34.8750 C.3   192  LEU192      0.0001
    124  CD2      -48.3110  -29.7250  -34.4770 C.3   192  LEU192      0.0001
    125  N        -50.0830  -23.4010  -38.5880 N.3   194  ARG194     -0.1245
    126  CA       -50.1460  -21.9390  -38.6750 C.3   194  ARG194      0.1563
    127  C        -51.5130  -21.4560  -39.1500 C.2   194  ARG194      0.2260
    128  O        -51.6220  -20.4670  -39.8740 O.2   194  ARG194     -0.2867
    129  CB       -49.0420  -21.4130  -39.5910 C.3   194  ARG194      0.0307
    130  CG       -47.6610  -21.5740  -38.9960 C.3   194  ARG194      0.0489
    131  CD       -46.5940  -21.6580  -40.0740 C.3   194  ARG194      0.2205
    132  NE       -45.2380  -21.6530  -39.5280 N.pl3 194  ARG194     -0.0865
    133  CZ       -44.7560  -22.5220  -38.6420 C.cat 194  ARG194      0.5346
    134  NH1      -45.4930  -23.5320  -38.1950 N.pl3 194  ARG194      0.1354
    135  NH2      -43.5060  -22.3940  -38.2220 N.pl3 194  ARG194      0.1354
    136  N        -49.1730  -19.2430  -14.5050 N.3   218  LYS218     -0.1245
    137  CA       -48.6730  -19.4140  -15.8610 C.3   218  LYS218      0.1561
    138  C        -49.0800  -20.7710  -16.4200 C.2   218  LYS218      0.2260
    139  O        -48.8130  -21.8040  -15.8070 O.2   218  LYS218     -0.2867
    140  CB       -47.1530  -19.2580  -15.8900 C.3   218  LYS218      0.0271
    141  CG       -46.6500  -18.1140  -15.0270 C.3   218  LYS218      0.0035
    142  CD       -45.1840  -17.8180  -15.2820 C.3   218  LYS218      0.0206
    143  CE       -44.7260  -16.6140  -14.4750 C.3   218  LYS218      0.1093
    144  NZ       -43.5440  -15.9470  -15.0840 N.3   218  LYS218     -0.1314
    145  N        -42.8500  -26.6200  -18.0200 N.3   223  ILE223     -0.1231
    146  CA       -42.8410  -27.3210  -19.2980 C.3   223  ILE223      0.1678
    147  C        -42.2930  -26.4200  -20.3980 C.2   223  ILE223      0.2434
    148  O        -42.7430  -25.2850  -20.5510 O.2   223  ILE223     -0.2733
    149  CB       -44.2580  -27.8000  -19.6950 C.3   223  ILE223      0.0265
    150  CG1      -44.8540  -28.7010  -18.6100 C.3   223  ILE223      0.0019
    151  CG2      -44.2310  -28.5170  -21.0350 C.3   223  ILE223      0.0020
    152  CD1      -45.7860  -27.9840  -17.6540 C.3   223  ILE223      0.0001
    153  N        -41.3080  -26.9170  -21.1610 N.am  224  PRO224     -0.2718
    154  CA       -40.7880  -26.1370  -22.2880 C.3   224  PRO224      0.1535
    155  C        -41.8410  -25.9760  -23.3780 C.2   224  PRO224      0.2598
    156  O        -42.7240  -26.8240  -23.5030 O.2   224  PRO224     -0.2715
    157  CB       -39.6040  -26.9720  -22.7770 C.3   224  PRO224      0.0310
    158  CG       -39.9400  -28.3650  -22.3680 C.3   224  PRO224      0.0237
    159  CD       -40.6460  -28.2280  -21.0470 C.3   224  PRO224      0.0939
    160  N        -41.7470  -24.9010  -24.1520 N.am  225  ALA225     -0.1964
    161  CA       -42.7300  -24.6210  -25.1930 C.3   225  ALA225      0.1728
    162  C        -42.6700  -25.6530  -26.3170 C.2   225  ALA225      0.2616
    163  O        -43.6370  -25.8350  -27.0560 O.2   225  ALA225     -0.2715
    164  CB       -42.5230  -23.2230  -25.7490 C.3   225  ALA225      0.0334
    165  N        -41.5310  -26.3270  -26.4340 N.am  226  SER226     -0.1950
    166  CA       -41.3150  -27.3110  -27.4890 C.3   226  SER226      0.1924
    167  C        -42.2630  -28.5020  -27.3720 C.2   226  SER226      0.2314
    168  O        -42.6640  -29.0890  -28.3770 O.2   226  SER226     -0.2863
    169  CB       -39.8660  -27.8020  -27.4620 C.3   226  SER226      0.2116
    170  OG       -38.9660  -26.7330  -27.2260 O.3   226  SER226     -0.2180
    171  N        -47.1680  -28.8350  -28.2090 N.3   229  SER229     -0.1217
    172  CA       -47.8900  -29.4830  -29.2990 C.3   229  SER229      0.1889
    173  C        -48.1100  -30.9570  -28.9870 C.2   229  SER229      0.2288
    174  O        -49.2370  -31.4440  -29.0210 O.2   229  SER229     -0.2866
    175  CB       -47.1300  -29.3300  -30.6180 C.3   229  SER229      0.2089
    176  OG       -45.9920  -30.1720  -30.6520 O.3   229  SER229     -0.2183
@<TRIPOS>BOND
     1   131   132    1
     2   131   130    1
     3   128   127    2
     4    47    48    1
     5   129   130    1
     6   129   126    1
     7   132   133    2
     8   127   126    1
     9   126   125    1
    10   133   135    1
    11   133   134    1
    12    48    49    1
    13   120   119    2
    14    50    49    2
    15    49    51   am
    16   119   118    1
    17    51    52    1
    18   118   121    1
    19   118   117    1
    20   121   122    1
    21    52    53    1
    22    39    38    2
    23   112   111    2
    24   117   111   am
    25    38    37    1
    26   123   122    1
    27   111   110    1
    28   122   124    1
    29    53    54    2
    30    53    55   am
    31    37    36    1
    32    37    40    1
    33    45    44    1
    34   109   110    1
    35    40    41    1
    36   110   113    1
    37    55    56    1
    38    69    68    1
    39    44    46    1
    40    44    43    2
    41    41    42    1
    42    42    43    1
    43   113   115    1
    44   113   114    1
    45    56    57    1
    46    56    59    1
    47    58    57    2
    48    68    70    1
    49    68    65    1
    50    57    64   am
    51    63    62    1
    52    60    59    1
    53    60    61    1
    54    64    65    1
    55   114   116    1
    56    65    66    1
    57   176   175    1
    58     1     2    1
    59   175   172    1
    60    62    61    1
    61    85    83    1
    62    31    30    2
    63    30    29    1
    64    66    71   am
    65    66    67    2
    66    77    71    1
    67    77    76    1
    68     5     2    1
    69     5     6    1
    70     2     3    1
    71   172   173    1
    72   172   171    1
    73    71    72    1
    74   174   173    2
    75    83    82    1
    76     8     6   ar
    77    35    33   ar
    78    76    75    1
    79     6     7   ar
    80    29    28    1
    81    29    32    1
    82   168   167    2
    83     3     4    2
    84    33    34   ar
    85    33    32    1
    86    74    73    2
    87    79    78    1
    88    79    82    1
    89    79    80    1
    90    73    72    1
    91    73    78   am
    92    72    75    1
    93    84    82    1
    94   166   169    1
    95   166   167    1
    96   166   165    1
    97   169   170    1
    98    81    80    2
    99    98    97    2
   100   163   162    2
   101    97    96    1
   102    80    86   am
   103   165   162   am
   104   162   161    1
   105   164   161    1
   106    86    87    1
   107    96    99    1
   108    96    95    1
   109    99   100    1
   110    26    25    2
   111    95    88   am
   112   161   160    1
   113    25    27   am
   114    25    24    1
   115    24    21    1
   116    19    17    1
   117    88    87    1
   118    88    89    2
   119    87    90    1
   120   100   101   ar
   121   100   102   ar
   122   160   155   am
   123    23    22    2
   124    16    17    2
   125    16    15    1
   126    17    18    1
   127   105   102   ar
   128   105   107   ar
   129   156   155    2
   130   101   103   ar
   131    21    22    1
   132    21    20    1
   133   155   154    1
   134   102   104   ar
   135    90    91    1
   136    91    92    1
   137   157   158    1
   138   157   154    1
   139    15    14    1
   140   107   108   ar
   141    20    11   am
   142   158   159    1
   143    14    13    1
   144   154   153    1
   145   103   104   ar
   146    92    93    1
   147   104   106   ar
   148    93    94    1
   149    12    11    2
   150    11    10    1
   151   108   106   ar
   152   153   159    1
   153   153   147   am
   154   151   149    1
   155    13    10    1
   156   148   147    2
   157    10     9    1
   158   147   146    1
   159   149   146    1
   160   149   150    1
   161   146   145    1
   162   150   152    1
   163   138   137    1
   164   138   139    2
   165   140   137    1
   166   140   141    1
   167   137   136    1
   168   142   141    1
   169   142   143    1
   170   144   143    1
