@<TRIPOS>MOLECULE
tmp/4r3sA00.pdb
 87 86 0 0 0
SMALL
GASTEIGER

@<TRIPOS>ATOM
      1  N         11.1940    3.7540   23.0230 N.3    27  PHE27      -0.1241
      2  CA        10.3040    4.8920   22.7710 C.3    27  PHE27       0.1605
      3  C          9.6870    5.3660   24.1060 C.2    27  PHE27       0.2264
      4  O          9.1570    4.5590   24.8850 O.2    27  PHE27      -0.2867
      5  CB         9.2160    4.5110   21.7520 C.3    27  PHE27       0.0534
      6  CG         8.4000    5.6980   21.2500 C.ar   27  PHE27      -0.0203
      7  CD1        8.8680    6.4980   20.2240 C.ar   27  PHE27      -0.0042
      8  CD2        7.1890    6.0090   21.8260 C.ar   27  PHE27      -0.0042
      9  CE1        8.1530    7.6450   19.7840 C.ar   27  PHE27      -0.0003
     10  CE2        6.4610    7.1390   21.3920 C.ar   27  PHE27      -0.0003
     11  CZ         6.9350    7.9490   20.3460 C.ar   27  PHE27      -0.0000
     12  N          5.4650   10.4550   24.5680 N.3    31  ASP31      -0.1225
     13  CA         5.5580   11.2080   23.3180 C.3    31  ASP31       0.1805
     14  C          4.5220   10.7890   22.2760 C.2    31  ASP31       0.2598
     15  O          4.4930   11.3590   21.1810 O.2    31  ASP31      -0.2718
     16  CB         6.9540   11.0610   22.6940 C.3    31  ASP31       0.1424
     17  CG         8.0510   11.7140   23.5310 C.2    31  ASP31       0.3668
     18  OD1        7.7180   12.4920   24.4520 O.co2  31  ASP31      -0.2456
     19  OD2        9.2520   11.4250   23.2830 O.co2  31  ASP31      -0.2456
     20  N          3.6640    9.8260   22.5900 N.am   32  ASP32      -0.1960
     21  CA         2.6300    9.4610   21.6180 C.3    32  ASP32       0.1840
     22  C          1.4670    8.7690   22.2960 C.2    32  ASP32       0.2622
     23  O          1.6530    8.1780   23.3580 O.2    32  ASP32      -0.2715
     24  CB         3.2110    8.5120   20.5380 C.3    32  ASP32       0.1450
     25  CG         2.3800    8.4780   19.2710 C.2    32  ASP32       0.3671
     26  OD1        1.3590    9.1960   19.1200 O.co2  32  ASP32      -0.2456
     27  OD2        2.7730    7.7380   18.3990 O.co2  32  ASP32      -0.2456
     28  N          0.2890    8.7580   21.6430 N.am   33  PHE33      -0.1974
     29  CA        -0.7750    7.8780   22.0740 C.3    33  PHE33       0.1639
     30  C         -0.3450    6.4250   22.0480 C.2    33  PHE33       0.2290
     31  O          0.4620    6.0280   21.2090 O.2    33  PHE33      -0.2864
     32  CB        -2.0110    7.9860   21.1620 C.3    33  PHE33       0.0560
     33  CG        -2.5900    9.3670   21.0740 C.ar   33  PHE33      -0.0200
     34  CD1       -3.3150    9.9000   22.1130 C.ar   33  PHE33      -0.0042
     35  CD2       -2.4280   10.1190   19.9190 C.ar   33  PHE33      -0.0042
     36  CE1       -3.8490   11.1480   22.0080 C.ar   33  PHE33      -0.0003
     37  CE2       -2.9510   11.3560   19.8150 C.ar   33  PHE33      -0.0003
     38  CZ        -3.6770   11.8850   20.8640 C.ar   33  PHE33      -0.0000
     39  N         -2.5940    3.0330   21.3460 N.3    35  HIS35      -0.1241
     40  CA        -3.8960    2.5950   20.8100 C.3    35  HIS35       0.1621
     41  C         -4.1120    1.1390   21.1260 C.2    35  HIS35       0.2264
     42  O         -3.1420    0.3570   21.0910 O.2    35  HIS35      -0.2867
     43  CB        -3.9510    2.7380   19.2820 C.3    35  HIS35       0.0745
     44  CG        -3.6640    4.1000   18.7950 C.ar   35  HIS35       0.0817
     45  ND1       -4.6630    4.9800   18.4390 N.ar   35  HIS35      -0.2268
     46  CD2       -2.4980    4.7710   18.6640 C.ar   35  HIS35       0.1154
     47  CE1       -4.1210    6.1380   18.0920 C.ar   35  HIS35       0.1986
     48  NE2       -2.8110    6.0280   18.1940 N.ar   35  HIS35      -0.2212
     49  N         -7.7170    5.1420   22.4700 N.3    50  ARG50      -0.1245
     50  CA        -6.3260    5.5550   22.6180 C.3    50  ARG50       0.1563
     51  C         -6.1770    6.2800   23.9370 C.2    50  ARG50       0.2260
     52  O         -7.1510    6.8340   24.4590 O.2    50  ARG50      -0.2867
     53  CB        -5.8830    6.5200   21.4920 C.3    50  ARG50       0.0307
     54  CG        -6.7110    7.8560   21.4500 C.3    50  ARG50       0.0489
     55  CD        -6.2880    8.6980   20.1930 C.3    50  ARG50       0.2205
     56  NE        -7.1510    9.8630   20.1210 N.pl3  50  ARG50      -0.0865
     57  CZ        -8.2040    9.9870   19.3180 C.cat  50  ARG50       0.5346
     58  NH1       -8.4810    9.0450   18.4080 N.pl3  50  ARG50       0.1354
     59  NH2       -8.9490   11.0880   19.4010 N.pl3  50  ARG50       0.1354
     60  N          3.4600    5.0140   17.7770 N.3    99  TYR99      -0.1227
     61  CA         4.1680    5.6940   16.6760 C.3    99  TYR99       0.1736
     62  C          3.1810    5.9260   15.5350 C.2    99  TYR99       0.2596
     63  O          3.2430    5.2820   14.4720 O.2    99  TYR99      -0.2718
     64  CB         5.3760    4.8940   16.2430 C.3    99  TYR99       0.0548
     65  CG         6.4630    5.6820   15.5260 C.ar   99  TYR99      -0.0200
     66  CD1        6.5130    5.7240   14.1190 C.ar   99  TYR99      -0.0009
     67  CD2        7.4660    6.3080   16.2380 C.ar   99  TYR99      -0.0009
     68  CE1        7.5020    6.3890   13.4500 C.ar   99  TYR99       0.0417
     69  CE2        8.4940    6.9700   15.5630 C.ar   99  TYR99       0.0417
     70  CZ         8.4990    7.0020   14.1760 C.ar   99  TYR99       0.1957
     71  OH         9.4810    7.6630   13.4940 O.3    99  TYR99      -0.2866
     72  N          2.2460    6.8500   15.7770 N.am  100  GLY100     -0.1942
     73  CA         1.0050    6.8020   15.0450 C.3   100  GLY100      0.2014
     74  C          0.3650    5.4400   15.3200 C.2   100  GLY100      0.2639
     75  O          0.0940    5.0960   16.4710 O.2   100  GLY100     -0.2714
     76  N          0.1440    4.6580   14.2710 N.am  101  VAL101     -0.1963
     77  CA        -0.2540    3.2650   14.4080 C.3   101  VAL101      0.1727
     78  C          0.7130    2.3500   13.6410 C.2   101  VAL101      0.2616
     79  O          0.3070    1.2910   13.1160 O.2   101  VAL101     -0.2715
     80  CB        -1.7290    3.0250   13.9400 C.3   101  VAL101      0.0290
     81  CG1       -2.7090    3.6600   14.9190 C.3   101  VAL101      0.0023
     82  CG2       -1.9910    3.5180   12.4890 C.3   101  VAL101      0.0023
     83  N          1.9830    2.7490   13.5880 N.am  102  ALA102     -0.1977
     84  CA         2.9650    2.0360   12.7890 C.3   102  ALA102      0.1597
     85  C          3.5190    0.7670   13.5010 C.2   102  ALA102      0.2287
     86  O          3.7980   -0.2550   12.8310 O.2   102  ALA102     -0.2864
     87  CB         4.1270    2.9630   12.4030 C.3   102  ALA102      0.0319
@<TRIPOS>BOND
     1    87    84    1
     2    82    80    1
     3    84    85    1
     4    84    83    1
     5    86    85    2
     6    79    78    2
     7    68    66   ar
     8    68    70   ar
     9    71    70    1
    10    83    78   am
    11    78    77    1
    12    80    77    1
    13    80    81    1
    14    66    65   ar
    15    70    69   ar
    16    76    77    1
    17    76    74   am
    18    63    62    2
    19    73    74    1
    20    73    72    1
    21    74    75    2
    22    65    67   ar
    23    65    64    1
    24    62    72   am
    25    62    61    1
    26    69    67   ar
    27    64    61    1
    28    61    60    1
    29    47    48   ar
    30    47    45   ar
    31    48    46   ar
    32    27    25   ar
    33    58    57    1
    34    45    44   ar
    35    46    44   ar
    36    44    43    1
    37    26    25   ar
    38    25    24    1
    39    43    40    1
    40    57    59    1
    41    57    56    2
    42     9     7   ar
    43     9    11   ar
    44    37    35   ar
    45    37    38   ar
    46    35    33   ar
    47    56    55    1
    48    55    54    1
    49     7     6   ar
    50    11    10   ar
    51    24    21    1
    52    40    41    1
    53    40    39    1
    54    38    36   ar
    55    33    32    1
    56    33    34   ar
    57    42    41    2
    58    32    29    1
    59    15    14    2
    60    31    30    2
    61     6     5    1
    62     6     8   ar
    63    10     8   ar
    64    54    53    1
    65    53    50    1
    66    21    22    1
    67    21    20    1
    68    28    29    1
    69    28    22   am
    70     5     2    1
    71    36    34   ar
    72    30    29    1
    73    14    20   am
    74    14    13    1
    75    22    23    2
    76    49    50    1
    77    50    51    1
    78    16    13    1
    79    16    17    1
    80     2     1    1
    81     2     3    1
    82    19    17   ar
    83    13    12    1
    84    17    18   ar
    85    51    52    2
    86     3     4    2
