@<TRIPOS>MOLECULE
tmp/4r3sB00.pdb
 116 110 0 0 0
SMALL
GASTEIGER

@<TRIPOS>ATOM
      1  N         -8.2890   15.5190    5.4020 N.3    31  HIS31      -0.1241
      2  CA        -8.3690   16.7440    6.1790 C.3    31  HIS31       0.1621
      3  C         -7.1930   17.6080    5.7470 C.2    31  HIS31       0.2264
      4  O         -6.0530   17.1330    5.7980 O.2    31  HIS31      -0.2867
      5  CB        -8.3120   16.4790    7.6870 C.3    31  HIS31       0.0745
      6  CG        -8.6390   17.6860    8.5070 C.ar   31  HIS31       0.0817
      7  ND1       -9.9270   18.1610    8.6370 N.ar   31  HIS31      -0.2268
      8  CD2       -7.8480   18.5450    9.1960 C.ar   31  HIS31       0.1154
      9  CE1       -9.9220   19.2510    9.3930 C.ar   31  HIS31       0.1986
     10  NE2       -8.6740   19.4980    9.7540 N.ar   31  HIS31      -0.2212
     11  N         -4.4620   16.2640    3.3990 N.3    34  ASP34      -0.1239
     12  CA        -3.9060   14.9460    3.6890 C.3    34  ASP34       0.1674
     13  C         -4.9950   13.8890    3.7540 C.2    34  ASP34       0.2266
     14  O         -6.0900   14.1710    4.2430 O.2    34  ASP34      -0.2867
     15  CB        -3.1510   14.9880    5.0040 C.3    34  ASP34       0.1410
     16  CG        -2.0380   16.0230    4.9910 C.2    34  ASP34       0.3668
     17  OD1       -0.9850   15.7090    4.3770 O.co2  34  ASP34      -0.2456
     18  OD2       -2.2310   17.1350    5.5600 O.co2  34  ASP34      -0.2456
     19  N         -6.1230   10.3540    5.3590 N.3    36  TYR36      -0.1241
     20  CA        -5.7130    9.5070    6.4880 C.3    36  TYR36       0.1605
     21  C         -6.2140    8.0900    6.3240 C.2    36  TYR36       0.2264
     22  O         -7.0930    7.6250    7.0810 O.2    36  TYR36      -0.2867
     23  CB        -6.2150   10.1590    7.7970 C.3    36  TYR36       0.0534
     24  CG        -5.4280   11.4030    8.0680 C.ar   36  TYR36      -0.0201
     25  CD1       -5.9130   12.6570    7.7020 C.ar   36  TYR36      -0.0009
     26  CD2       -4.1800   11.3230    8.6770 C.ar   36  TYR36      -0.0009
     27  CE1       -5.1370   13.8070    7.9450 C.ar   36  TYR36       0.0417
     28  CE2       -3.4140   12.4540    8.9000 C.ar   36  TYR36       0.0417
     29  CZ        -3.9000   13.6910    8.5580 C.ar   36  TYR36       0.1957
     30  OH        -3.1710   14.8430    8.8220 O.3    36  TYR36      -0.2866
     31  N         -4.7600    4.1100    5.8620 N.3    38  ASN38      -0.1240
     32  CA        -3.6720    3.1440    6.0080 C.3    38  ASN38       0.1653
     33  C         -4.0290    1.7750    5.4290 C.2    38  ASN38       0.2266
     34  O         -5.1840    1.4190    5.4150 O.2    38  ASN38      -0.2867
     35  CB        -3.3560    2.9670    7.5180 C.3    38  ASN38       0.1155
     36  CG        -2.9820    4.2620    8.1880 C.2    38  ASN38       0.2627
     37  OD1       -2.3310    5.1050    7.5990 O.2    38  ASN38      -0.2716
     38  ND2       -3.3660    4.4240    9.4360 N.am   38  ASN38      -0.0877
     39  N          1.8730   -2.5420    9.0460 N.3    50  LEU50      -0.1245
     40  CA         1.5860   -1.3490    8.2310 C.3    50  LEU50       0.1561
     41  C          2.3520   -1.3910    6.8860 C.2    50  LEU50       0.2260
     42  O          3.5720   -1.5040    6.8830 O.2    50  LEU50      -0.2867
     43  CB         1.9760   -0.0710    9.0160 C.3    50  LEU50       0.0270
     44  CG         1.6790    1.2570    8.2710 C.3    50  LEU50       0.0019
     45  CD1        0.1540    1.4550    8.1290 C.3    50  LEU50       0.0001
     46  CD2        2.2940    2.4300    9.0650 C.3    50  LEU50       0.0001
     47  N          0.7090    4.3590    4.5390 N.3    53  TYR53      -0.1227
     48  CA        -0.0040    5.3220    5.3600 C.3    53  TYR53       0.1736
     49  C         -0.2040    6.6120    4.5620 C.2    53  TYR53       0.2595
     50  O          0.4790    6.8770    3.5500 O.2    53  TYR53      -0.2718
     51  CB         0.7640    5.6040    6.7010 C.3    53  TYR53       0.0548
     52  CG         2.1590    6.2010    6.5170 C.ar   53  TYR53      -0.0200
     53  CD1        3.2860    5.3710    6.3480 C.ar   53  TYR53      -0.0009
     54  CD2        2.3700    7.5590    6.5860 C.ar   53  TYR53      -0.0009
     55  CE1        4.5580    5.9020    6.1970 C.ar   53  TYR53       0.0417
     56  CE2        3.6160    8.0860    6.4180 C.ar   53  TYR53       0.0417
     57  CZ         4.6920    7.2770    6.2170 C.ar   53  TYR53       0.1957
     58  OH         5.9060    7.8850    6.0210 O.3    53  TYR53      -0.2866
     59  N         -1.1690    7.4110    5.0140 N.am   54  ALA54      -0.1980
     60  CA        -1.5480    8.6660    4.3470 C.3    54  ALA54       0.1597
     61  C         -1.7790    8.4070    2.8500 C.2    54  ALA54       0.2287
     62  O         -1.3160    9.1510    1.9790 O.2    54  ALA54      -0.2864
     63  CB        -0.4870    9.7470    4.5770 C.3    54  ALA54       0.0319
     64  N          1.9550    6.7020    1.0970 N.3    57  ASN57      -0.1240
     65  CA         3.3190    6.6470    1.6110 C.3    57  ASN57       0.1653
     66  C          3.7460    5.2250    2.0200 C.2    57  ASN57       0.2266
     67  O          3.1320    4.5790    2.8580 O.2    57  ASN57      -0.2867
     68  CB         3.4750    7.5630    2.8320 C.3    57  ASN57       0.1155
     69  CG         3.1640    8.9950    2.5130 C.2    57  ASN57       0.2627
     70  OD1        2.2290    9.5890    3.0570 O.2    57  ASN57      -0.2716
     71  ND2        3.9170    9.5520    1.6170 N.am   57  ASN57      -0.0877
     72  N          5.6280    2.4210    3.8350 N.3    59  GLU59      -0.1245
     73  CA         6.2180    2.3450    5.1610 C.3    59  GLU59       0.1567
     74  C          7.6320    1.7690    5.0670 C.2    59  GLU59       0.2260
     75  O          7.9320    0.9060    4.2200 O.2    59  GLU59      -0.2867
     76  CB         5.3030    1.5250    6.0810 C.3    59  GLU59       0.0388
     77  CG         5.8580    1.1340    7.4870 C.3    59  GLU59       0.1160
     78  CD         6.2170    2.3120    8.3900 C.2    59  GLU59       0.3649
     79  OE1        6.1570    3.4790    7.9400 O.co2  59  GLU59      -0.2457
     80  OE2        6.6140    2.0560    9.5690 O.co2  59  GLU59      -0.2457
     81  N         -8.0750    6.9840    9.8750 N.3    95  THR95      -0.1203
     82  CA        -7.6540    7.5940   11.1300 C.3    95  THR95       0.1994
     83  C         -7.8810    9.0950   11.0440 C.2    95  THR95       0.2618
     84  O         -7.2890    9.8900   11.7680 O.2    95  THR95      -0.2717
     85  CB        -6.1640    7.2740   11.4450 C.3    95  THR95       0.1784
     86  OG1       -5.3580    7.7280   10.3580 O.3    95  THR95      -0.2211
     87  CG2       -5.9190    5.7530   11.6510 C.3    95  THR95       0.0376
     88  N         -8.8660    9.4570   10.2230 N.am   96  ASN96      -0.1960
     89  CA        -9.2930   10.8490   10.1210 C.3    96  ASN96       0.1819
     90  C        -10.2490   11.2830   11.2260 C.2    96  ASN96       0.2621
     91  O        -10.0840   12.3640   11.8080 O.2    96  ASN96      -0.2715
     92  CB        -9.9720   11.0710    8.7680 C.3    96  ASN96       0.1195
     93  CG       -10.3110   12.5220    8.5250 C.2    96  ASN96       0.2630
     94  OD1       -9.5370   13.3980    8.8700 O.2    96  ASN96      -0.2716
     95  ND2      -11.4370   12.7790    7.8750 N.am   96  ASN96      -0.0877
     96  N        -11.2630   10.4600   11.4920 N.am   97  GLU97      -0.1977
     97  CA       -12.2800   10.7810   12.4950 C.3    97  GLU97       0.1602
     98  C        -12.4710    9.6150   13.4520 C.2    97  GLU97       0.2287
     99  O        -12.2290    8.4680   13.1130 O.2    97  GLU97      -0.2864
    100  CB       -13.6220   11.1280   11.8420 C.3    97  GLU97       0.0415
    101  CG       -13.6050   12.3620   10.8780 C.3    97  GLU97       0.1163
    102  CD       -13.5910   13.7220   11.5770 C.2    97  GLU97       0.3649
    103  OE1      -13.7530   13.7670   12.8290 O.co2  97  GLU97      -0.2457
    104  OE2      -13.3970   14.7660   10.8780 O.co2  97  GLU97      -0.2457
    105  N        -11.6350    5.4150   14.9870 N.3   100  TYR100     -0.1241
    106  CA       -10.9290    4.8640   13.8190 C.3   100  TYR100      0.1605
    107  C        -11.6670    3.5880   13.4140 C.2   100  TYR100      0.2264
    108  O        -12.1840    2.8670   14.2630 O.2   100  TYR100     -0.2867
    109  CB        -9.4890    4.5030   14.1240 C.3   100  TYR100      0.0534
    110  CG        -8.6110    5.6180   14.6060 C.ar  100  TYR100     -0.0201
    111  CD1       -8.9880    6.9720   14.5100 C.ar  100  TYR100     -0.0009
    112  CD2       -7.3570    5.2940   15.1090 C.ar  100  TYR100     -0.0009
    113  CE1       -8.1060    7.9870   14.9790 C.ar  100  TYR100      0.0417
    114  CE2       -6.5020    6.2670   15.5430 C.ar  100  TYR100      0.0417
    115  CZ        -6.8860    7.5950   15.4950 C.ar  100  TYR100      0.1957
    116  OH        -5.9980    8.5250   15.9840 O.3   100  TYR100     -0.2866
@<TRIPOS>BOND
     1    64    65    1
     2    65    66    1
     3    65    68    1
     4    71    69   am
     5    62    61    2
     6    66    67    2
     7    69    68    1
     8    69    70    2
     9    61    60    1
    10    11    12    1
    11    50    49    2
    12    12    13    1
    13    12    15    1
    14    13    14    2
    15    72    73    1
    16    75    74    2
    17    60    63    1
    18    60    59    1
    19    17    16   ar
    20    47    48    1
    21    49    59   am
    22    49    48    1
    23    16    15    1
    24    16    18   ar
    25    74    73    1
    26    73    76    1
    27    19    20    1
    28    48    51    1
    29     1     2    1
    30    34    33    2
    31    33    32    1
    32     3     4    2
    33     3     2    1
    34    31    32    1
    35    32    35    1
    36    58    57    1
    37    76    77    1
    38     2     5    1
    39    55    57   ar
    40    55    53   ar
    41    57    56   ar
    42    21    20    1
    43    21    22    2
    44    53    52   ar
    45    56    54   ar
    46    20    23    1
    47    52    54   ar
    48    52    51    1
    49    42    41    2
    50    41    40    1
    51    77    78    1
    52    35    36    1
    53    37    36    2
    54     5     6    1
    55    25    27   ar
    56    25    24   ar
    57    23    24    1
    58    95    93   am
    59    79    78   ar
    60    27    29   ar
    61    24    26   ar
    62    45    44    1
    63    36    38   am
    64    40    43    1
    65    40    39    1
    66    44    43    1
    67    44    46    1
    68    78    80   ar
    69     6     7   ar
    70     6     8   ar
    71    93    92    1
    72    93    94    2
    73    29    30    1
    74    29    28   ar
    75     7     9   ar
    76    26    28   ar
    77    92    89    1
    78     8    10   ar
    79     9    10   ar
    80    81    82    1
    81    89    88    1
    82    89    90    1
    83    88    83   am
    84    86    85    1
    85   104   102   ar
    86   101   102    1
    87   101   100    1
    88    83    82    1
    89    83    84    2
    90    82    85    1
    91    90    96   am
    92    90    91    2
    93    85    87    1
    94    96    97    1
    95   102   103   ar
    96   100    97    1
    97    97    98    1
    98    99    98    2
    99   107   106    1
   100   107   108    2
   101   106   109    1
   102   106   105    1
   103   109   110    1
   104   111   110   ar
   105   111   113   ar
   106   110   112   ar
   107   113   115   ar
   108   112   114   ar
   109   115   114   ar
   110   115   116    1
