@<TRIPOS>MOLECULE
tmp/4r3uA03.pdb
 209 200 0 0 0
SMALL
GASTEIGER

@<TRIPOS>ATOM
      1  N         39.1610    7.3100   63.2960 N.3   116  ASP116     -0.1225
      2  CA        37.8400    7.4930   62.7140 C.3   116  ASP116      0.1805
      3  C         37.8670    8.6280   61.7330 C.2   116  ASP116      0.2597
      4  O         38.4560    9.6720   61.9920 O.2   116  ASP116     -0.2718
      5  CB        36.7370    7.6770   63.7580 C.3   116  ASP116      0.1424
      6  CG        36.1620    6.3240   64.1380 C.2   116  ASP116      0.3668
      7  OD1       36.9290    5.3250   64.0910 O.co2 116  ASP116     -0.2456
      8  OD2       34.9640    6.2770   64.5660 O.co2 116  ASP116     -0.2456
      9  N         37.2320    8.4140   60.5960 N.am  117  PHE117     -0.1976
     10  CA        37.2270    9.3300   59.4500 C.3   117  PHE117      0.1639
     11  C         35.9000   10.0520   59.2870 C.2   117  PHE117      0.2290
     12  O         34.8780    9.6070   59.8160 O.2   117  PHE117     -0.2864
     13  CB        37.6130    8.5590   58.1730 C.3   117  PHE117      0.0560
     14  CG        38.9590    7.8640   58.3090 C.ar  117  PHE117     -0.0200
     15  CD1       40.1430    8.5290   57.9870 C.ar  117  PHE117     -0.0042
     16  CD2       39.0450    6.5690   58.8160 C.ar  117  PHE117     -0.0042
     17  CE1       41.3870    7.9160   58.1780 C.ar  117  PHE117     -0.0003
     18  CE2       40.2880    5.9690   59.0270 C.ar  117  PHE117     -0.0003
     19  CZ        41.4520    6.6390   58.6850 C.ar  117  PHE117     -0.0000
     20  N         32.6270   11.6930   57.0810 N.3   119  MET119     -0.1245
     21  CA        31.7070   11.1450   56.1030 C.3   119  MET119      0.1570
     22  C         32.2190   11.2020   54.6850 C.2   119  MET119      0.2261
     23  O         32.1780   10.1560   54.0440 O.2   119  MET119     -0.2867
     24  CB        30.3070   11.7590   56.2420 C.3   119  MET119      0.0387
     25  CG        29.6200   11.4490   57.5560 C.3   119  MET119      0.0595
     26  SD        29.8370    9.7430   58.1350 S.3   119  MET119     -0.1393
     27  CE        28.8990    8.8030   56.9840 C.3   119  MET119      0.0692
     28  N         34.7680    8.3670   54.3690 N.3   122  LEU122     -0.1231
     29  CA        34.0710    7.0860   54.5560 C.3   122  LEU122      0.1693
     30  C         33.2730    6.6950   53.3030 C.2   122  LEU122      0.2591
     31  O         33.2240    5.5160   52.9300 O.2   122  LEU122     -0.2718
     32  CB        33.1470    7.1590   55.7770 C.3   122  LEU122      0.0284
     33  CG        33.8330    7.1630   57.1720 C.3   122  LEU122      0.0019
     34  CD1       32.8110    7.4420   58.2820 C.3   122  LEU122      0.0001
     35  CD2       34.6210    5.8750   57.4320 C.3   122  LEU122      0.0001
     36  N         32.6830    7.7050   52.6510 N.am  123  MET123     -0.1979
     37  CA        31.8340    7.5870   51.4720 C.3   123  MET123      0.1605
     38  C         32.5880    7.6640   50.1310 C.2   123  MET123      0.2287
     39  O         31.9700    7.5250   49.0840 O.2   123  MET123     -0.2864
     40  CB        30.6620    8.6000   51.5600 C.3   123  MET123      0.0413
     41  CG        29.7650    8.4060   52.7680 C.3   123  MET123      0.0598
     42  SD        29.2720    6.6940   53.0820 S.3   123  MET123     -0.1393
     43  CE        27.9100    6.4130   51.8880 C.3   123  MET123      0.0692
     44  N         32.8190   14.5840   61.6890 N.3   139  GLU139     -0.1245
     45  CA        32.5990   13.3140   62.4110 C.3   139  GLU139      0.1567
     46  C         33.8390   12.4130   62.5590 C.2   139  GLU139      0.2260
     47  O         33.7870   11.3840   63.2380 O.2   139  GLU139     -0.2867
     48  CB        31.4270   12.5480   61.7670 C.3   139  GLU139      0.0388
     49  CG        30.0880   13.2710   61.8560 C.3   139  GLU139      0.1160
     50  CD        28.8950   12.3510   61.7540 C.2   139  GLU139      0.3649
     51  OE1       28.5760   11.8980   60.6310 O.co2 139  GLU139     -0.2457
     52  OE2       28.2820   12.0700   62.8070 O.co2 139  GLU139     -0.2457
     53  N         39.4970    3.0700   60.8140 N.3   166  THR166     -0.1218
     54  CA        38.0750    2.6930   60.7320 C.3   166  THR166      0.1862
     55  C         37.5650    3.1610   59.3560 C.2   166  THR166      0.2287
     56  O         36.8170    4.1390   59.2460 O.2   166  THR166     -0.2866
     57  CB        37.2960    3.2910   61.8610 C.3   166  THR166      0.1770
     58  OG1       37.9340    2.9280   63.0680 O.3   166  THR166     -0.2211
     59  CG2       35.8510    2.8620   61.8620 C.3   166  THR166      0.0375
     60  N         24.4870   -3.1770   58.1790 N.3   206  ALA206     -0.1231
     61  CA        24.3630   -2.2380   59.2960 C.3   206  ALA206      0.1694
     62  C         25.0030   -0.8580   59.2270 C.2   206  ALA206      0.2592
     63  O         24.3410    0.0740   59.6250 O.2   206  ALA206     -0.2718
     64  CB        24.7780   -2.9280   60.5950 C.3   206  ALA206      0.0304
     65  N         26.3000   -0.7200   58.8850 N.am  207  GLN207     -0.1966
     66  CA        26.9220    0.6050   58.9850 C.3   207  GLN207      0.1733
     67  C         26.5850    1.6310   57.8830 C.2   207  GLN207      0.2616
     68  O         26.6590    2.8470   58.1100 O.2   207  GLN207     -0.2715
     69  CB        28.4010    0.5320   59.3780 C.3   207  GLN207      0.0408
     70  CG        29.0220    1.9210   59.5720 C.3   207  GLN207      0.0908
     71  CD        30.2750    1.9170   60.3580 C.2   207  GLN207      0.2608
     72  OE1       30.3510    2.5930   61.3680 O.2   207  GLN207     -0.2717
     73  NE2       31.2870    1.1650   59.9070 N.am  207  GLN207     -0.0878
     74  N         26.1330    1.1230   56.7220 N.am  208  LYS208     -0.1963
     75  CA        25.6380    1.8950   55.5780 C.3   208  LYS208      0.1728
     76  C         26.6690    2.7840   54.8250 C.2   208  LYS208      0.2616
     77  O         26.3050    3.7950   54.2030 O.2   208  LYS208     -0.2715
     78  CB        24.3300    2.6190   55.9470 C.3   208  LYS208      0.0311
     79  CG        23.3220    1.7560   56.7060 C.3   208  LYS208      0.0038
     80  CD        22.7730    0.5860   55.8880 C.3   208  LYS208      0.0206
     81  CE        21.7990   -0.2410   56.6670 C.3   208  LYS208      0.1093
     82  NZ        20.4120    0.0250   56.2390 N.3   208  LYS208     -0.1314
     83  N         27.9440    2.3540   54.8330 N.am  209  GLU209     -0.1977
     84  CA        29.0090    3.0280   54.0900 C.3   209  GLU209      0.1602
     85  C         29.3330    2.1610   52.8930 C.2   209  GLU209      0.2287
     86  O         29.9260    1.1060   53.0380 O.2   209  GLU209     -0.2864
     87  CB        30.2670    3.2560   54.9510 C.3   209  GLU209      0.0415
     88  CG        29.9960    3.9800   56.2590 C.3   209  GLU209      0.1163
     89  CD        31.1410    3.9940   57.2400 C.2   209  GLU209      0.3649
     90  OE1       32.2190    3.4450   56.9160 O.co2 209  GLU209     -0.2457
     91  OE2       30.9520    4.5350   58.3530 O.co2 209  GLU209     -0.2457
     92  N         30.0410   -5.2910   65.9880 N.3   243  TYR243     -0.1227
     93  CA        29.7540   -4.0490   66.6840 C.3   243  TYR243      0.1736
     94  C         28.5780   -3.2410   66.0790 C.2   243  TYR243      0.2595
     95  O         27.6240   -2.8830   66.7830 O.2   243  TYR243     -0.2718
     96  CB        31.0280   -3.1710   66.7970 C.3   243  TYR243      0.0548
     97  CG        30.7990   -1.9000   67.6010 C.ar  243  TYR243     -0.0200
     98  CD1       30.8660   -1.9090   68.9950 C.ar  243  TYR243     -0.0009
     99  CD2       30.4370   -0.7080   66.9730 C.ar  243  TYR243     -0.0009
    100  CE1       30.5590   -0.7740   69.7450 C.ar  243  TYR243      0.0417
    101  CE2       30.1390    0.4390   67.7120 C.ar  243  TYR243      0.0417
    102  CZ        30.1990    0.4030   69.1000 C.ar  243  TYR243      0.1957
    103  OH        29.9140    1.5340   69.8390 O.3   243  TYR243     -0.2866
    104  N         28.6800   -2.9430   64.7790 N.am  244  HIS244     -0.1975
    105  CA        27.7310   -2.1390   64.0240 C.3   244  HIS244      0.1656
    106  C         26.3990   -2.8230   63.8890 C.2   244  HIS244      0.2291
    107  O         25.3810   -2.1350   63.8600 O.2   244  HIS244     -0.2864
    108  CB        28.3220   -1.7790   62.6620 C.3   244  HIS244      0.0771
    109  CG        29.7720   -1.4070   62.7380 C.ar  244  HIS244      0.0820
    110  ND1       30.7740   -2.3770   62.6700 N.ar  244  HIS244     -0.2267
    111  CD2       30.3470   -0.1950   62.9080 C.ar  244  HIS244      0.1154
    112  CE1       31.9140   -1.7150   62.7790 C.ar  244  HIS244      0.1986
    113  NE2       31.7090   -0.4020   62.9170 N.ar  244  HIS244     -0.2212
    114  N         24.9040   -2.2930   67.3600 N.3   247  GLU247     -0.1231
    115  CA        24.5870   -0.8670   67.4610 C.3   247  GLU247      0.1699
    116  C         23.4500   -0.3980   66.5270 C.2   247  GLU247      0.2592
    117  O         22.7690    0.5940   66.8440 O.2   247  GLU247     -0.2718
    118  CB        25.8550   -0.0290   67.3400 C.3   247  GLU247      0.0402
    119  CG        26.7780   -0.2110   68.5290 C.3   247  GLU247      0.1161
    120  CD        26.4270    0.6100   69.7500 C.2   247  GLU247      0.3649
    121  OE1       26.2540    0.0140   70.8370 O.co2 247  GLU247     -0.2457
    122  OE2       26.2900    1.8470   69.6130 O.co2 247  GLU247     -0.2457
    123  N         23.2240   -1.1390   65.4120 N.am  248  ALA248     -0.1980
    124  CA        22.1150   -0.9150   64.4810 C.3   248  ALA248      0.1597
    125  C         20.7820   -1.4330   65.1080 C.2   248  ALA248      0.2287
    126  O         19.7200   -1.2340   64.5250 O.2   248  ALA248     -0.2864
    127  CB        22.3820   -1.6180   63.1580 C.3   248  ALA248      0.0319
    128  N         28.0500    1.8820   73.0370 N.3   334  ALA334     -0.1231
    129  CA        27.7200    3.2980   72.9730 C.3   334  ALA334      0.1694
    130  C         26.1600    3.4850   73.0800 C.2   334  ALA334      0.2591
    131  O         25.6910    4.4380   73.7190 O.2   334  ALA334     -0.2718
    132  CB        28.2270    3.8220   71.6700 C.3   334  ALA334      0.0304
    133  N         25.3670    2.5260   72.5100 N.am  335  ALA335     -0.1980
    134  CA        23.9130    2.5830   72.5580 C.3   335  ALA335      0.1597
    135  C         23.3080    2.4910   74.0050 C.2   335  ALA335      0.2287
    136  O         22.1290    2.8630   74.1970 O.2   335  ALA335     -0.2864
    137  CB        23.3050    1.5280   71.6360 C.3   335  ALA335      0.0319
    138  N         24.6560    4.1470   76.6540 N.3   337  LEU337     -0.1245
    139  CA        25.0250    5.4050   77.2830 C.3   337  LEU337      0.1561
    140  C         23.9850    6.4870   77.0610 C.2   337  LEU337      0.2260
    141  O         23.3050    6.4990   76.0320 O.2   337  LEU337     -0.2867
    142  CB        26.4420    5.8350   76.8460 C.3   337  LEU337      0.0270
    143  CG        27.5760    4.7720   76.9560 C.3   337  LEU337      0.0019
    144  CD1       28.9130    5.3820   76.6640 C.3   337  LEU337      0.0001
    145  CD2       27.6660    4.1760   78.3370 C.3   337  LEU337      0.0001
    146  N         29.3920   10.4090   75.2610 N.3   371  GLU371     -0.1231
    147  CA        28.9490    9.6480   74.0920 C.3   371  GLU371      0.1699
    148  C         27.6610   10.1510   73.4290 C.2   371  GLU371      0.2592
    149  O         27.6080   10.2590   72.2100 O.2   371  GLU371     -0.2718
    150  CB        28.8530    8.1480   74.4430 C.3   371  GLU371      0.0402
    151  CG        28.5050    7.2310   73.2790 C.3   371  GLU371      0.1161
    152  CD        29.4850    7.0850   72.1330 C.2   371  GLU371      0.3649
    153  OE1       28.9990    6.8310   71.0110 O.co2 371  GLU371     -0.2457
    154  OE2       30.7170    7.1600   72.3480 O.co2 371  GLU371     -0.2457
    155  N         26.6270   10.4740   74.2220 N.am  372  ALA372     -0.1966
    156  CA        25.3480   10.9010   73.6640 C.3   372  ALA372      0.1728
    157  C         25.2860   12.3750   73.2110 C.2   372  ALA372      0.2616
    158  O         24.2950   12.7950   72.6120 O.2   372  ALA372     -0.2715
    159  CB        24.2270   10.5610   74.6230 C.3   372  ALA372      0.0334
    160  N         26.3650   13.1320   73.4370 N.am  373  PHE373     -0.1960
    161  CA        26.4530   14.5380   73.0450 C.3   373  PHE373      0.1771
    162  C         27.2630   14.7740   71.7700 C.2   373  PHE373      0.2619
    163  O         26.7510   15.3680   70.8230 O.2   373  PHE373     -0.2715
    164  CB        27.0650   15.3670   74.1540 C.3   373  PHE373      0.0574
    165  CG        26.2900   15.4350   75.4350 C.ar  373  PHE373     -0.0200
    166  CD1       26.3270   14.3820   76.3430 C.ar  373  PHE373     -0.0042
    167  CD2       25.6380   16.6110   75.8050 C.ar  373  PHE373     -0.0042
    168  CE1       25.6400   14.4610   77.5490 C.ar  373  PHE373     -0.0003
    169  CE2       24.9560   16.6980   77.0120 C.ar  373  PHE373     -0.0003
    170  CZ        24.9700   15.6220   77.8800 C.ar  373  PHE373     -0.0000
    171  N         28.5510   14.3810   71.7700 N.am  374  ALA374     -0.1963
    172  CA        29.4750   14.6900   70.6700 C.3   374  ALA374      0.1728
    173  C         30.6860   13.7830   70.6760 C.2   374  ALA374      0.2616
    174  O         30.8840   13.0290   71.6360 O.2   374  ALA374     -0.2715
    175  CB        29.9530   16.1390   70.8070 C.3   374  ALA374      0.0334
    176  N         31.5520   13.9110   69.6190 N.am  375  ILE375     -0.1964
    177  CA        32.8380   13.2000   69.5820 C.3   375  ILE375      0.1712
    178  C         33.6450   13.6060   70.8370 C.2   375  ILE375      0.2458
    179  O         33.4420   14.7130   71.3510 O.2   375  ILE375     -0.2730
    180  CB        33.5980   13.2720   68.2330 C.3   375  ILE375      0.0289
    181  CG1       33.9110   14.7390   67.8200 C.3   375  ILE375      0.0022
    182  CG2       32.8430   12.4710   67.1560 C.3   375  ILE375      0.0023
    183  CD1       35.0300   14.8730   66.9160 C.3   375  ILE375      0.0001
    184  N         34.4230   12.7010   71.4430 N.am  376  PRO376     -0.2727
    185  CA        34.9970   13.0070   72.7670 C.3   376  PRO376      0.1402
    186  C         36.0180   14.1080   72.9670 C.2   376  PRO376      0.2269
    187  O         36.8120   14.4300   72.0810 O.2   376  PRO376     -0.2865
    188  CB        35.5450   11.6480   73.2360 C.3   376  PRO376      0.0296
    189  CG        35.8220   10.9460   71.9840 C.3   376  PRO376      0.0237
    190  CD        34.6870   11.2980   71.0880 C.3   376  PRO376      0.0939
    191  N         15.6910   -3.8370   67.3050 N.3   451  ALA451     -0.1245
    192  CA        15.7980   -2.3920   67.5240 C.3   451  ALA451      0.1562
    193  C         14.4360   -1.8010   67.9360 C.2   451  ALA451      0.2260
    194  O         14.3970   -1.0200   68.8920 O.2   451  ALA451     -0.2867
    195  CB        16.3070   -1.6970   66.2500 C.3   451  ALA451      0.0290
    196  N         13.1110   -0.3480   71.5990 N.3   455  ALA455     -0.1245
    197  CA        12.4890    0.9640   71.7230 C.3   455  ALA455      0.1562
    198  C         11.1730    0.8680   72.4890 C.2   455  ALA455      0.2260
    199  O         10.9320    1.6840   73.3810 O.2   455  ALA455     -0.2867
    200  CB        12.2640    1.5690   70.3510 C.3   455  ALA455      0.0290
    201  N         11.8760    0.1370   76.2680 N.3   458  LYS458     -0.1245
    202  CA        12.3510    1.3790   76.8780 C.3   458  LYS458      0.1561
    203  C         11.1430    2.2870   77.1910 C.2   458  LYS458      0.2260
    204  O         11.0930    2.9680   78.2200 O.2   458  LYS458     -0.2867
    205  CB        13.2590    2.1120   75.8720 C.3   458  LYS458      0.0271
    206  CG        14.7280    2.1020   76.2050 C.3   458  LYS458      0.0035
    207  CD        15.5350    2.8040   75.1250 C.3   458  LYS458      0.0206
    208  CE        15.6790    4.2980   75.2860 C.3   458  LYS458      0.1093
    209  NZ        16.3380    4.8770   74.0790 N.3   458  LYS458     -0.1314
@<TRIPOS>BOND
     1    39    38    2
     2    38    37    1
     3    37    40    1
     4    37    36    1
     5    40    41    1
     6    43    42    1
     7    36    30   am
     8    41    42    1
     9    85    86    2
    10    85    84    1
    11    31    30    2
    12    30    29    1
    13    23    22    2
    14    84    83    1
    15    84    87    1
    16    77    76    2
    17    28    29    1
    18    29    32    1
    19    22    21    1
    20    76    83   am
    21    76    75    1
    22    87    88    1
    23    75    78    1
    24    75    74    1
    25    32    33    1
    26    80    81    1
    27    80    79    1
    28    78    79    1
    29    21    24    1
    30    21    20    1
    31    82    81    1
    32    24    25    1
    33    88    89    1
    34    74    67   am
    35    90    89   ar
    36    27    26    1
    37    33    35    1
    38    33    34    1
    39    89    91   ar
    40    25    26    1
    41    67    68    2
    42    67    66    1
    43    15    17   ar
    44    15    14   ar
    45    13    14    1
    46    13    10    1
    47    17    19   ar
    48    60    61    1
    49    14    16   ar
    50    19    18   ar
    51    16    18   ar
    52    65    66    1
    53    65    62   am
    54    66    69    1
    55    62    61    1
    56    62    63    2
    57    56    55    2
    58    11    10    1
    59    11    12    2
    60    61    64    1
    61    55    54    1
    62    69    70    1
    63    10     9    1
    64    70    71    1
    65    73    71   am
    66    71    72    2
    67     9     3   am
    68    51    50   ar
    69    54    53    1
    70    54    57    1
    71    44    45    1
    72     3     4    2
    73     3     2    1
    74    50    49    1
    75    50    52   ar
    76    48    49    1
    77    48    45    1
    78    57    59    1
    79    57    58    1
    80    45    46    1
    81    46    47    2
    82   108   109    1
    83   108   105    1
    84   110   109   ar
    85   110   112   ar
    86     2     1    1
    87     2     5    1
    88   109   111   ar
    89   112   113   ar
    90   111   113   ar
    91   127   124    1
    92     5     6    1
    93   107   106    2
    94   106   105    1
    95   105   104    1
    96     7     6   ar
    97     6     8   ar
    98   124   125    1
    99   124   123    1
   100   126   125    2
   101   104    94   am
   102   123   116   am
   103    92    93    1
   104    94    93    1
   105    94    95    2
   106   195   192    1
   107   116   117    2
   108   116   115    1
   109    93    96    1
   110    96    97    1
   111   183   181    1
   112    99    97   ar
   113    99   101   ar
   114   182   180    1
   115   191   192    1
   116   118   115    1
   117   118   119    1
   118   114   115    1
   119   192   193    1
   120    97    98   ar
   121   101   102   ar
   122   181   180    1
   123   193   194    2
   124   180   177    1
   125   119   120    1
   126    98   100   ar
   127   102   100   ar
   128   102   103    1
   129   177   176    1
   130   177   178    1
   131   122   120   ar
   132   176   173   am
   133   120   121   ar
   134   200   197    1
   135   172   173    1
   136   172   175    1
   137   172   171    1
   138   173   174    2
   139   163   162    2
   140   178   179    2
   141   178   184   am
   142   153   152   ar
   143   190   184    1
   144   190   189    1
   145   184   185    1
   146   196   197    1
   147   137   134    1
   148   132   129    1
   149   197   198    1
   150   171   162   am
   151   162   161    1
   152   189   188    1
   153   187   186    2
   154   152   154   ar
   155   152   151    1
   156   149   148    2
   157   198   199    2
   158   133   134    1
   159   133   130   am
   160   134   135    1
   161   158   157    2
   162   185   186    1
   163   185   188    1
   164   129   128    1
   165   129   130    1
   166   161   160    1
   167   161   164    1
   168   130   131    2
   169   157   160   am
   170   157   156    1
   171   151   150    1
   172   148   147    1
   173   148   155   am
   174   156   155    1
   175   156   159    1
   176   135   136    2
   177   209   208    1
   178   147   150    1
   179   147   146    1
   180   164   165    1
   181   207   208    1
   182   207   206    1
   183   165   167   ar
   184   165   166   ar
   185   167   169   ar
   186   205   206    1
   187   205   202    1
   188   141   140    2
   189   201   202    1
   190   166   168   ar
   191   138   139    1
   192   144   143    1
   193   142   143    1
   194   142   139    1
   195   202   203    1
   196   143   145    1
   197   169   170   ar
   198   140   139    1
   199   203   204    2
   200   168   170   ar
