@<TRIPOS>MOLECULE
tmp/4r3uA02.pdb
 149 140 0 0 0
SMALL
GASTEIGER

@<TRIPOS>ATOM
      1  N         39.6150    5.5690   69.8700 N.3    89  ILE89      -0.1231
      2  CA        39.2980    6.2300   68.5930 C.3    89  ILE89       0.1692
      3  C         39.6410    7.7210   68.7070 C.2    89  ILE89       0.2592
      4  O         39.3630    8.3550   69.7280 O.2    89  ILE89      -0.2718
      5  CB        37.7980    6.0690   68.1830 C.3    89  ILE89       0.0266
      6  CG1       37.3410    4.6310   67.9780 C.3    89  ILE89       0.0019
      7  CG2       37.4680    6.9310   67.0220 C.3    89  ILE89       0.0020
      8  CD1       35.8920    4.4360   68.4680 C.3    89  ILE89       0.0001
      9  N         40.2240    8.2630   67.6420 N.am   90  ALA90      -0.1966
     10  CA        40.5770    9.6720   67.4790 C.3    90  ALA90       0.1728
     11  C         40.2620   10.0370   66.0160 C.2    90  ALA90       0.2617
     12  O         40.5980    9.2740   65.0990 O.2    90  ALA90      -0.2715
     13  CB        42.0610    9.8930   67.7770 C.3    90  ALA90       0.0334
     14  N         39.6010   11.1770   65.8190 N.am   91  GLY91      -0.1940
     15  CA        39.2800   11.6300   64.4790 C.3    91  GLY91       0.2014
     16  C         38.4560   12.8880   64.4600 C.2    91  GLY91       0.2638
     17  O         37.3460   12.9110   64.9840 O.2    91  GLY91      -0.2714
     18  N         39.0110   13.9500   63.8670 N.am   92  PHE92      -0.1973
     19  CA        38.3980   15.2660   63.6560 C.3    92  PHE92       0.1639
     20  C         39.3520   16.1630   62.8900 C.2    92  PHE92       0.2290
     21  O         40.5720   15.9890   62.9680 O.2    92  PHE92      -0.2864
     22  CB        37.9240   15.9440   64.9550 C.3    92  PHE92       0.0560
     23  CG        38.9830   16.1740   66.0060 C.ar   92  PHE92      -0.0200
     24  CD1       39.2250   15.2220   66.9910 C.ar   92  PHE92      -0.0042
     25  CD2       39.7000   17.3660   66.0480 C.ar   92  PHE92      -0.0042
     26  CE1       40.2090   15.4320   67.9540 C.ar   92  PHE92      -0.0003
     27  CE2       40.6580   17.5880   67.0300 C.ar   92  PHE92      -0.0003
     28  CZ        40.9110   16.6190   67.9720 C.ar   92  PHE92      -0.0000
     29  N         45.6990   14.7470   68.9510 N.3   101  ARG101     -0.1245
     30  CA        44.9240   13.8220   69.8010 C.3   101  ARG101      0.1563
     31  C         45.6310   12.4580   69.9650 C.2   101  ARG101      0.2260
     32  O         45.6290   11.9380   71.0740 O.2   101  ARG101     -0.2867
     33  CB        43.4840   13.6330   69.2800 C.3   101  ARG101      0.0307
     34  CG        42.5560   12.8170   70.2010 C.3   101  ARG101      0.0489
     35  CD        42.3430   13.4170   71.5910 C.3   101  ARG101      0.2205
     36  NE        41.4800   14.5860   71.5080 N.pl3 101  ARG101     -0.0865
     37  CZ        40.1680   14.5480   71.6840 C.cat 101  ARG101      0.5346
     38  NH1       39.4480   15.6420   71.5430 N.pl3 101  ARG101      0.1354
     39  NH2       39.5550   13.3940   71.9180 N.pl3 101  ARG101      0.1354
     40  N         39.1610    7.3100   63.2960 N.3   116  ASP116     -0.1239
     41  CA        37.8400    7.4930   62.7140 C.3   116  ASP116      0.1674
     42  C         37.8670    8.6280   61.7330 C.2   116  ASP116      0.2266
     43  O         38.4560    9.6720   61.9920 O.2   116  ASP116     -0.2867
     44  CB        36.7370    7.6770   63.7580 C.3   116  ASP116      0.1410
     45  CG        36.1620    6.3240   64.1380 C.2   116  ASP116      0.3668
     46  OD1       36.9290    5.3250   64.0910 O.co2 116  ASP116     -0.2456
     47  OD2       34.9640    6.2770   64.5660 O.co2 116  ASP116     -0.2456
     48  N         32.8190   14.5840   61.6890 N.3   139  GLU139     -0.1231
     49  CA        32.5990   13.3140   62.4110 C.3   139  GLU139      0.1699
     50  C         33.8390   12.4130   62.5590 C.2   139  GLU139      0.2592
     51  O         33.7870   11.3840   63.2380 O.2   139  GLU139     -0.2718
     52  CB        31.4270   12.5480   61.7670 C.3   139  GLU139      0.0402
     53  CG        30.0880   13.2710   61.8560 C.3   139  GLU139      0.1161
     54  CD        28.8950   12.3510   61.7540 C.2   139  GLU139      0.3649
     55  OE1       28.5760   11.8980   60.6310 O.co2 139  GLU139     -0.2457
     56  OE2       28.2820   12.0700   62.8070 O.co2 139  GLU139     -0.2457
     57  N         34.9390   12.8370   61.9500 N.am  140  GLY140     -0.1957
     58  CA        36.2240   12.1630   61.9460 C.3   140  GLY140      0.1869
     59  C         37.2300   12.9480   61.1350 C.2   140  GLY140      0.2309
     60  O         36.9160   14.0440   60.6670 O.2   140  GLY140     -0.2863
     61  N         30.0410   -5.2910   65.9880 N.3   243  TYR243     -0.1241
     62  CA        29.7540   -4.0490   66.6840 C.3   243  TYR243      0.1605
     63  C         28.5780   -3.2410   66.0790 C.2   243  TYR243      0.2264
     64  O         27.6240   -2.8830   66.7830 O.2   243  TYR243     -0.2867
     65  CB        31.0280   -3.1710   66.7970 C.3   243  TYR243      0.0534
     66  CG        30.7990   -1.9000   67.6010 C.ar  243  TYR243     -0.0201
     67  CD1       30.8660   -1.9090   68.9950 C.ar  243  TYR243     -0.0009
     68  CD2       30.4370   -0.7080   66.9730 C.ar  243  TYR243     -0.0009
     69  CE1       30.5590   -0.7740   69.7450 C.ar  243  TYR243      0.0417
     70  CE2       30.1390    0.4390   67.7120 C.ar  243  TYR243      0.0417
     71  CZ        30.1990    0.4030   69.1000 C.ar  243  TYR243      0.1957
     72  OH        29.9140    1.5340   69.8390 O.3   243  TYR243     -0.2866
     73  N         24.9040   -2.2930   67.3600 N.3   247  GLU247     -0.1245
     74  CA        24.5870   -0.8670   67.4610 C.3   247  GLU247      0.1567
     75  C         23.4500   -0.3980   66.5270 C.2   247  GLU247      0.2260
     76  O         22.7690    0.5940   66.8440 O.2   247  GLU247     -0.2867
     77  CB        25.8550   -0.0290   67.3400 C.3   247  GLU247      0.0388
     78  CG        26.7780   -0.2110   68.5290 C.3   247  GLU247      0.1160
     79  CD        26.4270    0.6100   69.7500 C.2   247  GLU247      0.3649
     80  OE1       26.2540    0.0140   70.8370 O.co2 247  GLU247     -0.2457
     81  OE2       26.2900    1.8470   69.6130 O.co2 247  GLU247     -0.2457
     82  N         34.7040   -2.7910   71.5580 N.3   331  GLN331     -0.1245
     83  CA        34.3070   -1.4450   71.9240 C.3   331  GLN331      0.1566
     84  C         33.1120   -1.6330   72.8080 C.2   331  GLN331      0.2260
     85  O         32.2840   -2.5050   72.5350 O.2   331  GLN331     -0.2867
     86  CB        33.9720   -0.5800   70.6980 C.3   331  GLN331      0.0367
     87  CG        33.6920    0.8940   71.0450 C.3   331  GLN331      0.0905
     88  CD        33.4870    1.7730   69.8310 C.2   331  GLN331      0.2608
     89  OE1       33.8010    1.4220   68.6910 O.2   331  GLN331     -0.2717
     90  NE2       32.9950    2.9610   70.0510 N.am  331  GLN331     -0.0878
     91  N         28.0500    1.8820   73.0370 N.3   334  ALA334     -0.1245
     92  CA        27.7200    3.2980   72.9730 C.3   334  ALA334      0.1562
     93  C         26.1600    3.4850   73.0800 C.2   334  ALA334      0.2260
     94  O         25.6910    4.4380   73.7190 O.2   334  ALA334     -0.2867
     95  CB        28.2270    3.8220   71.6700 C.3   334  ALA334      0.0290
     96  N         38.4730   -0.3490   73.0610 N.3   365  HIS365     -0.1241
     97  CA        38.1220    1.0470   73.1080 C.3   365  HIS365      0.1621
     98  C         37.0000    1.1440   74.1740 C.2   365  HIS365      0.2264
     99  O         35.9560    0.4770   74.0690 O.2   365  HIS365     -0.2867
    100  CB        37.5750    1.5590   71.7570 C.3   365  HIS365      0.0745
    101  CG        37.0100    2.9610   71.8310 C.ar  365  HIS365      0.0817
    102  ND1       37.7720    4.0750   71.4840 N.ar  365  HIS365     -0.2268
    103  CD2       35.7850    3.3820   72.2290 C.ar  365  HIS365      0.1154
    104  CE1       37.0000    5.1230   71.7110 C.ar  365  HIS365      0.1986
    105  NE2       35.7880    4.7580   72.1320 N.ar  365  HIS365     -0.2212
    106  N         34.2320    3.8140   75.7360 N.3   367  ASN367     -0.1225
    107  CA        33.5950    5.0570   75.3220 C.3   367  ASN367      0.1785
    108  C         33.7520    6.1500   76.3640 C.2   367  ASN367      0.2597
    109  O         34.0620    5.8360   77.5170 O.2   367  ASN367     -0.2718
    110  CB        32.1170    4.8390   74.9800 C.3   367  ASN367      0.1169
    111  CG        31.8920    3.8300   73.9080 C.2   367  ASN367      0.2627
    112  OD1       32.6630    3.7200   72.9530 O.2   367  ASN367     -0.2716
    113  ND2       30.8440    3.0340   74.0760 N.am  367  ASN367     -0.0877
    114  N         33.5800    7.4080   75.9310 N.am  368  GLY368     -0.1957
    115  CA        33.6210    8.5860   76.7810 C.3   368  GLY368      0.1869
    116  C         32.2500    8.7850   77.4140 C.2   368  GLY368      0.2309
    117  O         31.2320    8.3440   76.8510 O.2   368  GLY368     -0.2863
    118  N         29.3920   10.4090   75.2610 N.3   371  GLU371     -0.1245
    119  CA        28.9490    9.6480   74.0920 C.3   371  GLU371      0.1567
    120  C         27.6610   10.1510   73.4290 C.2   371  GLU371      0.2260
    121  O         27.6080   10.2590   72.2100 O.2   371  GLU371     -0.2867
    122  CB        28.8530    8.1480   74.4430 C.3   371  GLU371      0.0388
    123  CG        28.5050    7.2310   73.2790 C.3   371  GLU371      0.1160
    124  CD        29.4850    7.0850   72.1330 C.2   371  GLU371      0.3649
    125  OE1       28.9990    6.8310   71.0110 O.co2 371  GLU371     -0.2457
    126  OE2       30.7170    7.1600   72.3480 O.co2 371  GLU371     -0.2457
    127  N         31.5520   13.9110   69.6190 N.3   375  ILE375     -0.1231
    128  CA        32.8380   13.2000   69.5820 C.3   375  ILE375      0.1678
    129  C         33.6450   13.6060   70.8370 C.2   375  ILE375      0.2434
    130  O         33.4420   14.7130   71.3510 O.2   375  ILE375     -0.2733
    131  CB        33.5980   13.2720   68.2330 C.3   375  ILE375      0.0265
    132  CG1       33.9110   14.7390   67.8200 C.3   375  ILE375      0.0019
    133  CG2       32.8430   12.4710   67.1560 C.3   375  ILE375      0.0020
    134  CD1       35.0300   14.8730   66.9160 C.3   375  ILE375      0.0001
    135  N         34.4230   12.7010   71.4430 N.am  376  PRO376     -0.2729
    136  CA        34.9970   13.0070   72.7670 C.3   376  PRO376      0.1401
    137  C         36.0180   14.1080   72.9670 C.2   376  PRO376      0.2269
    138  O         36.8120   14.4300   72.0810 O.2   376  PRO376     -0.2865
    139  CB        35.5450   11.6480   73.2360 C.3   376  PRO376      0.0296
    140  CG        35.8220   10.9460   71.9840 C.3   376  PRO376      0.0237
    141  CD        34.6870   11.2980   71.0880 C.3   376  PRO376      0.0939
    142  N         38.2220   10.9280   77.1020 N.3   381  MET381     -0.1245
    143  CA        39.1230    9.8750   76.6460 C.3   381  MET381      0.1570
    144  C         40.0850    9.4540   77.7100 C.2   381  MET381      0.2261
    145  O         40.3030    8.2570   77.8860 O.2   381  MET381     -0.2867
    146  CB        39.8250   10.2420   75.3290 C.3   381  MET381      0.0387
    147  CG        38.8980   10.1810   74.1080 C.3   381  MET381      0.0595
    148  SD        38.2350    8.5200   73.7100 S.3   381  MET381     -0.1393
    149  CE        36.6770    8.5000   74.6350 C.3   381  MET381      0.0692
@<TRIPOS>BOND
     1    55    54   ar
     2    60    59    2
     3    59    58    1
     4    48    49    1
     5    42    43    2
     6    42    41    1
     7    54    53    1
     8    54    56   ar
     9    52    53    1
    10    52    49    1
    11    58    57    1
    12    57    50   am
    13    49    50    1
    14    50    51    2
    15    41    40    1
    16    41    44    1
    17    20    21    2
    18    20    19    1
    19    19    18    1
    20    19    22    1
    21    44    45    1
    22    18    16   am
    23    46    45   ar
    24    45    47   ar
    25    16    15    1
    26    16    17    2
    27    15    14    1
    28    22    23    1
    29    12    11    2
    30    14    11   am
    31    61    62    1
    32    23    25   ar
    33    23    24   ar
    34    11    10    1
    35    25    27   ar
    36    63    62    1
    37    63    64    2
    38    75    76    2
    39    75    74    1
    40    62    65    1
    41    65    66    1
    42   134   132    1
    43    68    66   ar
    44    68    70   ar
    45    24    26   ar
    46     7     5    1
    47    27    28   ar
    48   133   131    1
    49    77    74    1
    50    77    78    1
    51    73    74    1
    52    10     9    1
    53    10    13    1
    54    66    67   ar
    55     9     3   am
    56    70    71   ar
    57   132   131    1
    58    26    28   ar
    59     6     5    1
    60     6     8    1
    61     5     2    1
    62   131   128    1
    63    78    79    1
    64     2     3    1
    65     2     1    1
    66    89    88    2
    67     3     4    2
    68    29    30    1
    69    67    69   ar
    70    71    69   ar
    71    71    72    1
    72    33    30    1
    73    33    34    1
    74   128   127    1
    75   128   129    1
    76    81    79   ar
    77    79    80   ar
    78    30    31    1
    79    88    90   am
    80    88    87    1
    81    31    32    2
    82    34    35    1
    83    86    87    1
    84    86    83    1
    85   129   130    2
    86   129   135   am
    87   125   124   ar
    88   141   135    1
    89   141   140    1
    90   135   136    1
    91   102   104   ar
    92   102   101   ar
    93    36    35    1
    94    36    37    2
    95    38    37    1
    96    82    83    1
    97    95    92    1
    98    37    39    1
    99   104   105   ar
   100   100   101    1
   101   100    97    1
   102   101   103   ar
   103    83    84    1
   104   140   139    1
   105   138   137    2
   106   105   103   ar
   107   124   126   ar
   108   124   123    1
   109   121   120    2
   110    85    84    2
   111   136   137    1
   112   136   139    1
   113   112   111    2
   114    92    91    1
   115    92    93    1
   116    96    97    1
   117    93    94    2
   118    97    98    1
   119   123   122    1
   120   120   119    1
   121   148   147    1
   122   148   149    1
   123   111   113   am
   124   111   110    1
   125    99    98    2
   126   119   122    1
   127   119   118    1
   128   147   146    1
   129   110   107    1
   130   107   106    1
   131   107   108    1
   132   146   143    1
   133   114   108   am
   134   114   115    1
   135   108   109    2
   136   143   142    1
   137   143   144    1
   138   115   116    1
   139   117   116    2
   140   144   145    2
