@<TRIPOS>MOLECULE
tmp/4r3uB02.pdb
 209 200 0 0 0
SMALL
GASTEIGER

@<TRIPOS>ATOM
      1  N         15.6920   33.5850   15.8490 N.3   116  ASP116     -0.1225
      2  CA        16.4720   33.7470   17.0660 C.3   116  ASP116      0.1805
      3  C         15.8650   34.8640   17.9000 C.2   116  ASP116      0.2597
      4  O         15.4300   35.8860   17.3720 O.2   116  ASP116     -0.2718
      5  CB        17.9640   33.9570   16.7970 C.3   116  ASP116      0.1424
      6  CG        18.7800   32.6720   16.8380 C.2   116  ASP116      0.3668
      7  OD1       18.1950   31.5900   16.6420 O.co2 116  ASP116     -0.2456
      8  OD2       20.0160   32.7610   16.9470 O.co2 116  ASP116     -0.2456
      9  N         15.7730   34.6200   19.2010 N.am  117  PHE117     -0.1976
     10  CA        15.1310   35.5240   20.1320 C.3   117  PHE117      0.1639
     11  C         16.1300   36.2310   21.0240 C.2   117  PHE117      0.2290
     12  O         17.2730   35.7770   21.1570 O.2   117  PHE117     -0.2864
     13  CB        14.0790   34.7470   20.9510 C.3   117  PHE117      0.0560
     14  CG        13.0630   34.0490   20.0740 C.ar  117  PHE117     -0.0200
     15  CD1       11.9110   34.7070   19.6610 C.ar  117  PHE117     -0.0042
     16  CD2       13.2850   32.7530   19.6180 C.ar  117  PHE117     -0.0042
     17  CE1       11.0070   34.0900   18.7930 C.ar  117  PHE117     -0.0003
     18  CE2       12.3870   32.1420   18.7430 C.ar  117  PHE117     -0.0003
     19  CZ        11.2460   32.8090   18.3470 C.ar  117  PHE117     -0.0000
     20  N         17.5940   37.8450   24.6870 N.3   119  MET119     -0.1245
     21  CA        17.8110   37.2830   26.0160 C.3   119  MET119      0.1570
     22  C         16.5810   37.3520   26.8980 C.2   119  MET119      0.2261
     23  O         16.2350   36.3090   27.4360 O.2   119  MET119     -0.2867
     24  CB        19.0470   37.8700   26.6770 C.3   119  MET119      0.0387
     25  CG        20.2740   37.6500   25.8740 C.3   119  MET119      0.0595
     26  SD        20.5170   35.9410   25.4300 S.3   119  MET119     -0.1393
     27  CE        21.8640   35.7640   26.2680 C.3   119  MET119      0.0692
     28  N         14.2980   34.5240   25.6890 N.3   122  LEU122     -0.1231
     29  CA        14.9750   33.2430   25.9270 C.3   122  LEU122      0.1693
     30  C         14.9340   32.8610   27.4020 C.2   122  LEU122      0.2591
     31  O         14.7660   31.6760   27.7300 O.2   122  LEU122     -0.2718
     32  CB        16.4360   33.3080   25.4410 C.3   122  LEU122      0.0284
     33  CG        16.6590   33.3310   23.9070 C.3   122  LEU122      0.0019
     34  CD1       18.1290   33.6010   23.5640 C.3   122  LEU122      0.0001
     35  CD2       16.1500   32.0470   23.2330 C.3   122  LEU122      0.0001
     36  N         15.0650   33.8780   28.2830 N.am  123  MET123     -0.1979
     37  CA        15.0870   33.7420   29.7350 C.3   123  MET123      0.1605
     38  C         13.7070   33.8170   30.4180 C.2   123  MET123      0.2287
     39  O         13.6160   33.6750   31.6440 O.2   123  MET123     -0.2864
     40  CB        16.0980   34.7210   30.3490 C.3   123  MET123      0.0413
     41  CG        17.5080   34.5410   29.8340 C.3   123  MET123      0.0598
     42  SD        18.1110   32.8460   29.8680 S.3   123  MET123     -0.1393
     43  CE        19.6220   33.1500   30.4770 C.3   123  MET123      0.0692
     44  N         20.0330   40.7590   20.7720 N.3   139  GLU139     -0.1245
     45  CA        20.6140   39.4920   20.3160 C.3   139  GLU139      0.1567
     46  C         19.6780   38.5900   19.5050 C.2   139  GLU139      0.2260
     47  O         20.1130   37.5650   18.9630 O.2   139  GLU139     -0.2867
     48  CB        21.2390   38.7330   21.4930 C.3   139  GLU139      0.0388
     49  CG        22.3900   39.4550   22.1830 C.3   139  GLU139      0.1160
     50  CD        23.3200   38.5240   22.9350 C.2   139  GLU139      0.3649
     51  OE1       22.9500   38.0570   24.0360 O.co2 139  GLU139     -0.2457
     52  OE2       24.4200   38.2460   22.4120 O.co2 139  GLU139     -0.2457
     53  N         14.1370   29.1950   17.6500 N.3   166  THR166     -0.1218
     54  CA        15.2070   28.8190   18.5640 C.3   166  THR166      0.1862
     55  C         14.8170   29.3220   19.9580 C.2   166  THR166      0.2287
     56  O         15.3350   30.3410   20.4510 O.2   166  THR166     -0.2866
     57  CB        16.5260   29.3640   18.0900 C.3   166  THR166      0.1770
     58  OG1       16.6510   29.1450   16.6820 O.3   166  THR166     -0.2211
     59  CG2       17.6930   28.8130   18.8780 C.3   166  THR166      0.0375
     60  N         25.0210   23.0240   28.3130 N.3   206  ALA206     -0.1231
     61  CA        25.7340   23.9580   27.4790 C.3   206  ALA206      0.1694
     62  C         25.1560   25.3510   27.1770 C.2   206  ALA206      0.2592
     63  O         25.9270   26.3050   27.2550 O.2   206  ALA206     -0.2718
     64  CB        26.0880   23.2590   26.1790 C.3   206  ALA206      0.0304
     65  N         23.8890   25.4840   26.7150 N.am  207  GLN207     -0.1966
     66  CA        23.4170   26.8110   26.2880 C.3   207  GLN207      0.1733
     67  C         23.0690   27.8170   27.3930 C.2   207  GLN207      0.2616
     68  O         23.1330   29.0340   27.1740 O.2   207  GLN207     -0.2715
     69  CB        22.4140   26.7350   25.1230 C.3   207  GLN207      0.0408
     70  CG        21.9880   28.0990   24.6210 C.3   207  GLN207      0.0908
     71  CD        21.4040   28.0960   23.2570 C.2   207  GLN207      0.2608
     72  OE1       21.9070   28.7740   22.3740 O.2   207  GLN207     -0.2717
     73  NE2       20.3210   27.3670   23.0640 N.am  207  GLN207     -0.0878
     74  N         22.7860   27.2970   28.5990 N.am  208  LYS208     -0.1963
     75  CA        22.5430   28.0590   29.8230 C.3   208  LYS208      0.1728
     76  C         21.2710   28.9290   29.8750 C.2   208  LYS208      0.2616
     77  O         21.2230   29.9130   30.6370 O.2   208  LYS208     -0.2715
     78  CB        23.8300   28.7810   30.3040 C.3   208  LYS208      0.0311
     79  CG        25.0990   27.9300   30.2250 C.3   208  LYS208      0.0038
     80  CD        25.0850   26.7500   31.1910 C.3   208  LYS208      0.0206
     81  CE        26.3420   25.9170   31.1090 C.3   208  LYS208      0.1093
     82  NZ        27.2330   26.1210   32.2840 N.3   208  LYS208     -0.1314
     83  N         20.2180   28.5110   29.1320 N.am  209  GLU209     -0.1977
     84  CA        18.9180   29.1870   29.1500 C.3   209  GLU209      0.1602
     85  C         17.9740   28.3100   29.9440 C.2   209  GLU209      0.2287
     86  O         17.5710   27.2560   29.4750 O.2   209  GLU209     -0.2864
     87  CB        18.3640   29.4210   27.7380 C.3   209  GLU209      0.0415
     88  CG        19.3230   30.1480   26.8120 C.3   209  GLU209      0.1163
     89  CD        18.9230   30.1600   25.3530 C.2   209  GLU209      0.3649
     90  OE1       17.8460   29.6150   25.0150 O.co2 209  GLU209     -0.2457
     91  OE2       19.7050   30.7000   24.5400 O.co2 209  GLU209     -0.2457
     92  N         24.7890   20.8960   18.7600 N.3   243  TYR243     -0.1227
     93  CA        25.4270   22.1410   18.3380 C.3   243  TYR243      0.1736
     94  C         26.0430   22.9450   19.5030 C.2   243  TYR243      0.2595
     95  O         27.2310   23.2940   19.4630 O.2   243  TYR243     -0.2718
     96  CB        24.4470   23.0140   17.5250 C.3   243  TYR243      0.0548
     97  CG        25.0870   24.2800   16.9940 C.ar  243  TYR243     -0.0200
     98  CD1       25.8060   24.2750   15.8030 C.ar  243  TYR243     -0.0009
     99  CD2       25.0270   25.4720   17.7150 C.ar  243  TYR243     -0.0009
    100  CE1       26.4800   25.4140   15.3570 C.ar  243  TYR243      0.0417
    101  CE2       25.6860   26.6180   17.2740 C.ar  243  TYR243      0.0417
    102  CZ        26.4080   26.5870   16.0910 C.ar  243  TYR243      0.1957
    103  OH        27.0580   27.7160   15.6460 O.3   243  TYR243     -0.2866
    104  N         25.2200   23.2390   20.5280 N.am  244  HIS244     -0.1975
    105  CA        25.5820   24.0470   21.6790 C.3   244  HIS244      0.1656
    106  C         26.6040   23.3570   22.5570 C.2   244  HIS244      0.2291
    107  O         27.4340   24.0380   23.1680 O.2   244  HIS244     -0.2864
    108  CB        24.3220   24.4140   22.4650 C.3   244  HIS244      0.0771
    109  CG        23.1700   24.7850   21.5780 C.ar  244  HIS244      0.0820
    110  ND1       22.3210   23.8240   21.0590 N.ar  244  HIS244     -0.2267
    111  CD2       22.7920   25.9960   21.1090 C.ar  244  HIS244      0.1154
    112  CE1       21.4420   24.4870   20.3280 C.ar  244  HIS244      0.1986
    113  NE2       21.6820   25.7960   20.3360 N.ar  244  HIS244     -0.2212
    114  N         29.7940   23.8950   20.5250 N.3   247  GLU247     -0.1231
    115  CA        30.1200   25.3120   20.6240 C.3   247  GLU247      0.1699
    116  C         30.5280   25.7760   22.0320 C.2   247  GLU247      0.2592
    117  O         31.2650   26.7620   22.1490 O.2   247  GLU247     -0.2718
    118  CB        29.0060   26.1540   20.0170 C.3   247  GLU247      0.0402
    119  CG        28.9120   25.9760   18.5070 C.3   247  GLU247      0.1161
    120  CD        29.8890   26.8080   17.7060 C.2   247  GLU247      0.3649
    121  OE1       30.6500   26.2120   16.9100 O.co2 247  GLU247     -0.2457
    122  OE2       29.9160   28.0480   17.8980 O.co2 247  GLU247     -0.2457
    123  N         30.0930   25.0300   23.0920 N.am  248  ALA248     -0.1980
    124  CA        30.4980   25.2570   24.4830 C.3   248  ALA248      0.1597
    125  C         31.9390   24.7480   24.6850 C.2   248  ALA248      0.2287
    126  O         32.5140   24.9400   25.7530 O.2   248  ALA248     -0.2864
    127  CB        29.5470   24.5630   25.4400 C.3   248  ALA248      0.0319
    128  N         30.4140   28.0840   14.0910 N.3   334  ALA334     -0.1231
    129  CA        30.6520   29.4990   14.3440 C.3   334  ALA334      0.1694
    130  C         31.9690   29.6920   15.1250 C.2   334  ALA334      0.2591
    131  O         32.7010   30.6500   14.8630 O.2   334  ALA334     -0.2718
    132  CB        29.4910   30.0410   15.1370 C.3   334  ALA334      0.0304
    133  N         32.3060   28.7430   16.0320 N.am  335  ALA335     -0.1980
    134  CA        33.5470   28.7970   16.8290 C.3   335  ALA335      0.1597
    135  C         34.8570   28.7200   15.9950 C.2   335  ALA335      0.2287
    136  O         35.9150   29.1070   16.4930 O.2   335  ALA335     -0.2864
    137  CB        33.5320   27.7410   17.9320 C.3   335  ALA335      0.0319
    138  N         35.2490   30.3550   13.0540 N.3   337  LEU337     -0.1245
    139  CA        35.3070   31.6180   12.3300 C.3   337  LEU337      0.1561
    140  C         36.0380   32.7070   13.1240 C.2   337  LEU337      0.2260
    141  O         35.9570   32.7480   14.3530 O.2   337  LEU337     -0.2867
    142  CB        33.8940   32.0500   11.8780 C.3   337  LEU337      0.0270
    143  CG        33.0300   30.9920   11.1410 C.3   337  LEU337      0.0019
    144  CD1       31.7450   31.5960   10.6320 C.3   337  LEU337      0.0001
    145  CD2       33.7520   30.3990    9.9690 C.3   337  LEU337      0.0001
    146  N         30.5430   36.6480   11.5360 N.3   371  GLU371     -0.1231
    147  CA        30.2490   35.8800   12.7490 C.3   371  GLU371      0.1699
    148  C         30.9410   36.3820   14.0200 C.2   371  GLU371      0.2592
    149  O         30.2850   36.5040   15.0510 O.2   371  GLU371     -0.2718
    150  CB        30.5180   34.3770   12.5170 C.3   371  GLU371      0.0402
    151  CG        30.1540   33.4510   13.6740 C.3   371  GLU371      0.1161
    152  CD        28.6880   33.3040   14.0580 C.2   371  GLU371      0.3649
    153  OE1       27.8000   33.6200   13.2320 O.co2 371  GLU371     -0.2457
    154  OE2       28.4270   32.8430   15.1930 O.co2 371  GLU371     -0.2457
    155  N         32.2390   36.6960   13.9460 N.am  372  ALA372     -0.1966
    156  CA        32.9820   37.1330   15.1270 C.3   372  ALA372      0.1728
    157  C         32.7840   38.6020   15.5310 C.2   372  ALA372      0.2616
    158  O         33.2860   39.0190   16.5700 O.2   372  ALA372     -0.2715
    159  CB        34.4520   36.7940   14.9740 C.3   372  ALA372      0.0334
    160  N         32.0090   39.3620   14.7570 N.am  373  PHE373     -0.1960
    161  CA        31.7360   40.7720   15.0360 C.3   373  PHE373      0.1771
    162  C         30.3540   41.0130   15.6350 C.2   373  PHE373      0.2619
    163  O         30.2540   41.5970   16.7110 O.2   373  PHE373     -0.2715
    164  CB        31.8570   41.6050   13.7600 C.3   373  PHE373      0.0574
    165  CG        33.2220   41.6740   13.1360 C.ar  373  PHE373     -0.0200
    166  CD1       33.7060   40.6200   12.3670 C.ar  373  PHE373     -0.0042
    167  CD2       33.9850   42.8320   13.2240 C.ar  373  PHE373     -0.0042
    168  CE1       34.9650   40.6880   11.7730 C.ar  373  PHE373     -0.0003
    169  CE2       35.2370   42.9090   12.6130 C.ar  373  PHE373     -0.0003
    170  CZ        35.7140   41.8380   11.8800 C.ar  373  PHE373     -0.0000
    171  N         29.2840   40.6430   14.9070 N.am  374  ALA374     -0.1963
    172  CA        27.9010   40.9280   15.3190 C.3   374  ALA374      0.1728
    173  C         26.9050   40.0250   14.6110 C.2   374  ALA374      0.2616
    174  O         27.2910   39.2920   13.6890 O.2   374  ALA374     -0.2715
    175  CB        27.5680   42.3860   14.9770 C.3   374  ALA374      0.0334
    176  N         25.6000   40.1440   14.9810 N.am  375  ILE375     -0.1964
    177  CA        24.5370   39.4210   14.2810 C.3   375  ILE375      0.1712
    178  C         24.5750   39.8250   12.7780 C.2   375  ILE375      0.2458
    179  O         25.0060   40.9370   12.4640 O.2   375  ILE375     -0.2730
    180  CB        23.1410   39.4930   14.9640 C.3   375  ILE375      0.0289
    181  CG1       22.6330   40.9330   15.1230 C.3   375  ILE375      0.0022
    182  CG2       23.1430   38.7100   16.2820 C.3   375  ILE375      0.0023
    183  CD1       21.1690   41.0310   15.2050 C.3   375  ILE375      0.0001
    184  N         24.3160   38.9030   11.8340 N.am  376  PRO376     -0.2727
    185  CA        24.5670   39.2160   10.4150 C.3   376  PRO376      0.1402
    186  C         23.8130   40.3090    9.6820 C.2   376  PRO376      0.2269
    187  O         22.6590   40.6270    9.9800 O.2   376  PRO376     -0.2865
    188  CB        24.3860   37.8620    9.7240 C.3   376  PRO376      0.0296
    189  CG        23.4590   37.1470   10.5900 C.3   376  PRO376      0.0237
    190  CD        23.8990   37.4970   11.9750 C.3   376  PRO376      0.0939
    191  N         37.4000   22.3420   25.7870 N.3   451  ALA451     -0.1245
    192  CA        37.4340   23.7930   25.5370 C.3   451  ALA451      0.1562
    193  C         38.7830   24.3940   25.9640 C.2   451  ALA451      0.2260
    194  O         39.3510   25.1810   25.1950 O.2   451  ALA451     -0.2867
    195  CB        36.2970   24.4870   26.2800 C.3   451  ALA451      0.0290
    196  N         41.9300   25.8590   23.6770 N.3   455  ALA455     -0.1245
    197  CA        42.5220   27.1670   23.9370 C.3   455  ALA455      0.1562
    198  C         44.0420   27.0650   24.0500 C.2   455  ALA455      0.2260
    199  O         44.7490   27.8850   23.4500 O.2   455  ALA455     -0.2867
    200  CB        41.9370   27.7710   25.2020 C.3   455  ALA455      0.0290
    201  N         45.6000   26.3360   20.5430 N.3   458  LYS458     -0.1245
    202  CA        45.5600   27.5820   19.7740 C.3   458  LYS458      0.1561
    203  C         46.7360   28.4700   20.2040 C.2   458  LYS458      0.2260
    204  O         47.3570   29.1340   19.3760 O.2   458  LYS458     -0.2867
    205  CB        44.2540   28.3230   20.0900 C.3   458  LYS458      0.0271
    206  CG        43.2270   28.3230   18.9810 C.3   458  LYS458      0.0035
    207  CD        41.9520   29.0540   19.4170 C.3   458  LYS458      0.0206
    208  CE        41.9890   30.5570   19.1990 C.3   458  LYS458      0.1093
    209  NZ        40.8650   31.2390   19.8970 N.3   458  LYS458     -0.1314
@<TRIPOS>BOND
     1   186   187    2
     2   186   185    1
     3   188   185    1
     4   188   189    1
     5   145   143    1
     6   185   184    1
     7   189   190    1
     8   144   143    1
     9   143   142    1
    10   146   147    1
    11   168   170   ar
    12   168   166   ar
    13   184   190    1
    14   184   178   am
    15   142   139    1
    16   170   169   ar
    17   139   138    1
    18   139   140    1
    19   166   165   ar
    20   179   178    2
    21   150   147    1
    22   150   151    1
    23   169   167   ar
    24   147   148    1
    25   178   177    1
    26   140   141    2
    27   165   167   ar
    28   165   164    1
    29   153   152   ar
    30   151   152    1
    31   174   173    2
    32   164   161    1
    33   155   148   am
    34   155   156    1
    35   148   149    2
    36   152   154   ar
    37   128   129    1
    38   177   180    1
    39   177   176    1
    40   129   130    1
    41   129   132    1
    42   173   176   am
    43   173   172    1
    44   160   161    1
    45   160   157   am
    46   131   130    2
    47   171   172    1
    48   171   162   am
    49   180   181    1
    50   180   182    1
    51   159   156    1
    52   175   172    1
    53   161   162    1
    54   181   183    1
    55   130   133   am
    56   156   157    1
    57   100    98   ar
    58   100   102   ar
    59   157   158    2
    60   162   163    2
    61   103   102    1
    62    98    97   ar
    63     1     2    1
    64   135   136    2
    65   135   134    1
    66   133   134    1
    67   102   101   ar
    68     7     6   ar
    69    58    57    1
    70     5     6    1
    71     5     2    1
    72   134   137    1
    73     6     8   ar
    74   121   120   ar
    75    97    96    1
    76    97    99   ar
    77     2     3    1
    78   101    99   ar
    79     4     3    2
    80    96    93    1
    81    53    54    1
    82   120   122   ar
    83   120   119    1
    84     3     9   am
    85    57    54    1
    86    57    59    1
    87    93    92    1
    88    93    94    1
    89    19    18   ar
    90    19    17   ar
    91   119   118    1
    92    54    55    1
    93    18    16   ar
    94    17    15   ar
    95    47    46    2
    96   206   207    1
    97   206   205    1
    98   208   207    1
    99   208   209    1
   100     9    10    1
   101   204   203    2
   102    95    94    2
   103    94   104   am
   104    46    45    1
   105    16    14   ar
   106    15    14   ar
   107   202   205    1
   108   202   203    1
   109   202   201    1
   110    55    56    2
   111   118   115    1
   112    14    13    1
   113    10    13    1
   114    10    11    1
   115    45    44    1
   116    45    48    1
   117   112   113   ar
   118   112   110   ar
   119   113   111   ar
   120   114   115    1
   121   104   105    1
   122   115   116    1
   123    11    12    2
   124   110   109   ar
   125   111   109   ar
   126    48    49    1
   127   109   108    1
   128   105   108    1
   129   105   106    1
   130   116   117    2
   131   116   123   am
   132    49    50    1
   133    72    71    2
   134    52    50   ar
   135   106   107    2
   136    50    51   ar
   137    73    71   am
   138   123   124    1
   139    35    33    1
   140    71    70    1
   141   199   198    2
   142    34    33    1
   143   196   197    1
   144    33    32    1
   145   197   198    1
   146   197   200    1
   147   124   125    1
   148   124   127    1
   149    91    89   ar
   150    70    69    1
   151   125   126    2
   152    20    21    1
   153    90    89   ar
   154    69    66    1
   155   194   193    2
   156    89    88    1
   157    26    25    1
   158    26    27    1
   159    32    29    1
   160   192   191    1
   161   192   193    1
   162   192   195    1
   163    28    29    1
   164    25    24    1
   165    29    30    1
   166    21    24    1
   167    21    22    1
   168    64    61    1
   169    66    65    1
   170    66    67    1
   171    65    62   am
   172    88    87    1
   173    22    23    2
   174    68    67    2
   175    62    63    2
   176    62    61    1
   177    67    74   am
   178    30    31    2
   179    30    36   am
   180    61    60    1
   181    87    84    1
   182    36    37    1
   183    74    75    1
   184    83    84    1
   185    83    76   am
   186    84    85    1
   187    86    85    2
   188    37    40    1
   189    37    38    1
   190    75    76    1
   191    75    78    1
   192    41    42    1
   193    41    40    1
   194    42    43    1
   195    76    77    2
   196    79    78    1
   197    79    80    1
   198    38    39    2
   199    81    80    1
   200    81    82    1
