@<TRIPOS>MOLECULE
tmp/4r3wB00.pdb
 119 111 0 0 0
SMALL
GASTEIGER

@<TRIPOS>ATOM
      1  N         28.0440  -24.0260  -27.5950 N.3     7  VAL7       -0.1231
      2  CA        28.4900  -24.8320  -26.4600 C.3     7  VAL7        0.1692
      3  C         27.5750  -24.6040  -25.2590 C.2     7  VAL7        0.2592
      4  O         27.4660  -23.4810  -24.7320 O.2     7  VAL7       -0.2718
      5  CB        29.9310  -24.4960  -26.0640 C.3     7  VAL7        0.0266
      6  CG1       30.3950  -25.3770  -24.9110 C.3     7  VAL7        0.0020
      7  CG2       30.8540  -24.6400  -27.2670 C.3     7  VAL7        0.0020
      8  N         26.9310  -25.6850  -24.8290 N.am    8  GLY8       -0.1957
      9  CA        25.8980  -25.6300  -23.8000 C.3     8  GLY8        0.1869
     10  C         24.5380  -25.3670  -24.4140 C.2     8  GLY8        0.2309
     11  O         23.7770  -24.5540  -23.8960 O.2     8  GLY8       -0.2863
     12  N         21.8460  -27.1330  -24.6390 N.3    10  THR10      -0.1203
     13  CA        20.7020  -27.7540  -23.9570 C.3    10  THR10       0.1994
     14  C         20.1250  -26.8860  -22.8320 C.2    10  THR10       0.2618
     15  O         18.9630  -27.0560  -22.4510 O.2    10  THR10      -0.2717
     16  CB        21.1090  -29.1180  -23.3380 C.3    10  THR10       0.1784
     17  OG1       22.3850  -29.0040  -22.6880 O.3    10  THR10      -0.2211
     18  CG2       21.1950  -30.1900  -24.4120 C.3    10  THR10       0.0376
     19  N         20.9490  -25.9790  -22.3020 N.am   11  GLY11      -0.1942
     20  CA        20.5780  -25.1110  -21.1760 C.3    11  GLY11       0.2014
     21  C         19.5780  -23.9980  -21.4690 C.2    11  GLY11       0.2638
     22  O         19.0970  -23.8450  -22.6010 O.2    11  GLY11      -0.2714
     23  N         19.2700  -23.2200  -20.4310 N.am   12  ALA12      -0.1977
     24  CA        18.3030  -22.1150  -20.5320 C.3    12  ALA12       0.1597
     25  C         18.7770  -21.0570  -21.5390 C.2    12  ALA12       0.2287
     26  O         18.0230  -20.6240  -22.4250 O.2    12  ALA12      -0.2864
     27  CB        18.0940  -21.4830  -19.1660 C.3    12  ALA12       0.0319
     28  N         27.4130  -29.9980  -25.8670 N.3    35  ALA35      -0.1231
     29  CA        26.9820  -30.0280  -24.4670 C.3    35  ALA35       0.1694
     30  C         27.8860  -30.9770  -23.6730 C.2    35  ALA35       0.2592
     31  O         29.0530  -31.1430  -24.0300 O.2    35  ALA35      -0.2718
     32  CB        25.5170  -30.4340  -24.3730 C.3    35  ALA35       0.0304
     33  N         27.3680  -31.5750  -22.5950 N.am   36  SER36      -0.1952
     34  CA        28.1580  -32.5160  -21.7890 C.3    36  SER36       0.1924
     35  C         28.0340  -33.9570  -22.2920 C.2    36  SER36       0.2314
     36  O         27.1600  -34.2930  -23.1110 O.2    36  SER36      -0.2863
     37  CB        27.7770  -32.4350  -20.2980 C.3    36  SER36       0.2116
     38  OG        26.6150  -33.1920  -20.0050 O.3    36  SER36      -0.2180
     39  N         26.6310  -36.4560  -21.2600 N.3    38  ARG38      -0.1231
     40  CA        25.3210  -37.1280  -21.1830 C.3    38  ARG38       0.1694
     41  C         24.1810  -36.4810  -21.9820 C.2    38  ARG38       0.2592
     42  O         23.0710  -37.0140  -22.0060 O.2    38  ARG38      -0.2718
     43  CB        24.9040  -37.3720  -19.7240 C.3    38  ARG38       0.0321
     44  CG        24.7330  -36.1480  -18.8460 C.3    38  ARG38       0.0489
     45  CD        24.4660  -36.5920  -17.4140 C.3    38  ARG38       0.2205
     46  NE        23.9900  -35.5030  -16.5670 N.pl3  38  ARG38      -0.0865
     47  CZ        23.6240  -35.6410  -15.2960 C.cat  38  ARG38       0.5346
     48  NH1       23.6700  -36.8330  -14.7040 N.pl3  38  ARG38       0.1354
     49  NH2       23.2080  -34.5760  -14.6130 N.pl3  38  ARG38       0.1354
     50  N         24.4480  -35.3500  -22.6340 N.am   39  SER39      -0.1952
     51  CA        23.5600  -34.8390  -23.6930 C.3    39  SER39       0.1924
     52  C         24.0040  -35.3690  -25.0740 C.2    39  SER39       0.2314
     53  O         23.1930  -35.4800  -26.0090 O.2    39  SER39      -0.2863
     54  CB        23.5460  -33.3020  -23.6950 C.3    39  SER39       0.2116
     55  OG        22.8630  -32.7640  -22.5700 O.3    39  SER39      -0.2180
     56  N         31.4460  -31.9690  -25.7420 N.3    56  THR56      -0.1218
     57  CA        32.4420  -30.9270  -25.8130 C.3    56  THR56       0.1862
     58  C         33.7970  -31.5050  -25.4110 C.2    56  THR56       0.2287
     59  O         33.9970  -31.8840  -24.2570 O.2    56  THR56      -0.2866
     60  CB        32.0590  -29.7660  -24.8770 C.3    56  THR56       0.1770
     61  OG1       30.6900  -29.4070  -25.1080 O.3    56  THR56      -0.2211
     62  CG2       32.9650  -28.5520  -25.0980 C.3    56  THR56       0.0375
     63  N         28.0710  -20.9240  -23.6530 N.3    70  SER70      -0.1202
     64  CA        27.1740  -20.6920  -22.5260 C.3    70  SER70       0.2020
     65  C         26.9540  -21.9640  -21.6920 C.2    70  SER70       0.2618
     66  O         25.8930  -22.6040  -21.7540 O.2    70  SER70      -0.2717
     67  CB        25.8450  -20.1360  -23.0100 C.3    70  SER70       0.2103
     68  OG        25.0600  -19.7590  -21.8960 O.3    70  SER70      -0.2182
     69  N         27.9740  -22.3070  -20.9080 N.am   71  ALA71      -0.1979
     70  CA        27.9470  -23.5070  -20.0760 C.3    71  ALA71       0.1597
     71  C         28.8020  -23.3610  -18.8040 C.2    71  ALA71       0.2287
     72  O         29.4610  -24.3110  -18.3730 O.2    71  ALA71      -0.2864
     73  CB        28.4090  -24.7040  -20.9040 C.3    71  ALA71       0.0319
     74  N         33.5300  -23.0420  -15.6050 N.3    74  SER74      -0.1202
     75  CA        34.2390  -24.3190  -15.7060 C.3    74  SER74       0.2020
     76  C         34.5110  -24.7350  -17.1500 C.2    74  SER74       0.2619
     77  O         35.6610  -24.9210  -17.5480 O.2    74  SER74      -0.2717
     78  CB        33.4350  -25.4160  -14.9850 C.3    74  SER74       0.2103
     79  OG        33.5190  -26.6610  -15.6620 O.3    74  SER74      -0.2182
     80  N         33.4450  -24.8820  -17.9250 N.am   75  THR75      -0.1952
     81  CA        33.5510  -25.2600  -19.3310 C.3    75  THR75       0.1897
     82  C         34.3870  -24.2800  -20.1610 C.2    75  THR75       0.2313
     83  O         35.1420  -24.6930  -21.0420 O.2    75  THR75      -0.2863
     84  CB        32.1520  -25.3570  -19.9680 C.3    75  THR75       0.1794
     85  OG1       31.3560  -26.2950  -19.2330 O.3    75  THR75      -0.2208
     86  CG2       32.2360  -25.8010  -21.4300 C.3    75  THR75       0.0378
     87  N         38.0760  -25.2900  -22.1820 N.3    79  TYR79      -0.1241
     88  CA        37.9590  -25.5860  -23.6240 C.3    79  TYR79       0.1605
     89  C         38.0600  -24.3910  -24.5840 C.2    79  TYR79       0.2264
     90  O         38.2670  -24.5790  -25.7810 O.2    79  TYR79      -0.2867
     91  CB        36.6350  -26.3010  -23.8920 C.3    79  TYR79       0.0534
     92  CG        36.4930  -27.6170  -23.1690 C.ar   79  TYR79      -0.0201
     93  CD1       36.7080  -28.8240  -23.8260 C.ar   79  TYR79      -0.0009
     94  CD2       36.1410  -27.6570  -21.8200 C.ar   79  TYR79      -0.0009
     95  CE1       36.5750  -30.0320  -23.1610 C.ar   79  TYR79       0.0417
     96  CE2       36.0090  -28.8560  -21.1480 C.ar   79  TYR79       0.0417
     97  CZ        36.2250  -30.0380  -21.8220 C.ar   79  TYR79       0.1957
     98  OH        36.0910  -31.2230  -21.1500 O.3    79  TYR79      -0.2866
     99  N         19.7460  -18.2840  -13.2230 N.3   159  ALA159     -0.1231
    100  CA        20.4770  -19.3340  -12.5050 C.3   159  ALA159      0.1694
    101  C         20.3320  -20.7200  -13.1410 C.2   159  ALA159      0.2593
    102  O         20.7890  -21.7060  -12.5610 O.2   159  ALA159     -0.2718
    103  CB        20.0360  -19.3820  -11.0490 C.3   159  ALA159      0.0304
    104  N         19.7050  -20.8040  -14.3130 N.am  160  GLY160     -0.1942
    105  CA        19.6350  -22.0590  -15.0700 C.3   160  GLY160      0.2014
    106  C         18.2360  -22.6350  -15.1520 C.2   160  GLY160      0.2639
    107  O         17.3380  -22.2080  -14.4400 O.2   160  GLY160     -0.2714
    108  N         18.0540  -23.6140  -16.0330 N.am  161  MET161     -0.1963
    109  CA        16.7750  -24.2920  -16.1870 C.3   161  MET161      0.1736
    110  C         16.3640  -24.9970  -14.8650 C.2   161  MET161      0.2617
    111  O         15.1830  -25.0350  -14.5080 O.2   161  MET161     -0.2715
    112  CB        16.8610  -25.2790  -17.3650 C.3   161  MET161      0.0427
    113  CG        15.5530  -25.9550  -17.7690 C.3   161  MET161      0.0599
    114  SD        14.2230  -24.8790  -18.3570 S.3   161  MET161     -0.1393
    115  CE        15.0230  -24.0370  -19.7200 C.3   161  MET161      0.0692
    116  N         17.3440  -25.5280  -14.1380 N.am  162  GLY162     -0.1955
    117  CA        17.0790  -26.1610  -12.8480 C.3   162  GLY162      0.1869
    118  C         16.4380  -25.2000  -11.8520 C.2   162  GLY162      0.2309
    119  O         15.5480  -25.6000  -11.0920 O.2   162  GLY162     -0.2863
@<TRIPOS>BOND
     1     1     2    1
     2     7     5    1
     3     2     5    1
     4     2     3    1
     5     5     6    1
     6    53    52    2
     7    28    29    1
     8    57    56    1
     9    57    58    1
    10    57    60    1
    11    90    89    2
    12    58    59    2
    13     3     8   am
    14     3     4    2
    15    61    60    1
    16    62    60    1
    17    52    51    1
    18     8     9    1
    19    12    13    1
    20    89    88    1
    21    29    32    1
    22    29    30    1
    23    10    11    2
    24    10     9    1
    25    18    16    1
    26    31    30    2
    27    13    16    1
    28    13    14    1
    29    91    88    1
    30    91    92    1
    31    93    92   ar
    32    93    95   ar
    33    54    51    1
    34    54    55    1
    35    51    50    1
    36    30    33   am
    37    63    64    1
    38    88    87    1
    39    16    17    1
    40    92    94   ar
    41    95    97   ar
    42    36    35    2
    43    67    64    1
    44    67    68    1
    45    14    15    2
    46    14    19   am
    47    50    41   am
    48    22    21    2
    49    33    34    1
    50    64    65    1
    51    26    25    2
    52    19    20    1
    53    35    34    1
    54    42    41    2
    55    41    40    1
    56    97    98    1
    57    97    96   ar
    58    94    96   ar
    59    34    37    1
    60    66    65    2
    61    65    69   am
    62    25    24    1
    63    21    20    1
    64    21    23   am
    65    86    84    1
    66    39    40    1
    67    40    43    1
    68    83    82    2
    69    69    70    1
    70    73    70    1
    71    24    23    1
    72    24    27    1
    73    37    38    1
    74    82    81    1
    75    70    71    1
    76    84    81    1
    77    84    85    1
    78    43    44    1
    79   115   114    1
    80    81    80    1
    81    44    45    1
    82    71    72    2
    83   114   113    1
    84    80    76   am
    85   113   112    1
    86    77    76    2
    87    45    46    1
    88   112   109    1
    89    76    75    1
    90    46    47    2
    91   109   108    1
    92   109   110    1
    93   108   106   am
    94    75    74    1
    95    75    78    1
    96    79    78    1
    97    47    48    1
    98    47    49    1
    99   106   105    1
   100   106   107    2
   101   105   104    1
   102   110   111    2
   103   110   116   am
   104   104   101   am
   105   116   117    1
   106    99   100    1
   107   101   102    2
   108   101   100    1
   109   117   118    1
   110   100   103    1
   111   118   119    2
