@<TRIPOS>MOLECULE
tmp/4r41A00.pdb
 109 99 0 0 0
SMALL
GASTEIGER

@<TRIPOS>ATOM
      1  N         -5.3520   -6.6330    7.8650 N.3    13  VAL13      -0.1245
      2  CA        -4.7370   -6.0080    9.0640 C.3    13  VAL13       0.1561
      3  C         -5.5940   -6.3280   10.2920 C.2    13  VAL13       0.2260
      4  O         -5.0590   -6.7270   11.3340 O.2    13  VAL13      -0.2867
      5  CB        -4.5380   -4.4710    8.9210 C.3    13  VAL13       0.0252
      6  CG1       -4.0870   -3.8540   10.2500 C.3    13  VAL13       0.0019
      7  CG2       -3.5280   -4.1330    7.8220 C.3    13  VAL13       0.0019
      8  N         -8.2260    0.0970   11.1530 N.3    70  SER70      -0.1202
      9  CA        -7.5160   -0.4590   10.0030 C.3    70  SER70       0.2020
     10  C         -8.5080   -0.8020    8.8920 C.2    70  SER70       0.2619
     11  O         -8.5670   -1.9440    8.4050 O.2    70  SER70      -0.2717
     12  CB        -6.6800   -1.6640   10.4130 C.3    70  SER70       0.2103
     13  OG        -7.5190   -2.7010   10.8840 O.3    70  SER70      -0.2182
     14  N         -9.2830    0.2050    8.4990 N.am   71  ALA71      -0.1965
     15  CA       -10.3480    0.0280    7.5260 C.3    71  ALA71       0.1728
     16  C        -10.2360    0.9840    6.3340 C.2    71  ALA71       0.2617
     17  O        -11.2400    1.2480    5.6610 O.2    71  ALA71      -0.2715
     18  CB       -11.7100    0.1650    8.2220 C.3    71  ALA71       0.0334
     19  N         -9.0310    1.5120    6.0880 N.am   72  GLY72      -0.1940
     20  CA        -8.7970    2.3960    4.9450 C.3    72  GLY72       0.2014
     21  C         -8.9580    3.8500    5.3360 C.2    72  GLY72       0.2639
     22  O         -9.7940    4.1920    6.1860 O.2    72  GLY72      -0.2714
     23  N         -8.1550    4.7080    4.7090 N.am   73  SER73      -0.1949
     24  CA        -8.2030    6.1540    4.9610 C.3    73  SER73       0.1924
     25  C         -9.6000    6.7660    4.9900 C.2    73  SER73       0.2314
     26  O         -9.8870    7.5930    5.8460 O.2    73  SER73      -0.2863
     27  CB        -7.3430    6.9040    3.9380 C.3    73  SER73       0.2116
     28  OG        -5.9910    6.8880    4.3450 O.3    73  SER73      -0.2180
     29  N         -4.1520    3.2060   11.7710 N.3    93  ASN93      -0.1225
     30  CA        -3.1460    2.6430   10.8320 C.3    93  ASN93       0.1785
     31  C         -3.0610    3.3270    9.4680 C.2    93  ASN93       0.2598
     32  O         -2.0820    3.1130    8.7230 O.2    93  ASN93      -0.2718
     33  CB        -3.4100    1.1700   10.5750 C.3    93  ASN93       0.1169
     34  CG        -2.8550    0.2930   11.6610 C.2    93  ASN93       0.2627
     35  OD1       -1.6360    0.0530   11.7630 O.2    93  ASN93      -0.2716
     36  ND2       -3.7410   -0.1940   12.4800 N.am   93  ASN93      -0.0877
     37  N         -4.0650    4.1370    9.1300 N.am   94  THR94      -0.1939
     38  CA        -4.1820    4.6440    7.7560 C.3    94  THR94       0.2028
     39  C         -3.3010    5.8740    7.5190 C.2    94  THR94       0.2642
     40  O         -2.7360    6.4340    8.4510 O.2    94  THR94      -0.2714
     41  CB        -5.6380    4.9700    7.3440 C.3    94  THR94       0.1808
     42  OG1       -6.0040    6.2380    7.8850 O.3    94  THR94      -0.2208
     43  CG2       -6.6360    3.8860    7.7960 C.3    94  THR94       0.0379
     44  N         -3.1960    6.3020    6.2650 N.am   95  SER95      -0.1949
     45  CA        -2.3850    7.4810    5.9560 C.3    95  SER95       0.1924
     46  C         -3.0620    8.8100    6.3300 C.2    95  SER95       0.2314
     47  O         -2.4010    9.8520    6.3460 O.2    95  SER95      -0.2863
     48  CB        -2.0160    7.4660    4.4660 C.3    95  SER95       0.2116
     49  OG        -3.1900    7.6580    3.7020 O.3    95  SER95      -0.2180
     50  N         -1.6790   11.2050    9.2190 N.3    98  ARG98      -0.1245
     51  CA        -0.2730   11.0630    9.5760 C.3    98  ARG98       0.1563
     52  C          0.4980   12.3760    9.6080 C.2    98  ARG98       0.2260
     53  O          1.4110   12.5240   10.4200 O.2    98  ARG98      -0.2867
     54  CB         0.4420   10.1130    8.6140 C.3    98  ARG98       0.0307
     55  CG        -0.0020    8.6690    8.7620 C.3    98  ARG98       0.0489
     56  CD         0.9820    7.7480    8.0340 C.3    98  ARG98       0.2205
     57  NE         0.4720    6.3780    8.0410 N.pl3  98  ARG98      -0.0865
     58  CZ         0.3610    5.5970    6.9780 C.cat  98  ARG98       0.5346
     59  NH1        0.8170    6.0000    5.7900 N.pl3  98  ARG98       0.1354
     60  NH2       -0.1750    4.3740    7.1250 N.pl3  98  ARG98       0.1354
     61  N          3.2400    4.2480    7.7470 N.3   126  ASN126     -0.1225
     62  CA         3.1320    3.2480    6.7100 C.3   126  ASN126      0.1785
     63  C          4.0570    2.0670    7.0330 C.2   126  ASN126      0.2597
     64  O          5.1340    2.2660    7.6060 O.2   126  ASN126     -0.2718
     65  CB         3.5510    3.9060    5.3920 C.3   126  ASN126      0.1169
     66  CG         3.6840    2.9200    4.2810 C.2   126  ASN126      0.2627
     67  OD1        4.7750    2.4440    4.0100 O.2   126  ASN126     -0.2716
     68  ND2        2.5610    2.5610    3.6600 N.am  126  ASN126     -0.0877
     69  N          3.6500    0.8540    6.6420 N.am  127  CYS127     -0.1970
     70  CA         4.3980   -0.3730    6.9890 C.3   127  CYS127      0.1712
     71  C          5.8800   -0.3340    6.5630 C.2   127  CYS127      0.2296
     72  O          6.8010   -0.7240    7.3280 O.2   127  CYS127     -0.2864
     73  CB         3.7000   -1.6060    6.3580 C.3   127  CYS127      0.0983
     74  SG         3.1760   -1.3590    4.6400 S.3   127  CYS127     -0.0798
     75  N         -0.3610   -5.9830    2.1710 N.3   158  GLY158     -0.1225
     76  CA        -0.5100   -4.5640    2.4190 C.3   158  GLY158      0.1811
     77  C         -1.6360   -3.9290    1.6270 C.2   158  GLY158      0.2280
     78  O         -2.1380   -2.8810    2.0240 O.2   158  GLY158     -0.2866
     79  N          0.3400    2.4900   -4.3440 N.3   209  ASP209     -0.1239
     80  CA        -0.5760    3.6370   -4.2290 C.3   209  ASP209      0.1674
     81  C         -0.6580    4.3280   -5.5900 C.2   209  ASP209      0.2266
     82  O         -0.1860    3.7770   -6.5760 O.2   209  ASP209     -0.2867
     83  CB        -0.1380    4.5970   -3.0930 C.3   209  ASP209      0.1410
     84  CG        -1.3210    5.2630   -2.3880 C.2   209  ASP209      0.3668
     85  OD1       -2.1670    5.9060   -3.0660 O.co2 209  ASP209     -0.2456
     86  OD2       -1.3860    5.1520   -1.1360 O.co2 209  ASP209     -0.2456
     87  N          3.0950    6.1660   -2.0260 N.3   219  GLU219     -0.1245
     88  CA         3.8580    5.2940   -1.1400 C.3   219  GLU219      0.1567
     89  C          5.2740    5.8140   -0.9430 C.2   219  GLU219      0.2260
     90  O          5.7750    5.8520    0.1920 O.2   219  GLU219     -0.2867
     91  CB         3.8970    3.8470   -1.6600 C.3   219  GLU219      0.0388
     92  CG         4.4360    2.8560   -0.6310 C.3   219  GLU219      0.1160
     93  CD         3.3490    2.3660    0.3300 C.2   219  GLU219      0.3649
     94  OE1        2.2920    3.0390    0.4160 O.co2 219  GLU219     -0.2457
     95  OE2        3.5450    1.2920    0.9790 O.co2 219  GLU219     -0.2457
     96  N          5.0870    8.9810    1.1610 N.3   222  LYS222     -0.1245
     97  CA         4.8760    8.5690    2.5740 C.3   222  LYS222      0.1561
     98  C          6.2030    8.2690    3.2670 C.2   222  LYS222      0.2260
     99  O          6.4730    8.7840    4.3580 O.2   222  LYS222     -0.2867
    100  CB         3.9350    7.3550    2.6920 C.3   222  LYS222      0.0271
    101  CG         2.4850    7.6050    2.3140 C.3   222  LYS222      0.0035
    102  CD         1.7490    6.2560    2.3070 C.3   222  LYS222      0.0206
    103  CE         0.5080    6.2740    1.4380 C.3   222  LYS222      0.1093
    104  NZ         0.1950    4.8690    1.0610 N.3   222  LYS222     -0.1314
    105  N          2.0660   -2.9430   10.8680 N.3   329  ALA329     -0.1245
    106  CA         0.6790   -2.4990   11.0630 C.3   329  ALA329      0.1562
    107  C          0.1220   -2.8430   12.4560 C.2   329  ALA329      0.2260
    108  O          0.1990   -2.0200   13.3730 O.2   329  ALA329     -0.2867
    109  CB        -0.2330   -3.0180    9.9440 C.3   329  ALA329      0.0290
@<TRIPOS>BOND
     1    82    81    2
     2    81    80    1
     3    79    80    1
     4    80    83    1
     5    83    84    1
     6    85    84   ar
     7    84    86   ar
     8    87    88    1
     9    91    88    1
    10    91    92    1
    11    88    89    1
    12    89    90    2
    13    92    93    1
    14    93    94   ar
    15    93    95   ar
    16   104   103    1
    17    96    97    1
    18   103   102    1
    19    77    78    2
    20    77    76    1
    21    75    76    1
    22   102   101    1
    23   101   100    1
    24    97   100    1
    25    97    98    1
    26    98    99    2
    27    68    66   am
    28    49    48    1
    29    27    28    1
    30    27    24    1
    31    67    66    2
    32    66    65    1
    33    48    45    1
    34    74    73    1
    35    23    24    1
    36    23    21   am
    37    20    21    1
    38    20    19    1
    39    24    25    1
    40    25    26    2
    41    21    22    2
    42    65    62    1
    43    17    16    2
    44    59    58    1
    45    45    44    1
    46    45    46    1
    47    19    16   am
    48    44    39   am
    49    46    47    2
    50    16    15    1
    51    73    70    1
    52    71    70    1
    53    71    72    2
    54    69    70    1
    55    69    63   am
    56    62    63    1
    57    62    61    1
    58    58    60    1
    59    58    57    2
    60    63    64    2
    61    41    38    1
    62    41    43    1
    63    41    42    1
    64    39    38    1
    65    39    40    2
    66    15    18    1
    67    15    14    1
    68    38    37    1
    69     7     5    1
    70     1     2    1
    71    56    57    1
    72    56    55    1
    73    11    10    2
    74    14    10   am
    75    54    55    1
    76    54    51    1
    77    32    31    2
    78    10     9    1
    79     5     2    1
    80     5     6    1
    81     2     3    1
    82    37    31   am
    83    50    51    1
    84    31    30    1
    85    51    52    1
    86    52    53    2
    87   109   106    1
    88     9    12    1
    89     9     8    1
    90     3     4    2
    91    12    13    1
    92    33    30    1
    93    33    34    1
    94    30    29    1
    95   105   106    1
    96   106   107    1
    97    34    35    2
    98    34    36   am
    99   107   108    2
