@<TRIPOS>MOLECULE
tmp/4r42A01.pdb
 81 78 0 0 0
SMALL
GASTEIGER

@<TRIPOS>ATOM
      1  N          3.5730   25.1830  -25.0890 N.3    18  ASN18      -0.1240
      2  CA         4.5140   24.0790  -25.2380 C.3    18  ASN18       0.1653
      3  C          4.4560   23.2750  -23.9440 C.2    18  ASN18       0.2266
      4  O          5.1660   23.5760  -22.9790 O.2    18  ASN18      -0.2867
      5  CB         5.9270   24.5780  -25.5180 C.3    18  ASN18       0.1155
      6  CG         6.8640   23.4590  -25.9300 C.2    18  ASN18       0.2627
      7  OD1        6.9250   22.4080  -25.2910 O.2    18  ASN18      -0.2716
      8  ND2        7.5890   23.6760  -27.0120 N.am   18  ASN18      -0.0877
      9  N          5.2910   20.1720  -23.1800 N.3    20  ARG20      -0.1231
     10  CA         6.4910   19.4170  -22.8140 C.3    20  ARG20       0.1694
     11  C          7.4610   20.3370  -22.0840 C.2    20  ARG20       0.2592
     12  O          8.0720   19.9440  -21.0850 O.2    20  ARG20      -0.2718
     13  CB         7.1570   18.7920  -24.0300 C.3    20  ARG20       0.0321
     14  CG         6.3570   17.6560  -24.6330 C.3    20  ARG20       0.0489
     15  CD         7.0880   16.9980  -25.8160 C.3    20  ARG20       0.2205
     16  NE         7.0740   15.5400  -25.7100 N.pl3  20  ARG20      -0.0865
     17  CZ         8.1180   14.7800  -25.3780 C.cat  20  ARG20       0.5346
     18  NH1        9.3110   15.3120  -25.1260 N.pl3  20  ARG20       0.1354
     19  NH2        7.9690   13.4640  -25.3080 N.pl3  20  ARG20       0.1354
     20  N          7.5910   21.5740  -22.5580 N.am   21  PHE21      -0.1976
     21  CA         8.4030   22.5350  -21.8370 C.3    21  PHE21       0.1639
     22  C          7.8010   22.8260  -20.4690 C.2    21  PHE21       0.2290
     23  O          8.5330   22.9170  -19.4840 O.2    21  PHE21      -0.2864
     24  CB         8.5770   23.8490  -22.6020 C.3    21  PHE21       0.0560
     25  CG         9.5140   24.7940  -21.9130 C.ar   21  PHE21      -0.0200
     26  CD1       10.8870   24.5690  -21.9500 C.ar   21  PHE21      -0.0042
     27  CD2        9.0300   25.8610  -21.1740 C.ar   21  PHE21      -0.0042
     28  CE1       11.7560   25.4190  -21.2980 C.ar   21  PHE21      -0.0003
     29  CE2        9.8980   26.7190  -20.5080 C.ar   21  PHE21      -0.0003
     30  CZ        11.2620   26.4940  -20.5770 C.ar   21  PHE21      -0.0000
     31  N          6.3180   20.9130  -18.5660 N.3    23  GLN23      -0.1231
     32  CA         6.6660   19.8080  -17.6670 C.3    23  GLN23       0.1698
     33  C          8.0850   19.9800  -17.1280 C.2    23  GLN23       0.2592
     34  O          8.3320   19.7380  -15.9510 O.2    23  GLN23      -0.2718
     35  CB         6.5170   18.4530  -18.3590 C.3    23  GLN23       0.0381
     36  CG         6.9350   17.2950  -17.4470 C.3    23  GLN23       0.0905
     37  CD         6.3180   15.9500  -17.7880 C.2    23  GLN23       0.2608
     38  OE1        5.2590   15.8520  -18.4210 O.2    23  GLN23      -0.2717
     39  NE2        6.9710   14.8970  -17.3340 N.am   23  GLN23      -0.0878
     40  N          9.0210   20.3950  -17.9800 N.am   24  LEU24      -0.1980
     41  CA        10.3780   20.6900  -17.5130 C.3    24  LEU24       0.1596
     42  C         10.3700   21.8310  -16.5050 C.2    24  LEU24       0.2287
     43  O         11.0880   21.8060  -15.5100 O.2    24  LEU24      -0.2864
     44  CB        11.2960   21.0530  -18.6770 C.3    24  LEU24       0.0297
     45  CG        11.5550   19.9810  -19.7300 C.3    24  LEU24       0.0022
     46  CD1       12.5500   20.4830  -20.7530 C.3    24  LEU24       0.0001
     47  CD2       12.0580   18.6950  -19.0890 C.3    24  LEU24       0.0001
     48  N          1.3620   13.5810  -24.0560 N.3    91  SER91      -0.1202
     49  CA         2.5840   12.8850  -23.6690 C.3    91  SER91       0.2020
     50  C          3.0990   13.3430  -22.3070 C.2    91  SER91       0.2619
     51  O          4.0790   12.7980  -21.8020 O.2    91  SER91      -0.2717
     52  CB         3.6720   13.0840  -24.7270 C.3    91  SER91       0.2103
     53  OG         4.2600   14.3700  -24.6340 O.3    91  SER91      -0.2182
     54  N          2.4410   14.3360  -21.7130 N.am   92  THR92      -0.1952
     55  CA         2.9010   14.9070  -20.4530 C.3    92  THR92       0.1897
     56  C          2.0520   14.4650  -19.2800 C.2    92  THR92       0.2313
     57  O          0.9370   13.9810  -19.4540 O.2    92  THR92      -0.2863
     58  CB         2.8860   16.4510  -20.4910 C.3    92  THR92       0.1794
     59  OG1        1.5320   16.9160  -20.4920 O.3    92  THR92      -0.2208
     60  CG2        3.6200   16.9520  -21.7080 C.3    92  THR92       0.0378
     61  N         16.5410   25.4280  -23.2920 N.3   146  LEU146     -0.1231
     62  CA        15.4390   24.6860  -23.9080 C.3   146  LEU146      0.1693
     63  C         14.1950   25.5510  -24.1500 C.2   146  LEU146      0.2593
     64  O         13.1200   25.0270  -24.4200 O.2   146  LEU146     -0.2718
     65  CB        15.0720   23.4880  -23.0240 C.3   146  LEU146      0.0284
     66  CG        16.2320   22.5150  -22.7590 C.3   146  LEU146      0.0019
     67  CD1       15.9550   21.6690  -21.5220 C.3   146  LEU146      0.0001
     68  CD2       16.4610   21.6340  -23.9650 C.3   146  LEU146      0.0001
     69  N         14.3600   26.8700  -24.0590 N.am  147  SER147     -0.1939
     70  CA        13.2610   27.8370  -24.1990 C.3   147  SER147      0.2040
     71  C         12.4340   27.6340  -25.4610 C.2   147  SER147      0.2485
     72  O         12.9950   27.4960  -26.5450 O.2   147  SER147     -0.2729
     73  CB        13.8180   29.2730  -24.2170 C.3   147  SER147      0.2129
     74  OG        14.2180   29.6740  -22.9260 O.3   147  SER147     -0.2179
     75  N         11.0940   27.6460  -25.3370 N.am  148  PRO148     -0.2726
     76  CA        10.2210   27.4460  -26.5020 C.3   148  PRO148      0.1402
     77  C          9.9370   28.7140  -27.3150 C.2   148  PRO148      0.2269
     78  O          9.5650   28.6150  -28.4860 O.2   148  PRO148     -0.2865
     79  CB         8.9290   26.9290  -25.8650 C.3   148  PRO148      0.0296
     80  CG         8.8740   27.6280  -24.5720 C.3   148  PRO148      0.0237
     81  CD        10.3060   27.7000  -24.0880 C.3   148  PRO148      0.0939
@<TRIPOS>BOND
     1    78    77    2
     2    77    76    1
     3     8     6   am
     4    72    71    2
     5    76    79    1
     6    76    75    1
     7     6     5    1
     8     6     7    2
     9    79    80    1
    10    15    16    1
    11    15    14    1
    12    16    17    2
    13     5     2    1
    14    71    75   am
    15    71    70    1
    16    17    19    1
    17    17    18    1
    18    75    81    1
    19     2     1    1
    20     2     3    1
    21    52    53    1
    22    52    49    1
    23    14    13    1
    24    80    81    1
    25    64    63    2
    26    73    70    1
    27    73    74    1
    28    70    69    1
    29    63    69   am
    30    63    62    1
    31    48    49    1
    32    13    10    1
    33    68    66    1
    34     3     4    2
    35    62    61    1
    36    62    65    1
    37    49    50    1
    38     9    10    1
    39    65    66    1
    40    10    11    1
    41    66    67    1
    42    24    25    1
    43    24    21    1
    44    20    11   am
    45    20    21    1
    46    50    51    2
    47    50    54   am
    48    11    12    2
    49    26    25   ar
    50    26    28   ar
    51    25    27   ar
    52    21    22    1
    53    54    55    1
    54    60    58    1
    55    28    30   ar
    56    27    29   ar
    57    46    45    1
    58    30    29   ar
    59    59    58    1
    60    58    55    1
    61    22    23    2
    62    55    56    1
    63    45    47    1
    64    45    44    1
    65    57    56    2
    66    44    41    1
    67    31    32    1
    68    38    37    2
    69    35    32    1
    70    35    36    1
    71    40    41    1
    72    40    33   am
    73    37    36    1
    74    37    39   am
    75    32    33    1
    76    41    42    1
    77    33    34    2
    78    42    43    2
