@<TRIPOS>MOLECULE
tmp/4r43A02.pdb
 92 90 0 0 0
SMALL
GASTEIGER

@<TRIPOS>ATOM
      1  N        -28.3550    7.3810  -29.3300 N.3   257  ALA257     -0.1231
      2  CA       -28.0840    5.9710  -29.2990 C.3   257  ALA257      0.1694
      3  C        -28.6930    5.3080  -30.5360 C.2   257  ALA257      0.2592
      4  O        -29.8880    5.5100  -30.8610 O.2   257  ALA257     -0.2718
      5  CB       -28.6410    5.3520  -28.0000 C.3   257  ALA257      0.0304
      6  N        -27.8940    4.4750  -31.1590 N.am  258  TYR258     -0.1962
      7  CA       -28.3220    3.6010  -32.2830 C.3   258  TYR258      0.1771
      8  C        -28.0550    2.1360  -31.9300 C.2   258  TYR258      0.2619
      9  O        -26.9670    1.8020  -31.5560 O.2   258  TYR258     -0.2715
     10  CB       -27.6020    4.0000  -33.5330 C.3   258  TYR258      0.0574
     11  CG       -27.8280    5.4490  -33.9140 C.ar  258  TYR258     -0.0198
     12  CD1      -27.0320    6.4230  -33.4070 C.ar  258  TYR258     -0.0009
     13  CD2      -28.8890    5.8290  -34.7690 C.ar  258  TYR258     -0.0009
     14  CE1      -27.2100    7.7430  -33.7220 C.ar  258  TYR258      0.0417
     15  CE2      -29.0990    7.1520  -35.0910 C.ar  258  TYR258      0.0417
     16  CZ       -28.2640    8.0920  -34.5700 C.ar  258  TYR258      0.1957
     17  OH       -28.3970    9.4090  -34.8480 O.3   258  TYR258     -0.2866
     18  N        -29.0730    1.2800  -31.9490 N.am  259  TYR259     -0.1974
     19  CA       -28.8960   -0.1220  -31.6880 C.3   259  TYR259      0.1639
     20  C        -28.8290   -0.9300  -33.0060 C.2   259  TYR259      0.2290
     21  O        -29.7670   -0.8890  -33.8390 O.2   259  TYR259     -0.2864
     22  CB       -29.9980   -0.6380  -30.8260 C.3   259  TYR259      0.0560
     23  CG       -30.1080    0.0910  -29.4890 C.ar  259  TYR259     -0.0198
     24  CD1      -30.8760    1.2530  -29.3550 C.ar  259  TYR259     -0.0009
     25  CD2      -29.4500   -0.3950  -28.3710 C.ar  259  TYR259     -0.0009
     26  CE1      -30.9850    1.8990  -28.1330 C.ar  259  TYR259      0.0417
     27  CE2      -29.5660    0.2300  -27.1530 C.ar  259  TYR259      0.0417
     28  CZ       -30.3290    1.3600  -27.0370 C.ar  259  TYR259      0.1957
     29  OH       -30.4040    1.9350  -25.8110 O.3   259  TYR259     -0.2866
     30  N        -41.8990   -1.0620  -34.3360 N.3   302  ARG302     -0.1245
     31  CA       -40.4360   -1.2220  -34.4170 C.3   302  ARG302      0.1563
     32  C        -40.0110   -2.6230  -33.9640 C.2   302  ARG302      0.2260
     33  O        -40.7550   -3.3200  -33.2660 O.2   302  ARG302     -0.2867
     34  CB       -39.7280   -0.1700  -33.5850 C.3   302  ARG302      0.0307
     35  CG       -39.7440    1.2370  -34.1880 C.3   302  ARG302      0.0489
     36  CD       -39.1270    2.2750  -33.2740 C.3   302  ARG302      0.2205
     37  NE       -38.9260    3.5030  -34.0320 N.pl3 302  ARG302     -0.0865
     38  CZ       -39.8530    4.4440  -34.2170 C.cat 302  ARG302      0.5346
     39  NH1      -41.0500    4.3400  -33.6680 N.pl3 302  ARG302      0.1354
     40  NH2      -39.5710    5.5050  -34.9470 N.pl3 302  ARG302      0.1354
     41  N        -34.7230   -0.8590  -29.5670 N.3   406  PRO406     -0.2102
     42  CA       -35.1990   -0.7890  -30.9080 C.3   406  PRO406      0.1504
     43  C        -34.0790   -0.8660  -31.9020 C.2   406  PRO406      0.2576
     44  O        -33.1480   -0.1150  -31.8190 O.2   406  PRO406     -0.2718
     45  CB       -35.8610    0.6130  -30.9690 C.3   406  PRO406      0.0282
     46  CG       -35.0970    1.4100  -29.9730 C.3   406  PRO406      0.0208
     47  CD       -34.8960    0.4250  -28.8650 C.3   406  PRO406      0.0893
     48  N        -34.1810   -1.7270  -32.8910 N.am  407  ILE407     -0.1966
     49  CA       -33.0230   -1.9290  -33.7880 C.3   407  ILE407      0.1727
     50  C        -33.1150   -1.0230  -35.0330 C.2   407  ILE407      0.2616
     51  O        -34.1390   -0.9800  -35.6910 O.2   407  ILE407     -0.2715
     52  CB       -32.9510   -3.4380  -34.1680 C.3   407  ILE407      0.0290
     53  CG1      -32.7010   -4.2550  -32.8790 C.3   407  ILE407      0.0022
     54  CG2      -31.9330   -3.6650  -35.2690 C.3   407  ILE407      0.0023
     55  CD1      -31.2830   -4.0780  -32.3020 C.3   407  ILE407      0.0001
     56  N        -32.0390   -0.3280  -35.3390 N.am  408  SER408     -0.1950
     57  CA       -31.9410    0.5630  -36.4720 C.3   408  SER408      0.1924
     58  C        -31.4130   -0.1530  -37.6840 C.2   408  SER408      0.2314
     59  O        -31.8380    0.1330  -38.8000 O.2   408  SER408     -0.2863
     60  CB       -31.0110    1.7430  -36.1820 C.3   408  SER408      0.2116
     61  OG       -31.5850    2.5800  -35.2200 O.3   408  SER408     -0.2180
     62  N        -41.2860    1.7850  -42.9670 N.3   486  SER486     -0.1202
     63  CA       -40.5150    2.8820  -42.4280 C.3   486  SER486      0.2020
     64  C        -39.9780    2.5440  -41.0210 C.2   486  SER486      0.2619
     65  O        -39.0000    3.1090  -40.5970 O.2   486  SER486     -0.2717
     66  CB       -41.3560    4.1810  -42.3680 C.3   486  SER486      0.2103
     67  OG       -40.7120    5.2270  -41.8350 O.3   486  SER486     -0.2182
     68  N        -40.6060    1.6190  -40.3100 N.am  487  LYS487     -0.1965
     69  CA       -40.1880    1.2760  -38.9540 C.3   487  LYS487      0.1728
     70  C        -39.1820    0.0860  -38.9190 C.2   487  LYS487      0.2616
     71  O        -38.6920   -0.3380  -37.8410 O.2   487  LYS487     -0.2715
     72  CB       -41.4380    0.9950  -38.1100 C.3   487  LYS487      0.0311
     73  CG       -42.4310    2.1410  -38.0700 C.3   487  LYS487      0.0038
     74  CD       -41.8090    3.4240  -37.5960 C.3   487  LYS487      0.0206
     75  CE       -42.8910    4.4580  -37.2850 C.3   487  LYS487      0.1093
     76  NZ       -43.5420    5.0250  -38.4960 N.3   487  LYS487     -0.1314
     77  N        -38.8690   -0.4490  -40.0950 N.am  488  LEU488     -0.1977
     78  CA       -38.0860   -1.6610  -40.1830 C.3   488  LEU488      0.1596
     79  C        -36.5870   -1.3030  -40.0850 C.2   488  LEU488      0.2287
     80  O        -36.1350   -0.2980  -40.6220 O.2   488  LEU488     -0.2864
     81  CB       -38.3810   -2.4020  -41.5140 C.3   488  LEU488      0.0297
     82  CG       -39.0830   -3.7650  -41.6040 C.3   488  LEU488      0.0022
     83  CD1      -40.0050   -4.0890  -40.4590 C.3   488  LEU488      0.0001
     84  CD2      -39.7870   -3.9270  -42.9610 C.3   488  LEU488      0.0001
     85  N        -28.8950    6.2970  -42.0440 N.3   524  ILE524     -0.1245
     86  CA       -30.1350    6.4540  -41.2890 C.3   524  ILE524      0.1561
     87  C        -30.4850    7.9620  -41.1480 C.2   524  ILE524      0.2260
     88  O        -31.6240    8.3410  -41.2590 O.2   524  ILE524     -0.2867
     89  CB       -30.0870    5.7290  -39.9360 C.3   524  ILE524      0.0252
     90  CG1      -29.8010    4.2680  -40.1650 C.3   524  ILE524      0.0019
     91  CG2      -31.4480    5.8300  -39.2380 C.3   524  ILE524      0.0019
     92  CD1      -29.4750    3.4780  -38.9430 C.3   524  ILE524      0.0001
@<TRIPOS>BOND
     1    62    63    1
     2    84    82    1
     3    63    66    1
     4    63    64    1
     5    66    67    1
     6    85    86    1
     7    82    81    1
     8    82    83    1
     9    81    78    1
    10    86    87    1
    11    86    89    1
    12    88    87    2
    13    64    65    2
    14    64    68   am
    15    80    79    2
    16    68    69    1
    17    78    77    1
    18    78    79    1
    19    90    89    1
    20    90    92    1
    21    77    70   am
    22    89    91    1
    23    69    70    1
    24    69    72    1
    25    70    71    2
    26    59    58    2
    27    76    75    1
    28    72    73    1
    29    73    74    1
    30    58    57    1
    31    74    75    1
    32    57    60    1
    33    57    56    1
    34    60    61    1
    35    51    50    2
    36    56    50   am
    37    54    52    1
    38    15    13   ar
    39    15    16   ar
    40    50    49    1
    41    40    38    1
    42    17    16    1
    43    13    11   ar
    44    16    14   ar
    45    31    30    1
    46    31    32    1
    47    31    34    1
    48    38    37    2
    49    38    39    1
    50    35    34    1
    51    35    36    1
    52    52    49    1
    53    52    53    1
    54    37    36    1
    55    32    33    2
    56    11    10    1
    57    11    12   ar
    58    21    20    2
    59    49    48    1
    60    14    12   ar
    61    10     7    1
    62    20    19    1
    63    48    43   am
    64    53    55    1
    65     7     8    1
    66     7     6    1
    67    18     8   am
    68    18    19    1
    69     8     9    2
    70    43    44    2
    71    43    42    1
    72    19    22    1
    73     6     3   am
    74    45    42    1
    75    45    46    1
    76    42    41    1
    77     4     3    2
    78    22    23    1
    79     3     2    1
    80    46    47    1
    81    41    47    1
    82    23    24   ar
    83    23    25   ar
    84    24    26   ar
    85     1     2    1
    86     2     5    1
    87    25    27   ar
    88    26    28   ar
    89    27    28   ar
    90    28    29    1
