@<TRIPOS>MOLECULE
tmp/4r43A00.pdb
 150 152 0 0 0
SMALL
GASTEIGER

@<TRIPOS>ATOM
      1  N        -20.8770  -15.4920  -38.6240 N.3   265  PRO265     -0.2102
      2  CA       -20.5680  -16.8370  -38.1320 C.3   265  PRO265      0.1504
      3  C        -19.4050  -16.8000  -37.1720 C.2   265  PRO265      0.2576
      4  O        -18.6750  -15.8160  -37.1120 O.2   265  PRO265     -0.2718
      5  CB       -20.1930  -17.6140  -39.3650 C.3   265  PRO265      0.0282
      6  CG       -20.7070  -16.7900  -40.5040 C.3   265  PRO265      0.0208
      7  CD       -20.6350  -15.3910  -40.0540 C.3   265  PRO265      0.0893
      8  N        -19.3640  -17.7950  -36.3120 N.am  266  SER266     -0.1938
      9  CA       -18.2310  -17.9780  -35.3960 C.3   266  SER266      0.2055
     10  C        -16.9320  -17.7420  -36.1060 C.2   266  SER266      0.2643
     11  O        -16.8100  -18.0960  -37.2730 O.2   266  SER266     -0.2714
     12  CB       -18.1990  -19.4190  -34.8710 C.3   266  SER266      0.2130
     13  OG       -18.0660  -19.4010  -33.4930 O.3   266  SER266     -0.2179
     14  N        -15.9960  -17.1160  -35.3740 N.am  267  ALA267     -0.1963
     15  CA       -14.6810  -16.7250  -35.8490 C.3   267  ALA267      0.1728
     16  C        -14.6350  -15.6070  -36.8800 C.2   267  ALA267      0.2616
     17  O        -13.5700  -15.3930  -37.4900 O.2   267  ALA267     -0.2715
     18  CB       -13.9160  -17.9460  -36.3640 C.3   267  ALA267      0.0334
     19  N        -15.7290  -14.8630  -37.0400 N.am  268  CYS268     -0.1954
     20  CA       -15.8490  -13.7690  -38.0320 C.3   268  CYS268      0.1843
     21  C        -15.9950  -12.3580  -37.4230 C.2   268  CYS268      0.2626
     22  O        -16.1510  -11.3970  -38.1430 O.2   268  CYS268     -0.2714
     23  CB       -17.0410  -14.0410  -39.0050 C.3   268  CYS268      0.0997
     24  SG       -16.7620  -15.5220  -40.0060 S.3   268  CYS268     -0.0797
     25  N        -15.9510  -12.2560  -36.1170 N.am  269  GLY269     -0.1940
     26  CA       -15.7300  -11.0110  -35.4570 C.3   269  GLY269      0.2014
     27  C        -16.8690  -10.5200  -34.5800 C.2   269  GLY269      0.2639
     28  O        -16.9000   -9.3350  -34.2350 O.2   269  GLY269     -0.2714
     29  N        -17.7680  -11.3760  -34.1480 N.am  270  LYS270     -0.1963
     30  CA       -18.8830  -10.8980  -33.3240 C.3   270  LYS270      0.1728
     31  C        -18.3730  -10.2880  -32.0040 C.2   270  LYS270      0.2617
     32  O        -18.7570   -9.1900  -31.6510 O.2   270  LYS270     -0.2715
     33  CB       -19.9130  -11.9870  -32.9550 C.3   270  LYS270      0.0311
     34  CG       -20.8830  -12.3870  -34.0390 C.3   270  LYS270      0.0038
     35  CD       -21.8630  -13.4470  -33.4850 C.3   270  LYS270      0.0206
     36  CE       -21.1250  -14.7410  -33.0500 C.3   270  LYS270      0.1093
     37  NZ       -20.0010  -15.2840  -33.9320 N.3   270  LYS270     -0.1314
     38  N        -17.5310  -11.0250  -31.2680 N.am  271  THR271     -0.1937
     39  CA       -17.1080  -10.5480  -29.9620 C.3   271  THR271      0.2028
     40  C        -16.3800   -9.2090  -30.0610 C.2   271  THR271      0.2642
     41  O        -16.6720   -8.3040  -29.2640 O.2   271  THR271     -0.2714
     42  CB       -16.3630  -11.6300  -29.1440 C.3   271  THR271      0.1808
     43  OG1      -17.2680  -12.7490  -28.9240 O.3   271  THR271     -0.2208
     44  CG2      -15.8610  -11.0620  -27.7650 C.3   271  THR271      0.0379
     45  N        -15.5070   -9.0530  -31.0570 N.am  272  ASN272     -0.1971
     46  CA       -14.8650   -7.7780  -31.2990 C.3   272  ASN272      0.1688
     47  C        -15.8260   -6.6190  -31.5440 C.2   272  ASN272      0.2292
     48  O        -15.7620   -5.6080  -30.8600 O.2   272  ASN272     -0.2864
     49  CB       -13.8540   -7.8900  -32.3990 C.3   272  ASN272      0.1181
     50  CG       -12.5010   -8.3230  -31.8620 C.2   272  ASN272      0.2629
     51  OD1      -11.7690   -7.5070  -31.3440 O.2   272  ASN272     -0.2716
     52  ND2      -12.1730   -9.6190  -31.9740 N.am  272  ASN272     -0.0877
     53  N        -14.5790  -17.3880  -26.1980 N.3   315  VAL315     -0.1245
     54  CA       -13.3910  -18.1030  -26.6020 C.3   315  VAL315      0.1561
     55  C        -12.2490  -17.3310  -26.0110 C.2   315  VAL315      0.2260
     56  O        -12.2130  -16.1120  -26.1580 O.2   315  VAL315     -0.2867
     57  CB       -13.2730  -18.1780  -28.1230 C.3   315  VAL315      0.0252
     58  CG1      -11.9180  -18.7460  -28.4930 C.3   315  VAL315      0.0019
     59  CG2      -14.3600  -19.0650  -28.6690 C.3   315  VAL315      0.0019
     60  N        -16.2300  -13.9540  -43.6480 N.3   415  ARG415     -0.1245
     61  CA       -14.8780  -13.7280  -44.2470 C.3   415  ARG415      0.1563
     62  C        -14.8650  -13.9450  -45.7450 C.2   415  ARG415      0.2260
     63  O        -15.0190  -15.0860  -46.2130 O.2   415  ARG415     -0.2867
     64  CB       -13.9340  -14.7230  -43.6530 C.3   415  ARG415      0.0307
     65  CG       -13.7590  -14.5590  -42.1790 C.3   415  ARG415      0.0489
     66  CD       -12.7230  -15.5440  -41.6580 C.3   415  ARG415      0.2205
     67  NE       -12.3760  -15.2040  -40.3050 N.pl3 415  ARG415     -0.0865
     68  CZ       -11.2630  -14.6130  -39.9240 C.cat 415  ARG415      0.5346
     69  NH1      -10.2990  -14.3120  -40.7920 N.pl3 415  ARG415      0.1354
     70  NH2      -11.0950  -14.3790  -38.6470 N.pl3 415  ARG415      0.1354
     71  N        -15.1110   -7.3790  -43.4360 N.3   496  TRP496     -0.1227
     72  CA       -13.8590   -6.8180  -42.9290 C.3   496  TRP496      0.1737
     73  C        -12.6410   -7.4480  -43.4970 C.2   496  TRP496      0.2595
     74  O        -11.5300   -7.0130  -43.1860 O.2   496  TRP496     -0.2718
     75  CB       -13.7020   -7.0100  -41.4480 C.3   496  TRP496      0.0564
     76  CG       -14.8190   -6.7480  -40.5430 C.ar  496  TRP496      0.0003
     77  CD1      -15.1720   -7.4940  -39.4350 C.ar  496  TRP496      0.0946
     78  CD2      -15.7980   -5.6880  -40.6310 C.ar  496  TRP496      0.0152
     79  NE1      -16.2540   -6.9450  -38.8210 N.ar  496  TRP496     -0.2442
     80  CE2      -16.6760   -5.8540  -39.4940 C.ar  496  TRP496      0.0810
     81  CE3      -15.9750   -4.5960  -41.4630 C.ar  496  TRP496      0.0012
     82  CZ2      -17.7280   -4.9850  -39.2520 C.ar  496  TRP496      0.0191
     83  CZ3      -17.0270   -3.7220  -41.1900 C.ar  496  TRP496      0.0001
     84  CH2      -17.8610   -3.9150  -40.1090 C.ar  496  TRP496      0.0015
     85  N        -12.8050   -8.4890  -44.3050 N.am  497  PHE497     -0.1976
     86  CA       -11.6670   -9.3600  -44.6210 C.3   497  PHE497      0.1639
     87  C        -11.2540   -9.3420  -46.0860 C.2   497  PHE497      0.2290
     88  O        -10.5810  -10.2610  -46.5440 O.2   497  PHE497     -0.2864
     89  CB       -12.0500  -10.7670  -44.1770 C.3   497  PHE497      0.0560
     90  CG       -12.4460  -10.8440  -42.7190 C.ar  497  PHE497     -0.0200
     91  CD1      -11.4900  -11.0350  -41.7360 C.ar  497  PHE497     -0.0042
     92  CD2      -13.7460  -10.7470  -42.3390 C.ar  497  PHE497     -0.0042
     93  CE1      -11.8390  -11.1400  -40.4140 C.ar  497  PHE497     -0.0003
     94  CE2      -14.0990  -10.8320  -41.0160 C.ar  497  PHE497     -0.0003
     95  CZ       -13.1640  -11.0210  -40.0590 C.ar  497  PHE497     -0.0000
     96  N         -4.8370   -7.1120  -45.7560 N.3   505  PHE505     -0.1241
     97  CA        -6.1640   -6.5890  -45.5560 C.3   505  PHE505      0.1605
     98  C         -6.2940   -5.1810  -46.1140 C.2   505  PHE505      0.2264
     99  O         -5.5610   -4.3030  -45.7410 O.2   505  PHE505     -0.2867
    100  CB        -6.4960   -6.5790  -44.0690 C.3   505  PHE505      0.0534
    101  CG        -6.7610   -7.9430  -43.4740 C.ar  505  PHE505     -0.0203
    102  CD1       -7.7160   -8.7720  -44.0010 C.ar  505  PHE505     -0.0042
    103  CD2       -6.0530   -8.3790  -42.3470 C.ar  505  PHE505     -0.0042
    104  CE1       -7.9610  -10.0300  -43.4470 C.ar  505  PHE505     -0.0003
    105  CE2       -6.2870   -9.6390  -41.7870 C.ar  505  PHE505     -0.0003
    106  CZ        -7.2590  -10.4670  -42.3390 C.ar  505  PHE505     -0.0000
    107  N         -8.6590   -3.2290  -45.4050 N.3   507  TRP507     -0.1228
    108  CA        -9.2560   -2.4350  -44.3390 C.3   507  TRP507      0.1722
    109  C         -8.7010   -2.8570  -43.0220 C.2   507  TRP507      0.2437
    110  O         -8.6150   -4.0340  -42.7460 O.2   507  TRP507     -0.2733
    111  CB       -10.7610   -2.6610  -44.3820 C.3   507  TRP507      0.0563
    112  CG       -11.5380   -1.8960  -43.3710 C.ar  507  TRP507      0.0003
    113  CD1      -12.1410   -2.3830  -42.2100 C.ar  507  TRP507      0.0946
    114  CD2      -11.8080   -0.4660  -43.3750 C.ar  507  TRP507      0.0152
    115  NE1      -12.7320   -1.3760  -41.5240 N.ar  507  TRP507     -0.2442
    116  CE2      -12.5860   -0.2000  -42.1690 C.ar  507  TRP507      0.0810
    117  CE3      -11.5090    0.5950  -44.2470 C.ar  507  TRP507      0.0012
    118  CZ2      -13.0130    1.0640  -41.8410 C.ar  507  TRP507      0.0191
    119  CZ3      -11.9440    1.8690  -43.9010 C.ar  507  TRP507      0.0001
    120  CH2      -12.6810    2.0960  -42.7210 C.ar  507  TRP507      0.0015
    121  N         -8.3460   -1.9200  -42.1490 N.am  508  PRO508     -0.2718
    122  CA        -7.7350   -2.3470  -40.8970 C.3   508  PRO508      0.1535
    123  C         -8.6600   -2.9180  -39.8450 C.2   508  PRO508      0.2599
    124  O         -8.2140   -3.6430  -38.9660 O.2   508  PRO508     -0.2715
    125  CB        -7.1030   -1.0610  -40.3670 C.3   508  PRO508      0.0310
    126  CG        -7.8980    0.0130  -40.9940 C.3   508  PRO508      0.0237
    127  CD        -8.2060   -0.4670  -42.3550 C.3   508  PRO508      0.0939
    128  N         -9.9440   -2.6010  -39.8910 N.am  509  GLY509     -0.1941
    129  CA       -10.8590   -3.2970  -39.0090 C.3   509  GLY509      0.2014
    130  C        -10.7440   -2.9240  -37.5360 C.2   509  GLY509      0.2638
    131  O        -10.2120   -1.8680  -37.1970 O.2   509  GLY509     -0.2714
    132  N        -11.2930   -3.7950  -36.6880 N.am  510  PHE510     -0.1973
    133  CA       -11.3210   -3.6250  -35.2530 C.3   510  PHE510      0.1639
    134  C        -12.0180   -2.3010  -34.9040 C.2   510  PHE510      0.2290
    135  O        -13.0920   -2.0090  -35.4500 O.2   510  PHE510     -0.2864
    136  CB        -9.9020   -3.8250  -34.6670 C.3   510  PHE510      0.0560
    137  CG        -9.3570   -5.2270  -34.9060 C.ar  510  PHE510     -0.0200
    138  CD1       -9.7380   -6.2800  -34.0840 C.ar  510  PHE510     -0.0042
    139  CD2       -8.5320   -5.5010  -35.9850 C.ar  510  PHE510     -0.0042
    140  CE1       -9.2940   -7.5690  -34.3190 C.ar  510  PHE510     -0.0003
    141  CE2       -8.0800   -6.7990  -36.2370 C.ar  510  PHE510     -0.0003
    142  CZ        -8.4500   -7.8230  -35.4010 C.ar  510  PHE510     -0.0000
    143  N        -13.7110   -0.1930  -37.5430 N.3   513  ASN513     -0.1240
    144  CA       -15.0620   -0.5350  -38.0030 C.3   513  ASN513      0.1653
    145  C        -16.0840    0.4610  -37.5130 C.2   513  ASN513      0.2266
    146  O        -17.1890    0.5460  -38.0880 O.2   513  ASN513     -0.2867
    147  CB       -15.4390   -1.9880  -37.6110 C.3   513  ASN513      0.1155
    148  CG       -14.6030   -3.0670  -38.3610 C.2   513  ASN513      0.2627
    149  OD1      -14.1490   -2.8410  -39.4800 O.2   513  ASN513     -0.2716
    150  ND2      -14.5020   -4.2630  -37.7790 N.am  513  ASN513     -0.0877
@<TRIPOS>BOND
     1    88    87    2
     2    63    62    2
     3    98    99    2
     4    98    97    1
     5    87    86    1
     6    96    97    1
     7    62    61    1
     8    97   100    1
     9   107   108    1
    10    86    85    1
    11    86    89    1
    12   111   108    1
    13   111   112    1
    14   108   109    1
    15    85    73   am
    16    61    64    1
    17    61    60    1
    18   117   119   ar
    19   117   114   ar
    20    89    90    1
    21   100   101    1
    22   102   101   ar
    23   102   104   ar
    24   119   120   ar
    25    64    65    1
    26    73    74    2
    27    73    72    1
    28   101   103   ar
    29   104   106   ar
    30    71    72    1
    31   114   112   ar
    32   114   116   ar
    33   112   113   ar
    34   109   110    2
    35   109   121   am
    36    72    75    1
    37   120   118   ar
    38    90    92   ar
    39    90    91   ar
    40   127   121    1
    41   127   126    1
    42   103   105   ar
    43   106   105   ar
    44    92    94   ar
    45   113   115   ar
    46    65    66    1
    47   116   118   ar
    48   116   115   ar
    49   121   122    1
    50    91    93   ar
    51    66    67    1
    52    81    83   ar
    53    81    78   ar
    54    75    76    1
    55    83    84   ar
    56    94    95   ar
    57   126   125    1
    58   122   125    1
    59   122   123    1
    60    69    68    1
    61    78    76   ar
    62    78    80   ar
    63    76    77   ar
    64     6     7    1
    65     6     5    1
    66    93    95   ar
    67    67    68    2
    68    84    82   ar
    69     7     1    1
    70    24    23    1
    71    68    70    1
    72   128   123   am
    73   128   129    1
    74   123   124    2
    75    80    82   ar
    76    80    79   ar
    77   149   148    2
    78    77    79   ar
    79     5     2    1
    80   129   130    1
    81    23    20    1
    82     1     2    1
    83   148   150   am
    84   148   147    1
    85    22    21    2
    86     2     3    1
    87   146   145    2
    88    20    21    1
    89    20    19    1
    90   144   147    1
    91   144   143    1
    92   144   145    1
    93   130   131    2
    94   130   132   am
    95    17    16    2
    96    21    25   am
    97    11    10    2
    98     3     4    2
    99     3     8   am
   100    19    16   am
   101    16    15    1
   102   132   133    1
   103    18    15    1
   104     8     9    1
   105   141   139   ar
   106   141   142   ar
   107    25    26    1
   108    10     9    1
   109    10    14   am
   110   139   137   ar
   111    15    14    1
   112    26    27    1
   113   135   134    2
   114   142   140   ar
   115     9    12    1
   116   133   134    1
   117   133   136    1
   118   137   136    1
   119   137   138   ar
   120    12    13    1
   121    27    28    2
   122    27    29   am
   123   140   138   ar
   124    29    30    1
   125    34    35    1
   126    34    33    1
   127    37    36    1
   128    35    36    1
   129    30    33    1
   130    30    31    1
   131    49    50    1
   132    49    46    1
   133    31    32    2
   134    31    38   am
   135    52    50   am
   136    50    51    2
   137    47    46    1
   138    47    48    2
   139    46    45    1
   140    38    39    1
   141    45    40   am
   142    40    39    1
   143    40    41    2
   144    39    42    1
   145    42    43    1
   146    42    44    1
   147    59    57    1
   148    58    57    1
   149    57    54    1
   150    54    53    1
   151    54    55    1
   152    56    55    2
