@<TRIPOS>MOLECULE
tmp/4r43A01.pdb
 102 101 0 0 0
SMALL
GASTEIGER

@<TRIPOS>ATOM
      1  N        -45.0600  -13.2750  -20.1170 N.3   134  ASP134     -0.1239
      2  CA       -44.6070  -14.5790  -20.6360 C.3   134  ASP134      0.1674
      3  C        -43.0950  -14.6560  -20.8830 C.2   134  ASP134      0.2266
      4  O        -42.6620  -14.6140  -22.0150 O.2   134  ASP134     -0.2867
      5  CB       -45.3510  -14.9880  -21.9320 C.3   134  ASP134      0.1410
      6  CG       -44.7860  -16.2910  -22.5570 C.2   134  ASP134      0.3668
      7  OD1      -44.4080  -17.2050  -21.7840 O.co2 134  ASP134     -0.2456
      8  OD2      -44.7040  -16.4000  -23.8110 O.co2 134  ASP134     -0.2456
      9  N        -39.6170  -16.8790  -21.2210 N.3   136  LYS136     -0.1245
     10  CA       -39.4040  -18.1970  -21.7350 C.3   136  LYS136      0.1561
     11  C        -38.5760  -18.9420  -20.6990 C.2   136  LYS136      0.2260
     12  O        -37.4000  -18.6430  -20.4410 O.2   136  LYS136     -0.2867
     13  CB       -38.7390  -18.1590  -23.1320 C.3   136  LYS136      0.0271
     14  CG       -39.6090  -17.5340  -24.2610 C.3   136  LYS136      0.0035
     15  CD       -40.7320  -18.4620  -24.7310 C.3   136  LYS136      0.0206
     16  CE       -41.6870  -17.8260  -25.7720 C.3   136  LYS136      0.1093
     17  NZ       -42.5570  -18.8650  -26.3870 N.3   136  LYS136     -0.1314
     18  N        -41.9600  -14.0260  -34.2020 N.3   240  TRP240     -0.1241
     19  CA       -40.7420  -13.2690  -33.8810 C.3   240  TRP240      0.1605
     20  C        -39.5160  -13.9880  -34.4170 C.2   240  TRP240      0.2264
     21  O        -39.6260  -14.8750  -35.2340 O.2   240  TRP240     -0.2867
     22  CB       -40.6810  -12.9370  -32.3750 C.3   240  TRP240      0.0550
     23  CG       -40.7560  -14.1100  -31.4310 C.ar  240  TRP240      0.0003
     24  CD1      -41.8870  -14.7900  -31.0450 C.ar  240  TRP240      0.0946
     25  CD2      -39.6630  -14.7600  -30.7080 C.ar  240  TRP240      0.0152
     26  NE1      -41.5950  -15.7940  -30.1980 N.ar  240  TRP240     -0.2442
     27  CE2      -40.2740  -15.8210  -29.9260 C.ar  240  TRP240      0.0810
     28  CE3      -38.2950  -14.5930  -30.6520 C.ar  240  TRP240      0.0012
     29  CZ2      -39.5430  -16.6590  -29.1220 C.ar  240  TRP240      0.0191
     30  CZ3      -37.5640  -15.4490  -29.8370 C.ar  240  TRP240      0.0001
     31  CH2      -38.1670  -16.4630  -29.0910 C.ar  240  TRP240      0.0015
     32  N        -32.8760  -12.1270  -29.4610 N.3   294  TRP294     -0.1241
     33  CA       -34.2980  -12.4120  -29.6850 C.3   294  TRP294      0.1605
     34  C        -35.0440  -11.1580  -29.9830 C.2   294  TRP294      0.2264
     35  O        -35.0090  -10.1960  -29.1890 O.2   294  TRP294     -0.2867
     36  CB       -34.8510  -13.0250  -28.4370 C.3   294  TRP294      0.0550
     37  CG       -34.5600  -14.4610  -28.2090 C.ar  294  TRP294      0.0003
     38  CD1      -33.7400  -15.3200  -28.9300 C.ar  294  TRP294      0.0946
     39  CD2      -35.0790  -15.2680  -27.1230 C.ar  294  TRP294      0.0152
     40  NE1      -33.7430  -16.5600  -28.3820 N.ar  294  TRP294     -0.2442
     41  CE2      -34.5030  -16.5940  -27.2880 C.ar  294  TRP294      0.0810
     42  CE3      -35.9140  -15.0200  -26.0500 C.ar  294  TRP294      0.0012
     43  CZ2      -34.7940  -17.6230  -26.4320 C.ar  294  TRP294      0.0191
     44  CZ3      -36.1860  -16.0560  -25.1680 C.ar  294  TRP294      0.0001
     45  CH2      -35.6770  -17.3460  -25.3680 C.ar  294  TRP294      0.0015
     46  N        -38.4740   -8.9600  -31.6960 N.3   296  ARG296     -0.1231
     47  CA       -39.9320   -8.9300  -31.8250 C.3   296  ARG296      0.1694
     48  C        -40.4680   -7.5280  -32.0650 C.2   296  ARG296      0.2592
     49  O        -39.9600   -6.5710  -31.5550 O.2   296  ARG296     -0.2718
     50  CB       -40.5740   -9.4640  -30.5670 C.3   296  ARG296      0.0321
     51  CG       -42.0950   -9.4300  -30.5700 C.3   296  ARG296      0.0489
     52  CD       -42.7000  -10.6100  -29.8200 C.3   296  ARG296      0.2205
     53  NE       -43.4630  -10.2360  -28.6520 N.pl3 296  ARG296     -0.0865
     54  CZ       -42.9630   -9.7070  -27.5350 C.cat 296  ARG296      0.5346
     55  NH1      -41.6680   -9.4330  -27.4000 N.pl3 296  ARG296      0.1354
     56  NH2      -43.7840   -9.4210  -26.5280 N.pl3 296  ARG296      0.1354
     57  N        -41.5100   -7.4300  -32.8740 N.am  297  PHE297     -0.1976
     58  CA       -42.2040   -6.1530  -33.0810 C.3   297  PHE297      0.1639
     59  C        -42.9520   -5.6530  -31.8630 C.2   297  PHE297      0.2290
     60  O        -43.6180   -6.4230  -31.1820 O.2   297  PHE297     -0.2864
     61  CB       -43.1560   -6.2900  -34.2490 C.3   297  PHE297      0.0560
     62  CG       -42.4320   -6.3730  -35.5130 C.ar  297  PHE297     -0.0200
     63  CD1      -41.7850   -5.2620  -35.9940 C.ar  297  PHE297     -0.0042
     64  CD2      -42.2650   -7.5650  -36.1290 C.ar  297  PHE297     -0.0042
     65  CE1      -41.0330   -5.3180  -37.1270 C.ar  297  PHE297     -0.0003
     66  CE2      -41.5150   -7.6460  -37.2730 C.ar  297  PHE297     -0.0003
     67  CZ       -40.8970   -6.5210  -37.7760 C.ar  297  PHE297     -0.0000
     68  N        -37.6750   -4.7970  -31.6490 N.3   304  TYR304     -0.1241
     69  CA       -37.0230   -4.7350  -30.3330 C.3   304  TYR304      0.1605
     70  C        -36.2320   -5.9890  -30.0160 C.2   304  TYR304      0.2264
     71  O        -36.8130   -7.0440  -30.0720 O.2   304  TYR304     -0.2867
     72  CB       -38.1100   -4.5800  -29.2550 C.3   304  TYR304      0.0534
     73  CG       -38.6220   -3.2100  -29.2710 C.ar  304  TYR304     -0.0201
     74  CD1      -39.6680   -2.8640  -30.1290 C.ar  304  TYR304     -0.0009
     75  CD2      -38.0800   -2.2380  -28.4660 C.ar  304  TYR304     -0.0009
     76  CE1      -40.1430   -1.5700  -30.1760 C.ar  304  TYR304      0.0417
     77  CE2      -38.5450   -0.9310  -28.5290 C.ar  304  TYR304      0.0417
     78  CZ       -39.5880   -0.6140  -29.3740 C.ar  304  TYR304      0.1957
     79  OH       -40.0660    0.6640  -29.4720 O.3   304  TYR304     -0.2866
     80  N        -33.6940   -8.2440  -27.3870 N.3   306  VAL306     -0.1245
     81  CA       -33.3110   -8.6460  -26.0420 C.3   306  VAL306      0.1561
     82  C        -32.2390   -9.7780  -26.1630 C.2   306  VAL306      0.2260
     83  O        -32.3280  -10.6510  -27.0370 O.2   306  VAL306     -0.2867
     84  CB       -34.6480   -9.1270  -25.4160 C.3   306  VAL306      0.0252
     85  CG1      -34.6270  -10.5700  -24.9800 C.3   306  VAL306      0.0019
     86  CG2      -35.1400   -8.0950  -24.4350 C.3   306  VAL306      0.0019
     87  N        -36.9710   -5.8600  -20.0530 N.3   402  PRO402     -0.2102
     88  CA       -37.6880   -6.8560  -20.8750 C.3   402  PRO402      0.1504
     89  C        -38.2810   -6.3290  -22.1630 C.2   402  PRO402      0.2575
     90  O        -38.5980   -7.1250  -23.0360 O.2   402  PRO402     -0.2718
     91  CB       -38.8220   -7.3390  -19.9560 C.3   402  PRO402      0.0282
     92  CG       -39.0070   -6.2490  -18.9560 C.3   402  PRO402      0.0208
     93  CD       -37.6410   -5.6250  -18.7580 C.3   402  PRO402      0.0893
     94  N        -38.4500   -5.0180  -22.2950 N.am  403  GLN403     -0.1980
     95  CA       -39.0100   -4.4750  -23.5320 C.3   403  GLN403      0.1601
     96  C        -37.9410   -4.3660  -24.6340 C.2   403  GLN403      0.2287
     97  O        -38.2520   -4.0360  -25.7570 O.2   403  GLN403     -0.2864
     98  CB       -39.7430   -3.1590  -23.2840 C.3   403  GLN403      0.0394
     99  CG       -38.8470   -1.9910  -22.9290 C.3   403  GLN403      0.0908
    100  CD       -39.4140   -1.0950  -21.8240 C.2   403  GLN403      0.2608
    101  OE1      -40.3460   -1.4750  -21.0990 O.2   403  GLN403     -0.2717
    102  NE2      -38.8330    0.1060  -21.6830 N.am  403  GLN403     -0.0878
@<TRIPOS>BOND
     1    67    66   ar
     2    67    65   ar
     3    66    64   ar
     4    65    63   ar
     5    64    62   ar
     6    63    62   ar
     7    62    61    1
     8    21    20    2
     9    20    19    1
    10    61    58    1
    11    18    19    1
    12    19    22    1
    13    58    57    1
    14    58    59    1
    15    57    48   am
    16    22    23    1
    17    48    47    1
    18    48    49    2
    19    59    60    2
    20    47    46    1
    21    47    50    1
    22    68    69    1
    23    23    24   ar
    24    23    25   ar
    25    24    26   ar
    26    25    28   ar
    27    25    27   ar
    28    28    30   ar
    29    51    50    1
    30    51    52    1
    31    69    70    1
    32    69    72    1
    33    26    27   ar
    34    76    74   ar
    35    76    78   ar
    36    74    73   ar
    37    71    70    2
    38    34    33    1
    39    34    35    2
    40    27    29   ar
    41    30    31   ar
    42    52    53    1
    43    33    32    1
    44    33    36    1
    45    79    78    1
    46    78    77   ar
    47    73    72    1
    48    73    75   ar
    49    29    31   ar
    50    38    40   ar
    51    38    37   ar
    52    53    54    2
    53    77    75   ar
    54    36    37    1
    55    40    41   ar
    56    37    39   ar
    57    54    55    1
    58    54    56    1
    59    80    81    1
    60    41    39   ar
    61    41    43   ar
    62    39    42   ar
    63    83    82    2
    64    43    45   ar
    65    17    16    1
    66    82    81    1
    67    42    44   ar
    68    81    84    1
    69    16    15    1
    70    97    96    2
    71    84    85    1
    72    84    86    1
    73    45    44   ar
    74    15    14    1
    75    96    95    1
    76    14    13    1
    77     8     6   ar
    78    95    98    1
    79    95    94    1
    80    98    99    1
    81    13    10    1
    82    90    89    2
    83    99   100    1
    84     6     5    1
    85     6     7   ar
    86    94    89   am
    87    89    88    1
    88     4     3    2
    89     5     2    1
    90   100   102   am
    91   100   101    2
    92    10     9    1
    93    10    11    1
    94     3     2    1
    95    88    87    1
    96    88    91    1
    97    11    12    2
    98     2     1    1
    99    87    93    1
   100    91    92    1
   101    92    93    1
