@<TRIPOS>MOLECULE
tmp/4r4cA00.pdb
 169 158 0 0 0
SMALL
GASTEIGER

@<TRIPOS>ATOM
      1  N          2.4000   16.9810   14.1420 N.3    34  ARG34      -0.1245
      2  CA         2.0930   18.0980   15.0240 C.3    34  ARG34       0.1563
      3  C          3.2530   18.3880   15.9620 C.2    34  ARG34       0.2260
      4  O          4.0180   17.4870   16.3130 O.2    34  ARG34      -0.2867
      5  CB         0.8120   17.8420   15.8240 C.3    34  ARG34       0.0307
      6  CG         0.9190   16.7630   16.8910 C.3    34  ARG34       0.0489
      7  CD        -0.1150   16.9690   17.9970 C.3    34  ARG34       0.2205
      8  NE         0.1510   16.1090   19.1520 N.pl3  34  ARG34      -0.0865
      9  CZ         0.6880   16.5100   20.3040 C.cat  34  ARG34       0.5346
     10  NH1        1.0200   17.7840   20.5080 N.pl3  34  ARG34       0.1354
     11  NH2        0.8840   15.6220   21.2700 N.pl3  34  ARG34       0.1354
     12  N          4.9520   19.0580   19.5540 N.3    36  ILE36      -0.1231
     13  CA         4.6560   18.7620   20.9480 C.3    36  ILE36       0.1692
     14  C          4.9500   20.0130   21.7560 C.2    36  ILE36       0.2592
     15  O          5.6090   20.9330   21.2700 O.2    36  ILE36      -0.2718
     16  CB         5.4800   17.5760   21.4940 C.3    36  ILE36       0.0266
     17  CG1        6.9800   17.8660   21.4220 C.3    36  ILE36       0.0019
     18  CG2        5.1590   16.3140   20.7200 C.3    36  ILE36       0.0020
     19  CD1        7.7860   17.1840   22.5180 C.3    36  ILE36       0.0001
     20  N          4.4500   20.0550   22.9840 N.am   37  THR37      -0.1953
     21  CA         4.7650   21.1530   23.8870 C.3    37  THR37       0.1897
     22  C          6.2100   21.0070   24.3560 C.2    37  THR37       0.2313
     23  O          6.5730   19.9920   24.9480 O.2    37  THR37      -0.2863
     24  CB         3.8140   21.1610   25.0910 C.3    37  THR37       0.1794
     25  OG1        2.4610   21.2730   24.6260 O.3    37  THR37      -0.2208
     26  CG2        4.1270   22.3240   26.0210 C.3    37  THR37       0.0378
     27  N          9.7470   20.2850   18.6990 N.3    44  ARG44      -0.1245
     28  CA         9.8370   18.8490   18.4950 C.3    44  ARG44       0.1563
     29  C          8.5460   18.4000   17.8190 C.2    44  ARG44       0.2260
     30  O          7.4500   18.7800   18.2450 O.2    44  ARG44      -0.2867
     31  CB        10.0420   18.1410   19.8390 C.3    44  ARG44       0.0307
     32  CG        10.0310   16.6170   19.7940 C.3    44  ARG44       0.0489
     33  CD        11.3370   16.0490   19.2610 C.3    44  ARG44       0.2205
     34  NE        12.4680   16.3040   20.1530 N.pl3  44  ARG44      -0.0865
     35  CZ        13.7110   15.8950   19.9170 C.cat  44  ARG44       0.5346
     36  NH1       13.9900   15.2090   18.8160 N.pl3  44  ARG44       0.1354
     37  NH2       14.6800   16.1740   20.7790 N.pl3  44  ARG44       0.1354
     38  N          5.9500   15.3990   16.4020 N.3    46  ARG46      -0.1245
     39  CA         5.4540   14.0410   16.5530 C.3    46  ARG46       0.1563
     40  C          4.6900   13.6630   15.2940 C.2    46  ARG46       0.2260
     41  O          3.9610   14.4860   14.7370 O.2    46  ARG46      -0.2867
     42  CB         4.5390   13.9620   17.7720 C.3    46  ARG46       0.0307
     43  CG         3.9600   12.5930   18.0390 C.3    46  ARG46       0.0489
     44  CD         3.1880   12.5930   19.3390 C.3    46  ARG46       0.2205
     45  NE         2.6030   11.2900   19.6170 N.pl3  46  ARG46      -0.0865
     46  CZ         1.8580   11.0180   20.6800 C.cat  46  ARG46       0.5346
     47  NH1        1.6030   11.9650   21.5750 N.pl3  46  ARG46       0.1354
     48  NH2        1.3670    9.7970   20.8470 N.pl3  46  ARG46       0.1354
     49  N          1.5000    6.3790   16.2300 N.3    57  SER57      -0.1202
     50  CA         1.7180    7.7950   16.5270 C.3    57  SER57       0.2020
     51  C          2.9280    8.0540   17.4230 C.2    57  SER57       0.2619
     52  O          3.1340    9.1820   17.8720 O.2    57  SER57      -0.2717
     53  CB         0.4750    8.3850   17.1990 C.3    57  SER57       0.2103
     54  OG         0.2610    7.7990   18.4720 O.3    57  SER57      -0.2182
     55  N          3.7350    7.0250   17.6610 N.am   58  SER58      -0.1937
     56  CA         4.8480    7.0880   18.5970 C.3    58  SER58       0.2055
     57  C          6.1600    7.4940   17.9270 C.2    58  SER58       0.2643
     58  O          7.2340    7.1170   18.3900 O.2    58  SER58      -0.2714
     59  CB         5.0290    5.7180   19.2580 C.3    58  SER58       0.2130
     60  OG         3.8250    5.2710   19.8600 O.3    58  SER58      -0.2179
     61  N          6.0750    8.2410   16.8360 N.am   59  PHE59      -0.1959
     62  CA         7.2650    8.7110   16.1400 C.3    59  PHE59       0.1771
     63  C          7.5670   10.1600   16.4940 C.2    59  PHE59       0.2619
     64  O          6.6610   10.9930   16.5460 O.2    59  PHE59      -0.2715
     65  CB         7.0660    8.6360   14.6300 C.3    59  PHE59       0.0574
     66  CG         6.9700    7.2410   14.0880 C.ar   59  PHE59      -0.0200
     67  CD1        5.7390    6.6300   13.9260 C.ar   59  PHE59      -0.0042
     68  CD2        8.1080    6.5530   13.7120 C.ar   59  PHE59      -0.0042
     69  CE1        5.6510    5.3510   13.4140 C.ar   59  PHE59      -0.0003
     70  CE2        8.0270    5.2760   13.1970 C.ar   59  PHE59      -0.0003
     71  CZ         6.7990    4.6710   13.0460 C.ar   59  PHE59      -0.0000
     72  N          8.8450   10.4490   16.7210 N.am   60  MET60      -0.1977
     73  CA         9.2790   11.8290   16.8700 C.3    60  MET60       0.1605
     74  C         10.4700   12.0870   15.9640 C.2    60  MET60       0.2287
     75  O         11.2800   11.2060   15.6980 O.2    60  MET60      -0.2864
     76  CB         9.5760   12.1790   18.3350 C.3    60  MET60       0.0413
     77  CG         8.3040   12.4870   19.1360 C.3    60  MET60       0.0598
     78  SD         8.5550   13.0670   20.8290 S.3    60  MET60      -0.1393
     79  CE         9.1940   11.5860   21.6060 C.3    60  MET60       0.0692
     80  N         13.9920   13.7340   14.8150 N.3    62  ALA62      -0.1231
     81  CA        15.2300   14.3430   15.2990 C.3    62  ALA62       0.1694
     82  C         15.1920   15.8350   14.9730 C.2    62  ALA62       0.2593
     83  O         14.7340   16.2300   13.9020 O.2    62  ALA62      -0.2718
     84  CB        16.4410   13.6910   14.6580 C.3    62  ALA62       0.0304
     85  N         15.6600   16.6670   15.8960 N.am   63  THR63      -0.1939
     86  CA        15.5820   18.1120   15.7080 C.3    63  THR63       0.2028
     87  C         16.3600   18.5850   14.4760 C.2    63  THR63       0.2642
     88  O         16.0090   19.5950   13.8720 O.2    63  THR63      -0.2714
     89  CB        16.0720   18.8700   16.9530 C.3    63  THR63       0.1808
     90  OG1       17.4300   18.5170   17.2290 O.3    63  THR63      -0.2208
     91  CG2       15.2120   18.5230   18.1520 C.3    63  THR63       0.0379
     92  N         17.4070   17.8540   14.1010 N.am   64  GLN64      -0.1976
     93  CA        18.1900   18.2000   12.9160 C.3    64  GLN64       0.1601
     94  C         17.3340   18.1930   11.6460 C.2    64  GLN64       0.2287
     95  O         17.6620   18.8670   10.6680 O.2    64  GLN64      -0.2864
     96  CB        19.3770   17.2410   12.7590 C.3    64  GLN64       0.0394
     97  CG        18.9800   15.7840   12.5160 C.3    64  GLN64       0.0908
     98  CD        20.1360   14.8060   12.6740 C.2    64  GLN64       0.2608
     99  OE1       21.1990   15.1540   13.1860 O.2    64  GLN64      -0.2717
    100  NE2       19.9260   13.5700   12.2350 N.am   64  GLN64      -0.0878
    101  N         16.0850    5.2930   15.9000 N.3    86  ILE86      -0.1245
    102  CA        16.4100    4.6790   17.1730 C.3    86  ILE86       0.1561
    103  C         15.1360    4.5600   17.9910 C.2    86  ILE86       0.2260
    104  O         14.2090    5.3560   17.8410 O.2    86  ILE86      -0.2867
    105  CB        17.4870    5.4760   17.9520 C.3    86  ILE86       0.0252
    106  CG1       16.9400    6.8140   18.4350 C.3    86  ILE86       0.0019
    107  CG2       18.7290    5.6890   17.0970 C.3    86  ILE86       0.0019
    108  CD1       16.5390    6.8170   19.8970 C.3    86  ILE86       0.0001
    109  N         13.4530    4.4010   21.8210 N.3    88  ASN88      -0.1240
    110  CA        13.6170    4.7580   23.2230 C.3    88  ASN88       0.1653
    111  C         12.4040    4.2570   23.9840 C.2    88  ASN88       0.2266
    112  O         11.2760    4.3710   23.5090 O.2    88  ASN88      -0.2867
    113  CB        13.7330    6.2760   23.3790 C.3    88  ASN88       0.1155
    114  CG        13.9590    6.7040   24.8210 C.2    88  ASN88       0.2627
    115  OD1       14.8120    6.1530   25.5130 O.2    88  ASN88      -0.2716
    116  ND2       13.1910    7.6930   25.2790 N.am   88  ASN88      -0.0877
    117  N         10.2060    4.5380   27.4650 N.3    90  LEU90      -0.1245
    118  CA         9.9120    5.3980   28.6010 C.3    90  LEU90       0.1561
    119  C          9.7570    4.5840   29.8800 C.2    90  LEU90       0.2260
    120  O          9.6100    3.3640   29.8370 O.2    90  LEU90      -0.2867
    121  CB         8.6270    6.1850   28.3390 C.3    90  LEU90       0.0270
    122  CG         8.5780    6.9810   27.0320 C.3    90  LEU90       0.0019
    123  CD1        7.2630    7.7350   26.9240 C.3    90  LEU90       0.0001
    124  CD2        9.7550    7.9390   26.9280 C.3    90  LEU90       0.0001
    125  N          6.0830    2.6030   27.4470 N.3    94  ARG94      -0.1231
    126  CA         5.8160    2.9990   26.0720 C.3    94  ARG94       0.1694
    127  C          7.1080    3.1790   25.2980 C.2    94  ARG94       0.2592
    128  O          8.1120    3.6460   25.8370 O.2    94  ARG94      -0.2718
    129  CB         5.0170    4.2950   26.0270 C.3    94  ARG94       0.0321
    130  CG         3.5540    4.1240   26.3740 C.3    94  ARG94       0.0489
    131  CD         2.8370    5.4570   26.3260 C.3    94  ARG94       0.2205
    132  NE         3.4220    6.4090   27.2660 N.pl3  94  ARG94      -0.0865
    133  CZ         3.0730    7.6870   27.3610 C.cat  94  ARG94       0.5346
    134  NH1        3.6700    8.4660   28.2510 N.pl3  94  ARG94       0.1354
    135  NH2        2.1360    8.1920   26.5680 N.pl3  94  ARG94       0.1354
    136  N          7.0730    2.8050   24.0270 N.am   95  ARG95      -0.1966
    137  CA         8.2120    3.0100   23.1560 C.3    95  ARG95       0.1729
    138  C          7.9960    4.1700   22.2140 C.2    95  ARG95       0.2616
    139  O          6.8920    4.3900   21.7170 O.2    95  ARG95      -0.2715
    140  CB         8.5290    1.7440   22.3760 C.3    95  ARG95       0.0348
    141  CG         9.6010    0.9410   23.0630 C.3    95  ARG95       0.0492
    142  CD         9.4130   -0.5220   22.8890 C.3    95  ARG95       0.2205
    143  NE        10.3210   -1.2650   23.7520 N.pl3  95  ARG95      -0.0865
    144  CZ        10.4810   -2.5790   23.6940 C.cat  95  ARG95       0.5346
    145  NH1        9.7910   -3.2910   22.8150 N.pl3  95  ARG95       0.1354
    146  NH2       11.3310   -3.1790   24.5090 N.pl3  95  ARG95       0.1354
    147  N          9.0550    4.9340   21.9880 N.am   96  VAL96      -0.1977
    148  CA         9.0170    6.0050   21.0100 C.3    96  VAL96       0.1596
    149  C         10.1230    5.7780   19.9950 C.2    96  VAL96       0.2287
    150  O         11.2240    5.3370   20.3330 O.2    96  VAL96      -0.2864
    151  CB         9.1510    7.3930   21.6620 C.3    96  VAL96       0.0276
    152  CG1        7.9620    7.6670   22.5760 C.3    96  VAL96       0.0022
    153  CG2       10.4480    7.5010   22.4260 C.3    96  VAL96       0.0022
    154  N         12.5170    7.4830   17.2870 N.3    98  ILE98      -0.1245
    155  CA        13.0930    8.7520   16.8560 C.3    98  ILE98       0.1561
    156  C         13.6540    8.5960   15.4500 C.2    98  ILE98       0.2260
    157  O         14.5310    7.7640   15.2080 O.2    98  ILE98      -0.2867
    158  CB        14.2080    9.2420   17.8030 C.3    98  ILE98       0.0252
    159  CG1       13.7750    9.1300   19.2690 C.3    98  ILE98       0.0019
    160  CG2       14.6070   10.6710   17.4600 C.3    98  ILE98       0.0019
    161  CD1       12.5300    9.9150   19.6160 C.3    98  ILE98       0.0001
    162  N         15.8990    9.6330   12.5990 N.3   100  MET100     -0.1245
    163  CA        17.1780   10.3380   12.5260 C.3   100  MET100      0.1570
    164  C         17.5380   10.7440   11.1040 C.2   100  MET100      0.2261
    165  O         18.0900   11.8200   10.8820 O.2   100  MET100     -0.2867
    166  CB        18.2950    9.4620   13.0900 C.3   100  MET100      0.0387
    167  CG        18.0820    9.0240   14.5300 C.3   100  MET100      0.0595
    168  SD        17.8640   10.3910   15.6900 S.3   100  MET100     -0.1393
    169  CE        19.4070   11.2830   15.4930 C.3   100  MET100      0.0692
@<TRIPOS>BOND
     1    95    94    2
     2   165   164    2
     3   164   163    1
     4    94    93    1
     5   100    98   am
     6    97    98    1
     7    97    96    1
     8   163   162    1
     9   163   166    1
    10    98    99    2
    11    96    93    1
    12    93    92    1
    13    71    70   ar
    14    71    69   ar
    15   166   167    1
    16    70    68   ar
    17    69    67   ar
    18    68    66   ar
    19    88    87    2
    20    83    82    2
    21    67    66   ar
    22    66    65    1
    23    92    87   am
    24     1     2    1
    25    87    86    1
    26   167   168    1
    27    65    62    1
    28    84    81    1
    29    41    40    2
    30    80    81    1
    31    82    81    1
    32    82    85   am
    33     2     5    1
    34     2     3    1
    35   157   156    2
    36    40    39    1
    37   156   155    1
    38   169   168    1
    39    75    74    2
    40    86    85    1
    41    86    89    1
    42     5     6    1
    43   101   102    1
    44     3     4    2
    45    74    73    1
    46    62    63    1
    47    62    61    1
    48    49    50    1
    49    38    39    1
    50    63    64    2
    51    63    72   am
    52    50    53    1
    53    50    51    1
    54    39    42    1
    55    72    73    1
    56    61    57   am
    57   155   154    1
    58   155   158    1
    59    73    76    1
    60     6     7    1
    61    89    90    1
    62    89    91    1
    63   107   105    1
    64   102   105    1
    65   102   103    1
    66    53    54    1
    67    51    55   am
    68    51    52    2
    69   160   158    1
    70    55    56    1
    71    42    43    1
    72   158   159    1
    73    29    30    2
    74    29    28    1
    75   104   103    2
    76    57    58    2
    77    57    56    1
    78   105   106    1
    79     7     8    1
    80    43    44    1
    81    76    77    1
    82   106   108    1
    83    28    27    1
    84    28    31    1
    85    56    59    1
    86    36    35    1
    87    77    78    1
    88     8     9    2
    89    59    60    1
    90    33    32    1
    91    33    34    1
    92   159   161    1
    93    44    45    1
    94    12    13    1
    95    45    46    2
    96    32    31    1
    97    35    34    2
    98    35    37    1
    99   149   150    2
   100   149   148    1
   101     9    10    1
   102     9    11    1
   103    46    48    1
   104    46    47    1
   105    18    16    1
   106    78    79    1
   107    13    16    1
   108    13    14    1
   109   148   151    1
   110   148   147    1
   111    15    14    2
   112    17    16    1
   113    17    19    1
   114   151   153    1
   115   151   152    1
   116   139   138    2
   117    14    20   am
   118   109   110    1
   119   147   138   am
   120   138   137    1
   121   140   141    1
   122   140   137    1
   123   145   144    1
   124   142   141    1
   125   142   143    1
   126    20    21    1
   127   137   136    1
   128   110   113    1
   129   110   111    1
   130   113   114    1
   131   112   111    2
   132   144   143    2
   133   144   146    1
   134    21    22    1
   135    21    24    1
   136   136   127   am
   137    22    23    2
   138    25    24    1
   139   114   116   am
   140   114   115    2
   141    24    26    1
   142   127   128    2
   143   127   126    1
   144   129   126    1
   145   129   130    1
   146   126   125    1
   147   131   130    1
   148   131   132    1
   149   135   133    1
   150   123   122    1
   151   124   122    1
   152   122   121    1
   153   132   133    2
   154   133   134    1
   155   117   118    1
   156   121   118    1
   157   118   119    1
   158   120   119    2
