@<TRIPOS>MOLECULE
tmp/4r4gA01.pdb
 87 83 0 0 0
SMALL
GASTEIGER

@<TRIPOS>ATOM
      1  N         -0.9300   39.7140   76.4940 N.3    22  LEU22      -0.1231
      2  CA        -0.6520   38.4350   77.1030 C.3    22  LEU22       0.1678
      3  C         -1.8130   37.5650   76.7490 C.2    22  LEU22       0.2434
      4  O         -2.9350   38.0860   76.7290 O.2    22  LEU22      -0.2733
      5  CB        -0.5120   38.5470   78.6330 C.3    22  LEU22       0.0284
      6  CG         0.7750   39.1050   79.2140 C.3    22  LEU22       0.0019
      7  CD1        0.6040   39.2870   80.6800 C.3    22  LEU22       0.0001
      8  CD2        1.9630   38.1780   78.9680 C.3    22  LEU22       0.0001
      9  N         -1.6190   36.2490   76.5470 N.am   23  PRO23      -0.2729
     10  CA        -2.7690   35.3890   76.2430 C.3    23  PRO23       0.1401
     11  C         -3.8350   35.3330   77.3570 C.2    23  PRO23       0.2269
     12  O         -3.6350   35.8150   78.4830 O.2    23  PRO23      -0.2865
     13  CB        -2.1270   34.0170   76.0210 C.3    23  PRO23       0.0296
     14  CG        -0.7790   34.0950   76.6210 C.3    23  PRO23       0.0237
     15  CD        -0.3480   35.4930   76.5260 C.3    23  PRO23       0.0939
     16  N          2.5140   29.6520   73.8150 N.3    31  SER31      -0.1202
     17  CA         3.6400   29.2260   74.6290 C.3    31  SER31       0.2020
     18  C          3.9230   30.3180   75.6450 C.2    31  SER31       0.2619
     19  O          3.3740   31.4280   75.5260 O.2    31  SER31      -0.2717
     20  CB         4.8560   28.9500   73.7590 C.3    31  SER31       0.2103
     21  OG         4.5790   27.7910   72.9950 O.3    31  SER31      -0.2182
     22  N          4.7460   30.0130   76.6660 N.am   32  ASP32      -0.1959
     23  CA         5.0580   30.9870   77.7220 C.3    32  ASP32       0.1840
     24  C          5.8870   32.1480   77.1500 C.2    32  ASP32       0.2622
     25  O          5.8390   33.2810   77.6600 O.2    32  ASP32      -0.2715
     26  CB         5.8060   30.3030   78.8910 C.3    32  ASP32       0.1450
     27  CG         5.1130   29.1150   79.5570 C.2    32  ASP32       0.3671
     28  OD1        3.9100   28.8720   79.2600 O.co2  32  ASP32      -0.2456
     29  OD2        5.7620   28.4450   80.3960 O.co2  32  ASP32      -0.2456
     30  N          6.6150   31.8480   76.0600 N.am   33  ASP33      -0.1957
     31  CA         7.4820   32.7830   75.3650 C.3    33  ASP33       0.1840
     32  C          6.7530   33.5140   74.2210 C.2    33  ASP33       0.2621
     33  O          7.3450   34.3850   73.5720 O.2    33  ASP33      -0.2715
     34  CB         8.7050   32.0240   74.8530 C.3    33  ASP33       0.1450
     35  CG         9.4870   31.3750   75.9820 C.2    33  ASP33       0.3671
     36  OD1        9.8030   32.0860   76.9850 O.co2  33  ASP33      -0.2456
     37  OD2        9.7590   30.1560   75.8880 O.co2  33  ASP33      -0.2456
     38  N          5.4650   33.1910   73.9980 N.am   34  GLN34      -0.1977
     39  CA         4.6830   33.8360   72.9480 C.3    34  GLN34       0.1601
     40  C          3.7610   34.8740   73.5180 C.2    34  GLN34       0.2287
     41  O          3.4240   34.8400   74.7110 O.2    34  GLN34      -0.2864
     42  CB         3.8810   32.8240   72.1250 C.3    34  GLN34       0.0394
     43  CG         4.7400   32.1280   71.1030 C.3    34  GLN34       0.0908
     44  CD         4.0370   31.0320   70.3620 C.2    34  GLN34       0.2608
     45  OE1        3.2410   30.2680   70.9210 O.2    34  GLN34      -0.2717
     46  NE2        4.3600   30.8970   69.0830 N.am   34  GLN34      -0.0878
     47  N          4.3140   43.5070   81.9800 N.3   138  GLN138     -0.1245
     48  CA         4.8170   43.0590   83.2710 C.3   138  GLN138      0.1566
     49  C          4.7600   44.1630   84.3680 C.2   138  GLN138      0.2260
     50  O          5.2390   43.9310   85.4790 O.2   138  GLN138     -0.2867
     51  CB         6.2170   42.4880   83.1100 C.3   138  GLN138      0.0367
     52  CG         6.2330   41.2700   82.1890 C.3   138  GLN138      0.0905
     53  CD         5.5520   40.0790   82.7830 C.2   138  GLN138      0.2608
     54  OE1        5.6410   39.8300   83.9890 O.2   138  GLN138     -0.2717
     55  NE2        4.8630   39.3120   81.9450 N.am  138  GLN138     -0.0878
     56  N          6.1070   37.1380   87.5350 N.3   219  LYS219     -0.1231
     57  CA         5.7300   37.2690   86.1330 C.3   219  LYS219      0.1693
     58  C          4.2490   37.4360   85.9980 C.2   219  LYS219      0.2593
     59  O          3.5100   36.6180   86.5310 O.2   219  LYS219     -0.2718
     60  CB         6.1740   36.0410   85.3150 C.3   219  LYS219      0.0285
     61  CG         6.0200   36.2790   83.8190 C.3   219  LYS219      0.0035
     62  CD         6.0250   35.0390   82.9600 C.3   219  LYS219      0.0206
     63  CE         5.5950   35.4700   81.5720 C.3   219  LYS219      0.1093
     64  NZ         5.7310   34.4030   80.5440 N.3   219  LYS219     -0.1314
     65  N          3.8070   38.4700   85.2740 N.am  220  THR220     -0.1939
     66  CA         2.3910   38.6490   84.9280 C.3   220  THR220      0.2028
     67  C          2.0620   37.5890   83.8590 C.2   220  THR220      0.2642
     68  O          2.7180   37.5560   82.8040 O.2   220  THR220     -0.2714
     69  CB         2.1100   40.0600   84.4390 C.3   220  THR220      0.1808
     70  OG1        2.5950   40.9820   85.4140 O.3   220  THR220     -0.2208
     71  CG2        0.6430   40.2910   84.2040 C.3   220  THR220      0.0379
     72  N          1.0980   36.7040   84.1550 N.am  221  THR221     -0.1950
     73  CA         0.7400   35.6230   83.2510 C.3   221  THR221      0.1897
     74  C         -0.5240   35.9580   82.4190 C.2   221  THR221      0.2313
     75  O         -0.6520   35.4670   81.2910 O.2   221  THR221     -0.2863
     76  CB         0.6280   34.3140   84.0230 C.3   221  THR221      0.1794
     77  OG1       -0.2790   34.4500   85.1240 O.3   221  THR221     -0.2208
     78  CG2        1.9730   33.8420   84.5280 C.3   221  THR221      0.0378
     79  N          2.2670   35.5650   88.6970 N.3   231  GLU231     -0.1245
     80  CA         2.7650   34.2740   89.1260 C.3   231  GLU231      0.1567
     81  C          4.0660   34.5260   89.8810 C.2   231  GLU231      0.2260
     82  O          5.0650   34.9480   89.2900 O.2   231  GLU231     -0.2867
     83  CB         2.9580   33.3960   87.8850 C.3   231  GLU231      0.0388
     84  CG         3.1990   31.9240   88.1320 C.3   231  GLU231      0.1160
     85  CD         2.7640   31.0260   86.9870 C.2   231  GLU231      0.3649
     86  OE1        1.5790   31.1010   86.5770 O.co2 231  GLU231     -0.2457
     87  OE2        3.6050   30.2230   86.5200 O.co2 231  GLU231     -0.2457
@<TRIPOS>BOND
     1    46    44   am
     2    44    45    2
     3    44    43    1
     4    43    42    1
     5    42    39    1
     6    39    40    1
     7    39    38    1
     8    21    20    1
     9    40    41    2
    10    33    32    2
    11    20    17    1
    12    16    17    1
    13    38    32   am
    14    32    31    1
    15    17    18    1
    16    34    31    1
    17    34    35    1
    18    31    30    1
    19    19    18    2
    20    18    22   am
    21    37    35   ar
    22    35    36   ar
    23    13    10    1
    24    13    14    1
    25    30    24   am
    26    10     9    1
    27    10    11    1
    28     1     2    1
    29    15     9    1
    30    15    14    1
    31     9     3   am
    32    22    23    1
    33     4     3    2
    34     3     2    1
    35     2     5    1
    36    24    25    2
    37    24    23    1
    38    11    12    2
    39    23    26    1
    40     5     6    1
    41    26    27    1
    42     8     6    1
    43     6     7    1
    44    28    27   ar
    45    27    29   ar
    46    64    63    1
    47    75    74    2
    48    63    62    1
    49    55    53   am
    50    47    48    1
    51    52    53    1
    52    52    51    1
    53    74    73    1
    54    53    54    2
    55    68    67    2
    56    62    61    1
    57    51    48    1
    58    73    76    1
    59    73    72    1
    60    48    49    1
    61    61    60    1
    62    67    72   am
    63    67    66    1
    64    76    78    1
    65    76    77    1
    66    71    69    1
    67    49    50    2
    68    69    66    1
    69    69    70    1
    70    66    65    1
    71    65    58   am
    72    60    57    1
    73    58    57    1
    74    58    59    2
    75    57    56    1
    76    87    85   ar
    77    86    85   ar
    78    85    84    1
    79    83    84    1
    80    83    80    1
    81    79    80    1
    82    80    81    1
    83    82    81    2
