@<TRIPOS>MOLECULE
tmp/4r4gA02.pdb
 134 128 0 0 0
SMALL
GASTEIGER

@<TRIPOS>ATOM
      1  N          7.1910   45.3940  102.1830 N.3   151  LEU151     -0.1231
      2  CA         6.5580   44.6070  103.2360 C.3   151  LEU151      0.1693
      3  C          7.3730   43.4800  103.7640 C.2   151  LEU151      0.2591
      4  O          7.3830   43.2820  104.9730 O.2   151  LEU151     -0.2718
      5  CB         5.2420   43.9860  102.7770 C.3   151  LEU151      0.0284
      6  CG         4.0940   44.8770  102.3780 C.3   151  LEU151      0.0019
      7  CD1        2.9550   44.0270  101.9240 C.3   151  LEU151      0.0001
      8  CD2        3.6680   45.7770  103.5130 C.3   151  LEU151      0.0001
      9  N          7.9320   42.6430  102.8840 N.am  152  LEU152     -0.1980
     10  CA         8.6160   41.4320  103.3250 C.3   152  LEU152      0.1596
     11  C         10.1090   41.6060  103.4980 C.2   152  LEU152      0.2287
     12  O         10.6730   41.0240  104.4220 O.2   152  LEU152     -0.2864
     13  CB         8.3240   40.2950  102.3350 C.3   152  LEU152      0.0297
     14  CG         6.8750   39.8060  102.3600 C.3   152  LEU152      0.0022
     15  CD1        6.5080   39.1820  101.1000 C.3   152  LEU152      0.0001
     16  CD2        6.6300   38.8410  103.4970 C.3   152  LEU152      0.0001
     17  N          0.8620   45.9240  108.2730 N.3   175  PHE175     -0.1241
     18  CA         1.4410   44.5960  108.0610 C.3   175  PHE175      0.1605
     19  C          2.2210   44.1570  109.2800 C.2   175  PHE175      0.2264
     20  O          1.9660   43.0720  109.7800 O.2   175  PHE175     -0.2867
     21  CB         2.3300   44.5480  106.7970 C.3   175  PHE175      0.0534
     22  CG         3.0250   43.2170  106.5670 C.ar  175  PHE175     -0.0203
     23  CD1        2.3760   42.1770  105.9060 C.ar  175  PHE175     -0.0042
     24  CD2        4.3310   43.0060  107.0160 C.ar  175  PHE175     -0.0042
     25  CE1        3.0130   40.9460  105.7140 C.ar  175  PHE175     -0.0003
     26  CE2        4.9640   41.7770  106.8230 C.ar  175  PHE175     -0.0003
     27  CZ         4.3050   40.7590  106.1690 C.ar  175  PHE175     -0.0000
     28  N         -0.1340   43.4090  112.2810 N.3   178  SER178     -0.1202
     29  CA        -0.8330   42.1620  111.9950 C.3   178  SER178      0.2020
     30  C          0.1220   40.9700  112.1930 C.2   178  SER178      0.2619
     31  O         -0.2720   39.9700  112.7910 O.2   178  SER178     -0.2717
     32  CB        -1.3840   42.2050  110.5710 C.3   178  SER178      0.2103
     33  OG        -1.9200   40.9670  110.1380 O.3   178  SER178     -0.2182
     34  N          1.3890   41.1170  111.7450 N.am  179  ALA179     -0.1965
     35  CA         2.4340   40.1020  111.8370 C.3   179  ALA179      0.1728
     36  C          2.8430   39.8260  113.2880 C.2   179  ALA179      0.2616
     37  O          3.0550   38.6680  113.6270 O.2   179  ALA179     -0.2715
     38  CB         3.6450   40.5330  111.0320 C.3   179  ALA179      0.0334
     39  N          2.9620   40.8750  114.1320 N.am  180  LYS180     -0.1977
     40  CA         3.3140   40.7630  115.5470 C.3   180  LYS180      0.1596
     41  C          2.1970   40.1000  116.3300 C.2   180  LYS180      0.2287
     42  O          2.4640   39.2370  117.1710 O.2   180  LYS180     -0.2864
     43  CB         3.6100   42.1410  116.1490 C.3   180  LYS180      0.0298
     44  CG         4.9870   42.6800  115.8000 C.3   180  LYS180      0.0038
     45  CD         5.3530   43.9000  116.6230 C.3   180  LYS180      0.0206
     46  CE         4.6500   45.1470  116.1840 C.3   180  LYS180      0.1093
     47  NZ         4.9870   46.2980  117.0440 N.3   180  LYS180     -0.1314
     48  N          1.9960   36.4700  115.4130 N.3   183  TYR183     -0.1241
     49  CA         3.1330   35.7450  115.9830 C.3   183  TYR183      0.1605
     50  C          2.8040   35.3300  117.4240 C.2   183  TYR183      0.2264
     51  O          2.9580   34.1560  117.7690 O.2   183  TYR183     -0.2867
     52  CB         4.4420   36.5800  115.9210 C.3   183  TYR183      0.0534
     53  CG         5.6140   35.8840  116.5830 C.ar  183  TYR183     -0.0201
     54  CD1        6.4010   34.9750  115.8800 C.ar  183  TYR183     -0.0009
     55  CD2        5.8970   36.0810  117.9340 C.ar  183  TYR183     -0.0009
     56  CE1        7.4450   34.2870  116.5010 C.ar  183  TYR183      0.0417
     57  CE2        6.9280   35.3870  118.5680 C.ar  183  TYR183      0.0417
     58  CZ         7.7040   34.4960  117.8460 C.ar  183  TYR183      0.1957
     59  OH         8.7250   33.8200  118.4680 O.3   183  TYR183     -0.2866
     60  N         12.2310   41.0640  116.1160 N.3   202  ILE202     -0.1231
     61  CA        11.8430   39.8190  115.4510 C.3   202  ILE202      0.1692
     62  C         11.4000   40.1460  114.0020 C.2   202  ILE202      0.2591
     63  O         11.9070   39.5410  113.0580 O.2   202  ILE202     -0.2718
     64  CB        10.7620   39.0480  116.2840 C.3   202  ILE202      0.0266
     65  CG1       11.4450   38.1980  117.3830 C.3   202  ILE202      0.0019
     66  CG2        9.8540   38.1640  115.3920 C.3   202  ILE202      0.0020
     67  CD1       10.5480   37.6600  118.4760 C.3   202  ILE202      0.0001
     68  N         10.5090   41.1230  113.8360 N.am  203  VAL203     -0.1980
     69  CA         9.9990   41.5660  112.5380 C.3   203  VAL203      0.1595
     70  C         11.1340   42.0860  111.6760 C.2   203  VAL203      0.2287
     71  O         11.2890   41.6330  110.5400 O.2   203  VAL203     -0.2864
     72  CB         8.9120   42.6390  112.7190 C.3   203  VAL203      0.0276
     73  CG1        8.4110   43.1520  111.3770 C.3   203  VAL203      0.0022
     74  CG2        7.7620   42.0990  113.5530 C.3   203  VAL203      0.0022
     75  N         13.4950   39.0720  110.7380 N.3   206  ILE206     -0.1231
     76  CA        12.8660   38.2130  109.7130 C.3   206  ILE206      0.1692
     77  C         12.9790   38.9000  108.3500 C.2   206  ILE206      0.2591
     78  O         13.4470   38.2770  107.4040 O.2   206  ILE206     -0.2718
     79  CB        11.3880   37.8530  110.0510 C.3   206  ILE206      0.0266
     80  CG1       11.3190   36.8060  111.1720 C.3   206  ILE206      0.0019
     81  CG2       10.6490   37.3550  108.8310 C.3   206  ILE206      0.0020
     82  CD1        9.9880   36.7630  111.8700 C.3   206  ILE206      0.0001
     83  N         12.6140   40.1880  108.2670 N.am  207  LYS207     -0.1980
     84  CA        12.7120   40.9870  107.0380 C.3   207  LYS207      0.1596
     85  C         14.1450   41.0820  106.5050 C.2   207  LYS207      0.2287
     86  O         14.3370   41.0100  105.2970 O.2   207  LYS207     -0.2864
     87  CB        12.1510   42.4030  107.2400 C.3   207  LYS207      0.0298
     88  CG        10.6430   42.4500  107.4020 C.3   207  LYS207      0.0038
     89  CD        10.1320   43.8440  107.2300 C.3   207  LYS207      0.0206
     90  CE         8.6990   43.9250  107.6670 C.3   207  LYS207      0.1093
     91  NZ         8.0430   45.1450  107.1220 N.3   207  LYS207     -0.1314
     92  N         14.8880   37.5690  105.0290 N.3   210  LEU210     -0.1245
     93  CA        14.1910   37.3410  103.7700 C.3   210  LEU210      0.1561
     94  C         14.7870   38.1690  102.6550 C.2   210  LEU210      0.2260
     95  O         14.9320   37.6510  101.5560 O.2   210  LEU210     -0.2867
     96  CB        12.6840   37.6040  103.8870 C.3   210  LEU210      0.0270
     97  CG        11.8900   36.7560  104.9020 C.3   210  LEU210      0.0019
     98  CD1       10.4330   37.1560  104.9110 C.3   210  LEU210      0.0001
     99  CD2       11.9750   35.2680  104.6070 C.3   210  LEU210      0.0001
    100  N          2.8040   35.6920  101.3000 N.3   312  VAL312     -0.1231
    101  CA         3.5910   35.9820  102.4990 C.3   312  VAL312      0.1692
    102  C          4.0450   34.6630  103.1540 C.2   312  VAL312      0.2591
    103  O          5.2280   34.5350  103.4560 O.2   312  VAL312     -0.2718
    104  CB         2.7940   36.8860  103.4700 C.3   312  VAL312      0.0266
    105  CG1        3.5640   37.1440  104.7540 C.3   312  VAL312      0.0020
    106  CG2        2.4270   38.2080  102.8030 C.3   312  VAL312      0.0020
    107  N          3.1390   33.6670  103.2890 N.am  313  GLU313     -0.1979
    108  CA         3.4350   32.3550  103.8950 C.3   313  GLU313      0.1602
    109  C          4.4600   31.5620  103.0970 C.2   313  GLU313      0.2287
    110  O          5.1320   30.7000  103.6590 O.2   313  GLU313     -0.2864
    111  CB         2.1570   31.5040  104.0340 C.3   313  GLU313      0.0415
    112  CG         1.2430   31.9010  105.1840 C.3   313  GLU313      0.1163
    113  CD        -0.1490   31.2840  105.1970 C.2   313  GLU313      0.3649
    114  OE1       -0.5820   30.7290  104.1580 O.co2 313  GLU313     -0.2457
    115  OE2       -0.8260   31.3930  106.2470 O.co2 313  GLU313     -0.2457
    116  N          7.2410   32.5250  101.8410 N.3   315  PHE315     -0.1227
    117  CA         8.6070   33.0090  102.0340 C.3   315  PHE315      0.1736
    118  C          9.3890   32.2670  103.1090 C.2   315  PHE315      0.2595
    119  O         10.6130   32.3800  103.1380 O.2   315  PHE315     -0.2718
    120  CB         8.5930   34.5100  102.3130 C.3   315  PHE315      0.0547
    121  CG         8.5070   35.3060  101.0290 C.ar  315  PHE315     -0.0202
    122  CD1        7.2750   35.6050  100.4580 C.ar  315  PHE315     -0.0042
    123  CD2        9.6610   35.6950  100.3520 C.ar  315  PHE315     -0.0042
    124  CE1        7.1990   36.2890   99.2480 C.ar  315  PHE315     -0.0003
    125  CE2        9.5780   36.3880   99.1480 C.ar  315  PHE315     -0.0003
    126  CZ         8.3470   36.7020   98.6200 C.ar  315  PHE315     -0.0000
    127  N          8.7090   31.4930  103.9660 N.am  316  ILE316     -0.1980
    128  CA         9.3420   30.7320  105.0350 C.3   316  ILE316      0.1595
    129  C          8.8270   29.3000  105.0130 C.2   316  ILE316      0.2287
    130  O          7.6320   29.0590  105.1910 O.2   316  ILE316     -0.2864
    131  CB         9.1470   31.3910  106.4350 C.3   316  ILE316      0.0276
    132  CG1        9.8230   32.7800  106.5160 C.3   316  ILE316      0.0022
    133  CG2        9.6500   30.4600  107.5670 C.3   316  ILE316      0.0022
    134  CD1        9.4030   33.6450  107.7160 C.3   316  ILE316      0.0001
@<TRIPOS>BOND
     1   126   125   ar
     2   126   124   ar
     3   125   123   ar
     4   124   122   ar
     5   123   121   ar
     6   122   121   ar
     7   121   120    1
     8    15    14    1
     9   100   101    1
    10    95    94    2
    11   116   117    1
    12     7     6    1
    13   117   120    1
    14   117   118    1
    15     1     2    1
    16    13    14    1
    17    13    10    1
    18    14    16    1
    19     6     5    1
    20     6     8    1
    21   101   102    1
    22   101   104    1
    23    94    93    1
    24     5     2    1
    25   106   104    1
    26     9    10    1
    27     9     3   am
    28   109   110    2
    29   109   108    1
    30   118   119    2
    31   118   127   am
    32   102   107   am
    33   102   103    2
    34     2     3    1
    35   107   108    1
    36    10    11    1
    37   104   105    1
    38    11    12    2
    39     3     4    2
    40    93    96    1
    41    93    92    1
    42    96    97    1
    43   108   111    1
    44   127   128    1
    45   111   112    1
    46   114   113   ar
    47    99    97    1
    48    97    98    1
    49   129   128    1
    50   129   130    2
    51   128   131    1
    52   112   113    1
    53   113   115   ar
    54    86    85    2
    55    25    23   ar
    56    25    27   ar
    57    23    22   ar
    58    27    26   ar
    59   131   132    1
    60   131   133    1
    61    85    84    1
    62   132   134    1
    63    22    21    1
    64    22    24   ar
    65    21    18    1
    66    26    24   ar
    67    84    87    1
    68    84    83    1
    69    91    90    1
    70    89    88    1
    71    89    90    1
    72    87    88    1
    73    78    77    2
    74    18    17    1
    75    18    19    1
    76    83    77   am
    77    77    76    1
    78    81    79    1
    79    19    20    2
    80    76    79    1
    81    76    75    1
    82    79    80    1
    83    33    32    1
    84    71    70    2
    85    32    29    1
    86    38    35    1
    87    80    82    1
    88    73    72    1
    89    70    69    1
    90    34    35    1
    91    34    30   am
    92    35    36    1
    93    29    30    1
    94    29    28    1
    95    30    31    2
    96    69    72    1
    97    69    68    1
    98    72    74    1
    99    63    62    2
   100    36    37    2
   101    36    39   am
   102    68    62   am
   103    62    61    1
   104    39    40    1
   105    66    64    1
   106    48    49    1
   107    61    60    1
   108    61    64    1
   109    40    43    1
   110    40    41    1
   111    44    43    1
   112    44    45    1
   113    54    56   ar
   114    54    53   ar
   115    52    49    1
   116    52    53    1
   117    49    50    1
   118    46    45    1
   119    46    47    1
   120    64    65    1
   121    41    42    2
   122    56    58   ar
   123    53    55   ar
   124    65    67    1
   125    50    51    2
   126    58    59    1
   127    58    57   ar
   128    55    57   ar
