@<TRIPOS>MOLECULE
tmp/4r4iA00.pdb
 169 158 0 0 0
SMALL
GASTEIGER

@<TRIPOS>ATOM
      1  N          2.3720   16.9730   14.1390 N.3    34  ARG34      -0.1245
      2  CA         2.0470   18.1240   14.9910 C.3    34  ARG34       0.1563
      3  C          3.1740   18.3980   15.9630 C.2    34  ARG34       0.2260
      4  O          3.9380   17.4940   16.3430 O.2    34  ARG34      -0.2867
      5  CB         0.7310   17.9270   15.7240 C.3    34  ARG34       0.0307
      6  CG         0.8080   16.9480   16.8320 C.3    34  ARG34       0.0489
      7  CD        -0.3020   17.1490   17.8970 C.3    34  ARG34       0.2205
      8  NE        -0.0950   16.1960   18.9900 N.pl3  34  ARG34      -0.0865
      9  CZ         0.5000   16.4740   20.1470 C.cat  34  ARG34       0.5346
     10  NH1        0.9220   17.7090   20.4140 N.pl3  34  ARG34       0.1354
     11  NH2        0.6540   15.5090   21.0510 N.pl3  34  ARG34       0.1354
     12  N          4.8280   19.0550   19.5970 N.3    36  ILE36      -0.1231
     13  CA         4.4880   18.7020   20.9670 C.3    36  ILE36       0.1692
     14  C          4.8490   19.8760   21.8280 C.2    36  ILE36       0.2592
     15  O          5.6170   20.7540   21.4220 O.2    36  ILE36      -0.2718
     16  CB         5.2040   17.4380   21.4550 C.3    36  ILE36       0.0266
     17  CG1        6.7010   17.6480   21.5130 C.3    36  ILE36       0.0019
     18  CG2        4.9100   16.2730   20.5370 C.3    36  ILE36       0.0020
     19  CD1        7.3850   16.7810   22.5330 C.3    36  ILE36       0.0001
     20  N          4.3180   19.8830   23.0370 N.am   37  THR37      -0.1953
     21  CA         4.6320   20.9630   23.9630 C.3    37  THR37       0.1897
     22  C          6.0760   20.8740   24.4580 C.2    37  THR37       0.2313
     23  O          6.4730   19.8720   25.0400 O.2    37  THR37      -0.2863
     24  CB         3.6760   20.9220   25.1200 C.3    37  THR37       0.1794
     25  OG1        2.3420   21.0900   24.6120 O.3    37  THR37      -0.2208
     26  CG2        4.0000   22.0380   26.1090 C.3    37  THR37       0.0378
     27  N          9.6500   20.3180   18.7730 N.3    44  ARG44      -0.1245
     28  CA         9.7460   18.8880   18.5060 C.3    44  ARG44       0.1563
     29  C          8.4520   18.4610   17.8440 C.2    44  ARG44       0.2260
     30  O          7.3560   18.8920   18.2650 O.2    44  ARG44      -0.2867
     31  CB         9.9920   18.0610   19.7750 C.3    44  ARG44       0.0307
     32  CG        10.4310   16.6430   19.4180 C.3    44  ARG44       0.0489
     33  CD        11.0280   15.8460   20.5620 C.3    44  ARG44       0.2205
     34  NE        12.3870   16.2630   20.8990 N.pl3  44  ARG44      -0.0865
     35  CZ        13.4940   15.8560   20.2740 C.cat  44  ARG44       0.5346
     36  NH1       13.4410   15.0180   19.2370 N.pl3  44  ARG44       0.1354
     37  NH2       14.6740   16.2980   20.6930 N.pl3  44  ARG44       0.1354
     38  N          5.8490   15.3820   16.5270 N.3    46  ARG46      -0.1245
     39  CA         5.3150   14.0340   16.6150 C.3    46  ARG46       0.1563
     40  C          4.6270   13.6740   15.2930 C.2    46  ARG46       0.2260
     41  O          3.9460   14.5100   14.6780 O.2    46  ARG46      -0.2867
     42  CB         4.3200   13.9460   17.7960 C.3    46  ARG46       0.0307
     43  CG         3.7370   12.5710   18.0390 C.3    46  ARG46       0.0489
     44  CD         2.8570   12.6030   19.2880 C.3    46  ARG46       0.2205
     45  NE         2.2440   11.3080   19.5440 N.pl3  46  ARG46      -0.0865
     46  CZ         1.4930   11.0540   20.6070 C.cat  46  ARG46       0.5346
     47  NH1        1.2810   12.0150   21.5040 N.pl3  46  ARG46       0.1354
     48  NH2        0.9580    9.8480   20.7830 N.pl3  46  ARG46       0.1354
     49  N          1.3860    6.3610   16.2910 N.3    57  SER57      -0.1202
     50  CA         1.5180    7.7690   16.6520 C.3    57  SER57       0.2020
     51  C          2.7330    8.1000   17.5160 C.2    57  SER57       0.2619
     52  O          2.9160    9.2320   17.9210 O.2    57  SER57      -0.2717
     53  CB         0.2540    8.2700   17.4030 C.3    57  SER57       0.2103
     54  OG         0.1620    7.7220   18.7010 O.3    57  SER57      -0.2182
     55  N          3.5630    7.1100   17.7760 N.am   58  SER58      -0.1937
     56  CA         4.6730    7.3340   18.6970 C.3    58  SER58       0.2055
     57  C          6.0140    7.6580   18.0200 C.2    58  SER58       0.2643
     58  O          7.0770    7.4920   18.5930 O.2    58  SER58      -0.2714
     59  CB         4.8300    6.1450   19.6300 C.3    58  SER58       0.2130
     60  OG         5.1250    4.9760   18.8970 O.3    58  SER58      -0.2179
     61  N          5.9600    8.2040   16.8240 N.am   59  PHE59      -0.1959
     62  CA         7.1580    8.6740   16.1390 C.3    59  PHE59       0.1771
     63  C          7.4450   10.1200   16.5090 C.2    59  PHE59       0.2619
     64  O          6.5290   10.9580   16.6020 O.2    59  PHE59      -0.2715
     65  CB         6.9690    8.6040   14.6280 C.3    59  PHE59       0.0574
     66  CG         6.9140    7.2280   14.0700 C.ar   59  PHE59      -0.0200
     67  CD1        5.7050    6.5920   13.8710 C.ar   59  PHE59      -0.0042
     68  CD2        8.0610    6.5590   13.7270 C.ar   59  PHE59      -0.0042
     69  CE1        5.6450    5.3120   13.3290 C.ar   59  PHE59      -0.0003
     70  CE2        8.0100    5.2880   13.1660 C.ar   59  PHE59      -0.0003
     71  CZ         6.7970    4.6570   12.9790 C.ar   59  PHE59      -0.0000
     72  N          8.7170   10.3960   16.7490 N.am   60  MET60      -0.1977
     73  CA         9.1780   11.7600   16.9340 C.3    60  MET60       0.1605
     74  C         10.3410   12.0350   15.9950 C.2    60  MET60       0.2287
     75  O         11.1920   11.1830   15.7410 O.2    60  MET60      -0.2864
     76  CB         9.6350   12.0170   18.3760 C.3    60  MET60       0.0413
     77  CG         8.5780   11.7710   19.4510 C.3    60  MET60       0.0598
     78  SD         8.6120   13.0190   20.7640 S.3    60  MET60      -0.1393
     79  CE         7.8420   14.3630   19.8680 C.3    60  MET60       0.0692
     80  N         13.8580   13.6370   15.0570 N.3    62  ALA62      -0.1231
     81  CA        15.0570   14.2520   15.6170 C.3    62  ALA62       0.1694
     82  C         15.0680   15.7240   15.2560 C.2    62  ALA62       0.2593
     83  O         14.6740   16.1050   14.1670 O.2    62  ALA62      -0.2718
     84  CB        16.2980   13.5560   15.0770 C.3    62  ALA62       0.0304
     85  N         15.5070   16.5790   16.1760 N.am   63  THR63      -0.1939
     86  CA        15.4420   18.0030   15.9190 C.3    63  THR63       0.2028
     87  C         16.2780   18.4550   14.7140 C.2    63  THR63       0.2642
     88  O         15.9500   19.4540   14.0700 O.2    63  THR63      -0.2714
     89  CB        15.7230   18.8380   17.1930 C.3    63  THR63       0.1808
     90  OG1       16.9860   18.4700   17.7190 O.3    63  THR63      -0.2208
     91  CG2       14.6470   18.5540   18.2370 C.3    63  THR63       0.0379
     92  N         17.3140   17.6850   14.3750 N.am   64  GLN64      -0.1976
     93  CA        18.1170   17.9950   13.1950 C.3    64  GLN64       0.1601
     94  C         17.2990   17.9080   11.9130 C.2    64  GLN64       0.2287
     95  O         17.6640   18.4780   10.9010 O.2    64  GLN64      -0.2864
     96  CB        19.3360   17.0720   13.0810 C.3    64  GLN64       0.0394
     97  CG        18.9670   15.6070   12.8850 C.3    64  GLN64       0.0908
     98  CD        20.1690   14.6860   12.9360 C.2    64  GLN64       0.2608
     99  OE1       21.2590   15.1040   13.3260 O.2    64  GLN64      -0.2717
    100  NE2       19.9750   13.4340   12.5610 N.am   64  GLN64      -0.0878
    101  N         15.9190    5.1050   16.0300 N.3    86  ILE86      -0.1245
    102  CA        16.1150    4.3070   17.2350 C.3    86  ILE86       0.1561
    103  C         14.8290    4.2560   18.0030 C.2    86  ILE86       0.2260
    104  O         13.9530    5.1190   17.8690 O.2    86  ILE86      -0.2867
    105  CB        17.1940    4.8500   18.1460 C.3    86  ILE86       0.0252
    106  CG1       16.9260    6.3010   18.4530 C.3    86  ILE86       0.0019
    107  CG2       18.5710    4.6750   17.5190 C.3    86  ILE86       0.0019
    108  CD1       17.7550    6.8370   19.6040 C.3    86  ILE86       0.0001
    109  N         13.2540    4.2240   21.8080 N.3    88  ASN88      -0.1240
    110  CA        13.4580    4.4760   23.2310 C.3    88  ASN88       0.1653
    111  C         12.2180    4.1000   24.0080 C.2    88  ASN88       0.2266
    112  O         11.1020    4.1760   23.5250 O.2    88  ASN88      -0.2867
    113  CB        13.8230    5.9360   23.4950 C.3    88  ASN88       0.1155
    114  CG        15.3060    6.2040   23.3320 C.2    88  ASN88       0.2627
    115  OD1       16.1480    5.3410   23.5860 O.2    88  ASN88      -0.2716
    116  ND2       15.6330    7.4010   22.8830 N.am   88  ASN88      -0.0877
    117  N         10.1000    4.6050   27.5760 N.3    90  LEU90      -0.1245
    118  CA         9.8650    5.4680   28.7200 C.3    90  LEU90       0.1561
    119  C          9.7560    4.6580   30.0040 C.2    90  LEU90       0.2260
    120  O          9.5500    3.4350   29.9870 O.2    90  LEU90      -0.2867
    121  CB         8.5800    6.2690   28.4940 C.3    90  LEU90       0.0270
    122  CG         8.5580    7.0830   27.1900 C.3    90  LEU90       0.0019
    123  CD1        7.3050    7.9330   27.2310 C.3    90  LEU90       0.0001
    124  CD2        9.7750    7.9430   27.0150 C.3    90  LEU90       0.0001
    125  N          5.9340    2.7850   27.6470 N.3    94  ARG94      -0.1231
    126  CA         5.6320    3.1630   26.2680 C.3    94  ARG94       0.1694
    127  C          6.8980    3.3430   25.4510 C.2    94  ARG94       0.2592
    128  O          7.9580    3.7390   25.9490 O.2    94  ARG94      -0.2718
    129  CB         4.8040    4.4330   26.2040 C.3    94  ARG94       0.0321
    130  CG         3.3780    4.2270   26.7370 C.3    94  ARG94       0.0489
    131  CD         2.6020    5.5360   26.8390 C.3    94  ARG94       0.2205
    132  NE         3.2320    6.4550   27.7700 N.pl3  94  ARG94      -0.0865
    133  CZ         2.9400    7.7450   27.8720 C.cat  94  ARG94       0.5346
    134  NH1        3.5780    8.4850   28.7610 N.pl3  94  ARG94       0.1354
    135  NH2        2.0280    8.2900   27.0810 N.pl3  94  ARG94       0.1354
    136  N          6.7830    3.0740   24.1710 N.am   95  ARG95      -0.1966
    137  CA         7.9070    3.2160   23.2740 C.3    95  ARG95       0.1729
    138  C          7.7170    4.3590   22.3260 C.2    95  ARG95       0.2616
    139  O          6.5950    4.6260   21.8910 O.2    95  ARG95      -0.2715
    140  CB         8.1860    1.9090   22.5600 C.3    95  ARG95       0.0348
    141  CG         8.8950    0.9620   23.5290 C.3    95  ARG95       0.0492
    142  CD         9.2700   -0.3300   22.9220 C.3    95  ARG95       0.2205
    143  NE        10.1350   -1.1140   23.8160 N.pl3  95  ARG95      -0.0865
    144  CZ        10.3270   -2.4130   23.6930 C.cat  95  ARG95       0.5346
    145  NH1        9.7280   -3.1020   22.7310 N.pl3  95  ARG95       0.1354
    146  NH2       11.1310   -3.0330   24.5280 N.pl3  95  ARG95       0.1354
    147  N          8.8210    5.0490   22.0830 N.am   96  VAL96      -0.1977
    148  CA         8.9290    6.1990   21.1930 C.3    96  VAL96       0.1596
    149  C          9.9250    5.8360   20.0890 C.2    96  VAL96       0.2287
    150  O         11.0120    5.3090   20.3740 O.2    96  VAL96      -0.2864
    151  CB         9.4900    7.4090   21.9710 C.3    96  VAL96       0.0276
    152  CG1        9.6850    8.6150   21.0570 C.3    96  VAL96       0.0022
    153  CG2        8.5900    7.7760   23.1430 C.3    96  VAL96       0.0022
    154  N         12.3540    7.3520   17.3780 N.3    98  ILE98      -0.1245
    155  CA        12.9870    8.6030   16.9860 C.3    98  ILE98       0.1561
    156  C         13.5690    8.4800   15.5760 C.2    98  ILE98       0.2260
    157  O         14.4270    7.6190   15.3220 O.2    98  ILE98      -0.2867
    158  CB        14.1140    8.9570   17.9630 C.3    98  ILE98       0.0252
    159  CG1       13.6080    8.8810   19.4170 C.3    98  ILE98       0.0019
    160  CG2       14.6850   10.3260   17.6390 C.3    98  ILE98       0.0019
    161  CD1       12.5540    9.9140   19.7720 C.3    98  ILE98       0.0001
    162  N         15.8480    9.6070   12.7480 N.3   100  MET100     -0.1245
    163  CA        17.1120   10.3280   12.6910 C.3   100  MET100      0.1570
    164  C         17.5080   10.7720   11.2880 C.2   100  MET100      0.2261
    165  O         18.0430   11.8700   11.0920 O.2   100  MET100     -0.2867
    166  CB        18.1930    9.4340   13.2820 C.3   100  MET100      0.0387
    167  CG        17.9240    9.0180   14.7050 C.3   100  MET100      0.0595
    168  SD        17.8240   10.3540   15.9130 S.3   100  MET100     -0.1393
    169  CE        19.3920   11.1880   15.6970 C.3   100  MET100      0.0692
@<TRIPOS>BOND
     1    95    94    2
     2   165   164    2
     3   164   163    1
     4    94    93    1
     5   100    98   am
     6   163   162    1
     7   163   166    1
     8    97    98    1
     9    97    96    1
    10    98    99    2
    11    71    70   ar
    12    71    69   ar
    13    96    93    1
    14    70    68   ar
    15    93    92    1
    16   166   167    1
    17    69    67   ar
    18    68    66   ar
    19    67    66   ar
    20    88    87    2
    21    66    65    1
    22     1     2    1
    23    83    82    2
    24    92    87   am
    25    65    62    1
    26    41    40    2
    27   167   168    1
    28    87    86    1
    29     2     5    1
    30     2     3    1
    31    80    81    1
    32    84    81    1
    33    82    81    1
    34    82    85   am
    35    40    39    1
    36   157   156    2
    37   156   155    1
    38   169   168    1
    39     5     6    1
    40    75    74    2
    41    86    85    1
    42    86    89    1
    43     3     4    2
    44    74    73    1
    45   101   102    1
    46    62    63    1
    47    62    61    1
    48    49    50    1
    49    63    64    2
    50    63    72   am
    51    38    39    1
    52    39    42    1
    53    50    53    1
    54    50    51    1
    55    72    73    1
    56    61    57   am
    57     6     7    1
    58    73    76    1
    59   155   154    1
    60   155   158    1
    61    89    90    1
    62    89    91    1
    63   102   103    1
    64   102   105    1
    65    53    54    1
    66    51    55   am
    67    51    52    2
    68   107   105    1
    69   160   158    1
    70    55    56    1
    71    42    43    1
    72    29    30    2
    73    29    28    1
    74   104   103    2
    75     7     8    1
    76   158   159    1
    77    57    58    2
    78    57    56    1
    79    43    44    1
    80   105   106    1
    81    76    77    1
    82   106   108    1
    83    28    27    1
    84    28    31    1
    85    56    59    1
    86    60    59    1
    87     8     9    2
    88    36    35    1
    89    44    45    1
    90   159   161    1
    91    32    31    1
    92    32    33    1
    93    77    78    1
    94    45    46    2
    95    12    13    1
    96    79    78    1
    97   149   150    2
    98   149   148    1
    99     9    10    1
   100     9    11    1
   101    35    37    1
   102    35    34    2
   103    18    16    1
   104    33    34    1
   105    46    48    1
   106    46    47    1
   107    13    16    1
   108    13    14    1
   109   152   151    1
   110   148   151    1
   111   148   147    1
   112    15    14    2
   113    16    17    1
   114    17    19    1
   115   109   110    1
   116    14    20   am
   117   139   138    2
   118   151   153    1
   119   147   138   am
   120   138   137    1
   121   140   137    1
   122   140   141    1
   123   145   144    1
   124   116   114   am
   125   142   141    1
   126   142   143    1
   127    20    21    1
   128   110   113    1
   129   110   111    1
   130   137   136    1
   131   114   113    1
   132   114   115    2
   133   112   111    2
   134   144   143    2
   135   144   146    1
   136    21    22    1
   137    21    24    1
   138   136   127   am
   139    22    23    2
   140    25    24    1
   141    24    26    1
   142   127   128    2
   143   127   126    1
   144   129   126    1
   145   129   130    1
   146   126   125    1
   147   130   131    1
   148   131   132    1
   149   124   122    1
   150   135   133    1
   151   122   123    1
   152   122   121    1
   153   117   118    1
   154   132   133    2
   155   133   134    1
   156   121   118    1
   157   118   119    1
   158   120   119    2
