@<TRIPOS>MOLECULE
tmp/4r4kB02.pdb
 79 78 0 0 0
SMALL
GASTEIGER

@<TRIPOS>ATOM
      1  N         30.8370   31.9330   38.1160 N.3    57  PRO57      -0.2102
      2  CA        29.4560   31.4250   38.0820 C.3    57  PRO57       0.1504
      3  C         29.2100   30.7030   36.7730 C.2    57  PRO57       0.2576
      4  O         29.3130   31.2940   35.6810 O.2    57  PRO57      -0.2718
      5  CB        28.5920   32.6900   38.1360 C.3    57  PRO57       0.0282
      6  CG        29.5330   33.8100   38.3780 C.3    57  PRO57       0.0208
      7  CD        30.8560   33.3760   37.8680 C.3    57  PRO57       0.0893
      8  N         28.8870   29.4150   36.8690 N.am   58  LEU58      -0.1966
      9  CA        28.6140   28.6390   35.6720 C.3    58  LEU58       0.1728
     10  C         27.4160   29.1970   34.9340 C.2    58  LEU58       0.2616
     11  O         26.3740   29.5050   35.5430 O.2    58  LEU58      -0.2715
     12  CB        28.4150   27.1670   36.0500 C.3    58  LEU58       0.0311
     13  CG        29.6930   26.4640   36.5110 C.3    58  LEU58       0.0022
     14  CD1       29.3440   25.2130   37.2910 C.3    58  LEU58       0.0001
     15  CD2       30.6270   26.1040   35.3490 C.3    58  LEU58       0.0001
     16  N         27.5620   29.3180   33.6120 N.am   59  LEU59      -0.1963
     17  CA        26.5390   29.9190   32.7380 C.3    59  LEU59       0.1728
     18  C         25.7100   28.8410   32.0900 C.2    59  LEU59       0.2616
     19  O         26.2660   27.9190   31.4890 O.2    59  LEU59      -0.2715
     20  CB        27.2130   30.7740   31.6440 C.3    59  LEU59       0.0311
     21  CG        27.9700   31.9860   32.1860 C.3    59  LEU59       0.0022
     22  CD1       28.7560   32.6420   31.0710 C.3    59  LEU59       0.0001
     23  CD2       27.0080   32.9640   32.8430 C.3    59  LEU59       0.0001
     24  N         24.3870   28.9900   32.1260 N.am   60  ASP60      -0.1971
     25  CA        23.5020   28.0190   31.4870 C.3    60  ASP60       0.1709
     26  C         22.8980   28.5190   30.1840 C.2    60  ASP60       0.2293
     27  O         23.1250   29.6390   29.7510 O.2    60  ASP60      -0.2864
     28  CB        22.4040   27.5630   32.4840 C.3    60  ASP60       0.1436
     29  CG        21.3690   28.6290   32.7950 C.2    60  ASP60       0.3671
     30  OD1       21.2510   29.6490   32.0990 O.co2  60  ASP60      -0.2456
     31  OD2       20.6360   28.4170   33.7840 O.co2  60  ASP60      -0.2456
     32  N         20.5510   31.6750   30.0960 N.3    63  THR63      -0.1218
     33  CA        21.2780   32.9090   30.2500 C.3    63  THR63       0.1862
     34  C         21.9500   33.3560   28.9380 C.2    63  THR63       0.2287
     35  O         21.9610   34.5510   28.6050 O.2    63  THR63      -0.2866
     36  CB        22.3060   32.7740   31.3770 C.3    63  THR63       0.1770
     37  OG1       21.6180   32.5580   32.6130 O.3    63  THR63      -0.2211
     38  CG2       23.1400   34.0310   31.4840 C.3    63  THR63       0.0375
     39  N         23.9460   43.2110   33.2470 N.3   100  ASP100     -0.1225
     40  CA        24.3240   42.2800   34.3000 C.3   100  ASP100      0.1805
     41  C         25.2620   41.1790   33.8540 C.2   100  ASP100      0.2597
     42  O         25.7400   40.4480   34.7090 O.2   100  ASP100     -0.2718
     43  CB        23.1310   41.7470   35.0550 C.3   100  ASP100      0.1424
     44  CG        22.1660   41.0260   34.1970 C.2   100  ASP100      0.3668
     45  OD1       22.5350   40.5000   33.1460 O.co2 100  ASP100     -0.2456
     46  OD2       20.9980   41.0070   34.5820 O.co2 100  ASP100     -0.2456
     47  N         25.5710   41.1030   32.5570 N.am  101  LEU101     -0.1979
     48  CA        26.5070   40.1250   32.0600 C.3   101  LEU101      0.1596
     49  C         27.1440   40.5560   30.7460 C.2   101  LEU101      0.2287
     50  O         26.4760   41.0890   29.8520 O.2   101  LEU101     -0.2864
     51  CB        25.7610   38.8200   31.8490 C.3   101  LEU101      0.0297
     52  CG        26.6150   37.6730   31.3170 C.3   101  LEU101      0.0022
     53  CD1       27.6070   37.2120   32.3340 C.3   101  LEU101      0.0001
     54  CD2       25.6980   36.5390   30.9140 C.3   101  LEU101      0.0001
     55  N         30.2710   40.1570   35.4310 N.3   120  THR120     -0.1203
     56  CA        29.0130   39.6600   35.9500 C.3   120  THR120      0.1994
     57  C         28.5050   40.4870   37.1120 C.2   120  THR120      0.2618
     58  O         29.2590   40.8070   38.0300 O.2   120  THR120     -0.2717
     59  CB        29.0850   38.1500   36.3310 C.3   120  THR120      0.1784
     60  OG1       27.8580   37.7480   36.9410 O.3   120  THR120     -0.2211
     61  CG2       30.2200   37.8330   37.2570 C.3   120  THR120      0.0376
     62  N         27.1930   40.7410   37.0940 N.am  121  GLY121     -0.1942
     63  CA        26.5230   41.4330   38.1820 C.3   121  GLY121      0.2014
     64  C         26.5840   40.7050   39.5180 C.2   121  GLY121      0.2638
     65  O         26.3040   41.3160   40.5310 O.2   121  GLY121     -0.2714
     66  N         26.9310   39.4140   39.5380 N.am  122  TRP122     -0.1973
     67  CA        27.2080   38.7360   40.8270 C.3   122  TRP122      0.1640
     68  C         28.2850   39.4830   41.6230 C.2   122  TRP122      0.2290
     69  O         28.2270   39.5720   42.8430 O.2   122  TRP122     -0.2864
     70  CB        27.7020   37.3170   40.6030 C.3   122  TRP122      0.0576
     71  CG        26.6490   36.2850   40.4210 C.ar  122  TRP122      0.0006
     72  CD1       26.3180   35.6490   39.2660 C.ar  122  TRP122      0.0946
     73  CD2       25.8330   35.7090   41.4530 C.ar  122  TRP122      0.0152
     74  NE1       25.3150   34.7270   39.5110 N.ar  122  TRP122     -0.2442
     75  CE2       25.0050   34.7420   40.8440 C.ar  122  TRP122      0.0810
     76  CE3       25.7110   35.9320   42.8300 C.ar  122  TRP122      0.0012
     77  CZ2       24.0660   33.9870   41.5700 C.ar  122  TRP122      0.0191
     78  CZ3       24.7730   35.1850   43.5480 C.ar  122  TRP122      0.0001
     79  CH2       23.9700   34.2270   42.9140 C.ar  122  TRP122      0.0015
@<TRIPOS>BOND
     1    35    34    2
     2    34    33    1
     3    27    26    2
     4    50    49    2
     5    32    33    1
     6    26    25    1
     7    33    36    1
     8    49    48    1
     9    54    52    1
    10    22    21    1
    11    52    51    1
    12    52    53    1
    13    36    38    1
    14    36    37    1
    15    25    24    1
    16    25    28    1
    17    19    18    2
    18    20    21    1
    19    20    17    1
    20    51    48    1
    21    48    47    1
    22    18    24   am
    23    18    17    1
    24    30    29   ar
    25    21    23    1
    26    28    29    1
    27    47    41   am
    28    17    16    1
    29    29    31   ar
    30    45    44   ar
    31    39    40    1
    32    16    10   am
    33    41    40    1
    34    41    42    2
    35    44    46   ar
    36    44    43    1
    37    40    43    1
    38    10    11    2
    39    10     9    1
    40    15    13    1
    41    55    56    1
    42     9    12    1
    43     9     8    1
    44     4     3    2
    45    56    59    1
    46    56    57    1
    47    12    13    1
    48    59    60    1
    49    59    61    1
    50    13    14    1
    51     3     8   am
    52     3     2    1
    53    62    57   am
    54    62    63    1
    55    57    58    2
    56     7     1    1
    57     7     6    1
    58     2     1    1
    59     2     5    1
    60     5     6    1
    61    63    64    1
    62    72    74   ar
    63    72    71   ar
    64    74    75   ar
    65    64    66   am
    66    64    65    2
    67    66    67    1
    68    71    70    1
    69    71    73   ar
    70    70    67    1
    71    67    68    1
    72    75    73   ar
    73    75    77   ar
    74    73    76   ar
    75    77    79   ar
    76    68    69    2
    77    76    78   ar
    78    79    78   ar
