@<TRIPOS>MOLECULE
tmp/4r4kC01.pdb
 115 110 0 0 0
SMALL
GASTEIGER

@<TRIPOS>ATOM
      1  N         39.3060   -7.0020   33.7890 N.3    33  THR33      -0.1218
      2  CA        39.5510   -8.0400   32.7780 C.3    33  THR33       0.1862
      3  C         40.2030   -7.4410   31.5430 C.2    33  THR33       0.2287
      4  O         39.6290   -6.5540   30.9070 O.2    33  THR33      -0.2866
      5  CB        38.2440   -8.7430   32.3920 C.3    33  THR33       0.1770
      6  OG1       37.6590   -9.3070   33.5770 O.3    33  THR33      -0.2211
      7  CG2       38.4920   -9.8740   31.3620 C.3    33  THR33       0.0375
      8  N         26.5870   -2.8950   44.1050 N.3    86  HIS86      -0.1241
      9  CA        27.1630   -3.7400   43.0470 C.3    86  HIS86       0.1621
     10  C         26.0910   -4.0590   42.0340 C.2    86  HIS86       0.2264
     11  O         25.0440   -4.6430   42.3890 O.2    86  HIS86      -0.2867
     12  CB        27.7230   -5.0140   43.6900 C.3    86  HIS86       0.0745
     13  CG        28.5680   -5.8400   42.7920 C.ar   86  HIS86       0.0817
     14  ND1       28.9010   -7.1460   43.0970 N.ar   86  HIS86      -0.2268
     15  CD2       29.1360   -5.5740   41.5860 C.ar   86  HIS86       0.1154
     16  CE1       29.6650   -7.6310   42.1360 C.ar   86  HIS86       0.1986
     17  NE2       29.8080   -6.7050   41.2010 N.ar   86  HIS86      -0.2212
     18  N         25.3610   -5.2160   37.7180 N.3    88  VAL88      -0.1245
     19  CA        25.9190   -5.7570   36.4850 C.3    88  VAL88       0.1561
     20  C         24.8460   -5.6950   35.4230 C.2    88  VAL88       0.2260
     21  O         23.7220   -6.1640   35.6250 O.2    88  VAL88      -0.2867
     22  CB        26.4120   -7.2230   36.6090 C.3    88  VAL88       0.0252
     23  CG1       26.9060   -7.7500   35.2500 C.3    88  VAL88       0.0019
     24  CG2       27.4990   -7.3510   37.6570 C.3    88  VAL88       0.0019
     25  N         24.0420   -6.5560   31.3010 N.3    90  GLU90      -0.1245
     26  CA        24.3820   -7.4850   30.2440 C.3    90  GLU90       0.1567
     27  C         23.4680   -7.3160   29.0660 C.2    90  GLU90       0.2260
     28  O         22.2560   -7.1780   29.2580 O.2    90  GLU90      -0.2867
     29  CB        24.1910   -8.9250   30.7160 C.3    90  GLU90       0.0388
     30  CG        25.3940   -9.7660   30.5200 C.3    90  GLU90       0.1160
     31  CD        25.1910  -11.2250   30.8740 C.2    90  GLU90       0.3649
     32  OE1       24.0580  -11.7600   30.7950 O.co2  90  GLU90      -0.2457
     33  OE2       26.2040  -11.8430   31.2260 O.co2  90  GLU90      -0.2457
     34  N         26.6130  -15.0950   21.7160 N.3    97  GLU97      -0.1231
     35  CA        27.3290  -14.7300   22.9320 C.3    97  GLU97       0.1699
     36  C         26.9500  -13.2920   23.2820 C.2    97  GLU97       0.2592
     37  O         26.5970  -12.5210   22.3900 O.2    97  GLU97      -0.2718
     38  CB        28.8310  -14.8370   22.7080 C.3    97  GLU97       0.0402
     39  CG        29.6690  -14.5530   23.9370 C.3    97  GLU97       0.1161
     40  CD        29.3630  -15.4970   25.0780 C.2    97  GLU97       0.3649
     41  OE1       29.9980  -16.5880   25.1600 O.co2  97  GLU97      -0.2457
     42  OE2       28.4840  -15.1500   25.8950 O.co2  97  GLU97      -0.2457
     43  N         26.9910  -12.9400   24.5590 N.am   98  ILE98      -0.1980
     44  CA        26.6500  -11.5680   24.9590 C.3    98  ILE98       0.1595
     45  C         27.6180  -10.6520   24.2640 C.2    98  ILE98       0.2287
     46  O         28.7570  -11.0490   23.9750 O.2    98  ILE98      -0.2864
     47  CB        26.6920  -11.3000   26.4760 C.3    98  ILE98       0.0276
     48  CG1       28.0830  -11.4970   27.0340 C.3    98  ILE98       0.0022
     49  CG2       25.6420  -12.1440   27.1960 C.3    98  ILE98       0.0022
     50  CD1       28.2570  -10.8370   28.3840 C.3    98  ILE98       0.0001
     51  N         28.9120   -6.5460   28.7650 N.3   101  ARG101     -0.1231
     52  CA        28.6920   -6.7410   30.1850 C.3   101  ARG101      0.1694
     53  C         29.4580   -5.6600   30.9210 C.2   101  ARG101      0.2592
     54  O         30.6350   -5.4590   30.6430 O.2   101  ARG101     -0.2718
     55  CB        29.1300   -8.1300   30.6500 C.3   101  ARG101      0.0321
     56  CG        28.6780   -8.3480   32.0990 C.3   101  ARG101      0.0489
     57  CD        28.6480   -9.8180   32.4980 C.3   101  ARG101      0.2205
     58  NE        29.9830  -10.3250   32.5310 N.pl3 101  ARG101     -0.0865
     59  CZ        30.2790  -11.6130   32.4670 C.cat 101  ARG101      0.5346
     60  NH1       29.3120  -12.5290   32.4010 N.pl3 101  ARG101      0.1354
     61  NH2       31.5540  -11.9820   32.4810 N.pl3 101  ARG101      0.1354
     62  N         28.7640   -4.8920   31.7620 N.am  102  VAL102     -0.1966
     63  CA        29.3600   -3.7970   32.4870 C.3   102  VAL102      0.1727
     64  C         29.1060   -4.0100   33.9970 C.2   102  VAL102      0.2616
     65  O         27.9480   -4.2120   34.4110 O.2   102  VAL102     -0.2715
     66  CB        28.7610   -2.4220   32.0720 C.3   102  VAL102      0.0290
     67  CG1       29.5620   -1.2760   32.6920 C.3   102  VAL102      0.0023
     68  CG2       28.6760   -2.2730   30.5520 C.3   102  VAL102      0.0023
     69  N         30.1690   -3.9160   34.7850 N.am  103  GLU103     -0.1977
     70  CA        30.1180   -4.0620   36.2290 C.3   103  GLU103      0.1602
     71  C         30.3570   -2.7220   36.9300 C.2   103  GLU103      0.2287
     72  O         31.3640   -2.0560   36.6700 O.2   103  GLU103     -0.2864
     73  CB        31.1770   -5.0620   36.6610 C.3   103  GLU103      0.0415
     74  CG        31.1220   -5.3720   38.1380 C.3   103  GLU103      0.1163
     75  CD        32.0940   -6.4660   38.5320 C.2   103  GLU103      0.3649
     76  OE1       33.0990   -6.6800   37.8160 O.co2 103  GLU103     -0.2457
     77  OE2       31.8740   -7.0840   39.5850 O.co2 103  GLU103     -0.2457
     78  N         34.6590   -3.0640   35.5700 N.3   116  ASP116     -0.1225
     79  CA        34.9740   -4.0700   34.5640 C.3   116  ASP116      0.1805
     80  C         33.9630   -4.0270   33.4540 C.2   116  ASP116      0.2598
     81  O         32.8370   -3.5230   33.6070 O.2   116  ASP116     -0.2718
     82  CB        35.0270   -5.4760   35.1500 C.3   116  ASP116      0.1424
     83  CG        35.9640   -6.4060   34.3610 C.2   116  ASP116      0.3668
     84  OD1       36.6350   -5.9660   33.3780 O.co2 116  ASP116     -0.2456
     85  OD2       35.9980   -7.6000   34.7080 O.co2 116  ASP116     -0.2456
     86  N         34.3890   -4.5180   32.3000 N.am  117  CYS117     -0.1956
     87  CA        33.5490   -4.5230   31.1250 C.3   117  CYS117      0.1843
     88  C         34.0610   -5.5490   30.1290 C.2   117  CYS117      0.2625
     89  O         35.2670   -5.6780   29.9050 O.2   117  CYS117     -0.2714
     90  CB        33.5430   -3.1360   30.4720 C.3   117  CYS117      0.0997
     91  SG        32.6360   -3.0030   28.9080 S.3   117  CYS117     -0.0797
     92  N         33.1110   -6.2710   29.5440 N.am  118  TYR118     -0.1974
     93  CA        33.3320   -7.0490   28.3470 C.3   118  TYR118      0.1639
     94  C         32.5640   -6.3560   27.2380 C.2   118  TYR118      0.2290
     95  O         31.4010   -5.9990   27.4410 O.2   118  TYR118     -0.2864
     96  CB        32.8000   -8.4770   28.5120 C.3   118  TYR118      0.0560
     97  CG        32.8500   -9.2120   27.2220 C.ar  118  TYR118     -0.0198
     98  CD1       34.0560   -9.7540   26.7490 C.ar  118  TYR118     -0.0009
     99  CD2       31.7430   -9.2900   26.4130 C.ar  118  TYR118     -0.0009
    100  CE1       34.1350  -10.4020   25.5240 C.ar  118  TYR118      0.0417
    101  CE2       31.8270   -9.9400   25.1840 C.ar  118  TYR118      0.0417
    102  CZ        33.0190  -10.4760   24.7470 C.ar  118  TYR118      0.1957
    103  OH        33.1060  -11.1100   23.5220 O.3   118  TYR118     -0.2866
    104  N         36.5890  -11.7650   22.0760 N.3   124  TYR124     -0.1241
    105  CA        37.6450  -12.6540   22.4780 C.3   124  TYR124      0.1605
    106  C         38.3590  -13.2090   21.2230 C.2   124  TYR124      0.2264
    107  O         37.7060  -13.5770   20.2320 O.2   124  TYR124     -0.2867
    108  CB        37.0130  -13.7300   23.3690 C.3   124  TYR124      0.0534
    109  CG        38.0150  -14.4780   24.1870 C.ar  124  TYR124     -0.0201
    110  CD1       38.4660  -13.9780   25.4060 C.ar  124  TYR124     -0.0009
    111  CD2       38.5230  -15.6780   23.7360 C.ar  124  TYR124     -0.0009
    112  CE1       39.3980  -14.6750   26.1630 C.ar  124  TYR124      0.0417
    113  CE2       39.4520  -16.3780   24.4760 C.ar  124  TYR124      0.0417
    114  CZ        39.8880  -15.8760   25.6850 C.ar  124  TYR124      0.1957
    115  OH        40.8210  -16.5980   26.3850 O.3   124  TYR124     -0.2866
@<TRIPOS>BOND
     1   107   106    2
     2   106   105    1
     3    34    35    1
     4   104   105    1
     5    37    36    2
     6   105   108    1
     7    38    35    1
     8    38    39    1
     9    35    36    1
    10    36    43   am
    11   108   109    1
    12   103   102    1
    13   111   109   ar
    14   111   113   ar
    15    39    40    1
    16    46    45    2
    17   109   110   ar
    18    45    44    1
    19   113   114   ar
    20    43    44    1
    21   102   101   ar
    22   102   100   ar
    23    44    47    1
    24    40    41   ar
    25    40    42   ar
    26   101    99   ar
    27   110   112   ar
    28   100    98   ar
    29   114   112   ar
    30   114   115    1
    31    99    97   ar
    32    47    48    1
    33    47    49    1
    34    98    97   ar
    35    48    50    1
    36    97    96    1
    37    94    95    2
    38    94    93    1
    39    93    96    1
    40    93    92    1
    41    51    52    1
    42    91    90    1
    43    27    28    2
    44    27    26    1
    45    92    88   am
    46    89    88    2
    47    88    87    1
    48    52    55    1
    49    52    53    1
    50    26    29    1
    51    26    25    1
    52    90    87    1
    53    30    29    1
    54    30    31    1
    55    68    66    1
    56    54    53    2
    57    55    56    1
    58    32    31   ar
    59    31    33   ar
    60     4     3    2
    61    53    62   am
    62    87    86    1
    63     7     5    1
    64     3     2    1
    65    62    63    1
    66    66    63    1
    67    66    67    1
    68    56    57    1
    69    86    80   am
    70     5     2    1
    71     5     6    1
    72    60    59    1
    73    59    61    1
    74    59    58    2
    75    63    64    1
    76    57    58    1
    77     2     1    1
    78    84    83   ar
    79    80    81    2
    80    80    79    1
    81    64    65    2
    82    64    69   am
    83    83    85   ar
    84    83    82    1
    85    79    82    1
    86    79    78    1
    87    69    70    1
    88    23    22    1
    89    20    21    2
    90    20    19    1
    91    70    73    1
    92    70    71    1
    93    19    22    1
    94    19    18    1
    95    22    24    1
    96    73    74    1
    97    72    71    2
    98    76    75   ar
    99    74    75    1
   100    75    77   ar
   101    17    15   ar
   102    17    16   ar
   103    15    13   ar
   104    10    11    2
   105    10     9    1
   106    16    14   ar
   107    13    14   ar
   108    13    12    1
   109     9    12    1
   110     9     8    1
