@<TRIPOS>MOLECULE
tmp/4r4kC02.pdb
 85 87 0 0 0
SMALL
GASTEIGER

@<TRIPOS>ATOM
      1  N         31.9030   -6.6470   22.8840 N.3   120  GLY120     -0.1210
      2  CA        32.0490   -7.2820   21.5930 C.3   120  GLY120      0.1956
      3  C         32.8400   -6.4690   20.5790 C.2   120  GLY120      0.2612
      4  O         33.2420   -7.0170   19.5740 O.2   120  GLY120     -0.2717
      5  N         33.0980   -5.1860   20.8450 N.am  121  TRP121     -0.1962
      6  CA        34.0210   -4.4190   20.0040 C.3   121  TRP121      0.1771
      7  C         35.3820   -5.0870   19.9420 C.2   121  TRP121      0.2620
      8  O         36.0490   -5.0970   18.8970 O.2   121  TRP121     -0.2715
      9  CB        34.2410   -3.0160   20.5480 C.3   121  TRP121      0.0590
     10  CG        33.2000   -2.0230   20.1180 C.ar  121  TRP121      0.0006
     11  CD1       32.2030   -1.5040   20.8740 C.ar  121  TRP121      0.0946
     12  CD2       33.0700   -1.4400   18.8320 C.ar  121  TRP121      0.0152
     13  NE1       31.4460   -0.6260   20.1470 N.ar  121  TRP121     -0.2442
     14  CE2       31.9640   -0.5630   18.8830 C.ar  121  TRP121      0.0810
     15  CE3       33.7870   -1.5670   17.6380 C.ar  121  TRP121      0.0012
     16  CZ2       31.5530    0.1810   17.7880 C.ar  121  TRP121      0.0191
     17  CZ3       33.3720   -0.8330   16.5610 C.ar  121  TRP121      0.0001
     18  CH2       32.2640    0.0300   16.6370 C.ar  121  TRP121      0.0015
     19  N         35.8120   -5.6410   21.0710 N.am  122  TYR122     -0.1960
     20  CA        37.0880   -6.3380   21.1190 C.3   122  TYR122      0.1771
     21  C         36.8380   -7.8430   20.9940 C.2   122  TYR122      0.2620
     22  O         37.5780   -8.5260   20.2890 O.2   122  TYR122     -0.2715
     23  CB        37.9620   -5.8400   22.2980 C.3   122  TYR122      0.0574
     24  CG        38.2130   -4.3620   22.1530 C.ar  122  TYR122     -0.0198
     25  CD1       38.9000   -3.8360   21.0440 C.ar  122  TYR122     -0.0009
     26  CD2       37.7060   -3.4560   23.0820 C.ar  122  TYR122     -0.0009
     27  CE1       39.0990   -2.4630   20.8540 C.ar  122  TYR122      0.0417
     28  CE2       37.8900   -2.0850   22.9070 C.ar  122  TYR122      0.0417
     29  CZ        38.5870   -1.5860   21.8000 C.ar  122  TYR122      0.1957
     30  OH        38.7960   -0.2330   21.5990 O.3   122  TYR122     -0.2866
     31  N         35.7170   -8.3050   21.5290 N.am  123  GLY123     -0.1940
     32  CA        35.4300   -9.7110   21.6920 C.3   123  GLY123      0.2014
     33  C         36.5830  -10.4630   22.2980 C.2   123  GLY123      0.2639
     34  O         37.3740   -9.8850   23.0330 O.2   123  GLY123     -0.2714
     35  N         36.5890  -11.7650   22.0760 N.am  124  TYR124     -0.1959
     36  CA        37.6450  -12.6540   22.4780 C.3   124  TYR124      0.1771
     37  C         38.3590  -13.2090   21.2230 C.2   124  TYR124      0.2620
     38  O         37.7060  -13.5770   20.2320 O.2   124  TYR124     -0.2715
     39  CB        37.0130  -13.7300   23.3690 C.3   124  TYR124      0.0574
     40  CG        38.0150  -14.4780   24.1870 C.ar  124  TYR124     -0.0198
     41  CD1       38.4660  -13.9780   25.4060 C.ar  124  TYR124     -0.0009
     42  CD2       38.5230  -15.6780   23.7360 C.ar  124  TYR124     -0.0009
     43  CE1       39.3980  -14.6750   26.1630 C.ar  124  TYR124      0.0417
     44  CE2       39.4520  -16.3780   24.4760 C.ar  124  TYR124      0.0417
     45  CZ        39.8880  -15.8760   25.6850 C.ar  124  TYR124      0.1957
     46  OH        40.8210  -16.5980   26.3850 O.3   124  TYR124     -0.2866
     47  N         39.6960  -13.1520   21.2220 N.am  125  ASP125     -0.1957
     48  CA        40.5410  -13.6790   20.1220 C.3   125  ASP125      0.1840
     49  C         40.4380  -12.9030   18.8050 C.2   125  ASP125      0.2622
     50  O         40.7170  -13.4800   17.7670 O.2   125  ASP125     -0.2715
     51  CB        40.2990  -15.1820   19.8810 C.3   125  ASP125      0.1450
     52  CG        40.8550  -16.0560   20.9880 C.2   125  ASP125      0.3671
     53  OD1       41.7680  -15.6090   21.7260 O.co2 125  ASP125     -0.2456
     54  OD2       40.3840  -17.2070   21.1070 O.co2 125  ASP125     -0.2456
     55  N         40.0570  -11.6130   18.8350 N.am  126  LEU126     -0.1964
     56  CA        40.2270  -10.6800   17.6900 C.3   126  LEU126      0.1713
     57  C         41.6630  -10.8010   17.2200 C.2   126  LEU126      0.2458
     58  O         42.5700  -10.7280   18.0470 O.2   126  LEU126     -0.2730
     59  CB        39.9460   -9.2250   18.1630 C.3   126  LEU126      0.0310
     60  CG        40.1930   -8.0040   17.2480 C.3   126  LEU126      0.0022
     61  CD1       39.1630   -7.9730   16.1480 C.3   126  LEU126      0.0001
     62  CD2       40.1320   -6.7070   18.0480 C.3   126  LEU126      0.0001
     63  N         41.8920  -10.9710   15.9050 N.am  127  PRO127     -0.2727
     64  CA        43.2810  -10.9600   15.4420 C.3   127  PRO127      0.1402
     65  C         43.9840   -9.6560   15.7720 C.2   127  PRO127      0.2269
     66  O         43.4080   -8.5830   15.5760 O.2   127  PRO127     -0.2865
     67  CB        43.1520  -11.1200   13.9140 C.3   127  PRO127      0.0296
     68  CG        41.8120  -11.7460   13.7110 C.3   127  PRO127      0.0237
     69  CD        40.9470  -11.1710   14.7880 C.3   127  PRO127      0.0939
     70  N         43.8610   -6.7690   13.3580 N.3   130  GLU130     -0.1245
     71  CA        42.6130   -5.9980   13.2470 C.3   130  GLU130      0.1567
     72  C         42.4090   -5.0000   14.3960 C.2   130  GLU130      0.2260
     73  O         41.4450   -4.2240   14.3890 O.2   130  GLU130     -0.2867
     74  CB        41.4220   -6.9530   13.1270 C.3   130  GLU130      0.0388
     75  CG        41.4560   -7.7790   11.8330 C.3   130  GLU130      0.1160
     76  CD        40.2520   -8.6870   11.6440 C.2   130  GLU130      0.3649
     77  OE1       39.3830   -8.7390   12.5310 O.co2 130  GLU130     -0.2457
     78  OE2       40.1710   -9.3630   10.5970 O.co2 130  GLU130     -0.2457
     79  N         40.0200   -1.5020   14.6020 N.3   134  THR134     -0.1218
     80  CA        38.9360   -1.5530   15.5720 C.3   134  THR134      0.1862
     81  C         38.9870   -0.3350   16.5040 C.2   134  THR134      0.2287
     82  O         37.9630    0.3210   16.7840 O.2   134  THR134     -0.2866
     83  CB        38.9960   -2.8550   16.3950 C.3   134  THR134      0.1770
     84  OG1       38.9090   -3.9900   15.5180 O.3   134  THR134     -0.2211
     85  CG2       37.8360   -2.9060   17.3820 C.3   134  THR134      0.0375
@<TRIPOS>BOND
     1    78    76   ar
     2    76    75    1
     3    76    77   ar
     4    75    74    1
     5    74    71    1
     6    71    70    1
     7    71    72    1
     8    68    67    1
     9    68    69    1
    10    67    64    1
    11    73    72    2
    12    79    80    1
    13    69    63    1
    14    64    65    1
    15    64    63    1
    16    84    83    1
    17    80    83    1
    18    80    81    1
    19    66    65    2
    20    63    57   am
    21    61    60    1
    22    83    85    1
    23    81    82    2
    24    17    18   ar
    25    17    15   ar
    26    18    16   ar
    27    57    56    1
    28    57    58    2
    29    60    62    1
    30    60    59    1
    31    15    12   ar
    32    56    59    1
    33    56    55    1
    34    50    49    2
    35    16    14   ar
    36    49    55   am
    37    49    48    1
    38    12    14   ar
    39    12    10   ar
    40    14    13   ar
    41     8     7    2
    42     4     3    2
    43    51    48    1
    44    51    52    1
    45     7     6    1
    46     7    19   am
    47     6     9    1
    48     6     5    1
    49    10     9    1
    50    10    11   ar
    51    48    47    1
    52    13    11   ar
    53    38    37    2
    54    22    21    2
    55     3     5   am
    56     3     2    1
    57    27    25   ar
    58    27    29   ar
    59    52    54   ar
    60    52    53   ar
    61    21    20    1
    62    21    31   am
    63    25    24   ar
    64    19    20    1
    65    20    23    1
    66    47    37   am
    67    37    36    1
    68    31    32    1
    69     2     1    1
    70    30    29    1
    71    32    33    1
    72    29    28   ar
    73    35    33   am
    74    35    36    1
    75    24    23    1
    76    24    26   ar
    77    33    34    2
    78    36    39    1
    79    28    26   ar
    80    39    40    1
    81    42    40   ar
    82    42    44   ar
    83    40    41   ar
    84    44    45   ar
    85    41    43   ar
    86    45    43   ar
    87    45    46    1
