@<TRIPOS>MOLECULE
tmp/4r4kD00.pdb
 115 112 0 0 0
SMALL
GASTEIGER

@<TRIPOS>ATOM
      1  N          7.6730   17.7430   41.5520 N.3    53  PRO53      -0.2102
      2  CA         8.7470   18.6930   41.1740 C.3    53  PRO53       0.1504
      3  C          8.7300   19.8740   42.1420 C.2    53  PRO53       0.2576
      4  O          7.7380   20.5970   42.2100 O.2    53  PRO53      -0.2718
      5  CB         8.3600   19.1480   39.7650 C.3    53  PRO53       0.0282
      6  CG         7.1990   18.2620   39.3670 C.3    53  PRO53       0.0208
      7  CD         6.5370   17.8530   40.6240 C.3    53  PRO53       0.0893
      8  N          9.8400   20.0900   42.8330 N.am   54  LEU54      -0.1966
      9  CA         9.9580   21.1880   43.7530 C.3    54  LEU54       0.1728
     10  C          9.8490   22.5460   43.0530 C.2    54  LEU54       0.2616
     11  O         10.4280   22.7500   41.9820 O.2    54  LEU54      -0.2715
     12  CB        11.2600   21.0780   44.5130 C.3    54  LEU54       0.0311
     13  CG        11.3400   19.9080   45.4850 C.3    54  LEU54       0.0022
     14  CD1       12.7810   19.5980   45.8230 C.3    54  LEU54       0.0001
     15  CD2       10.5510   20.1740   46.7610 C.3    54  LEU54       0.0001
     16  N          9.0490   23.4270   43.6560 N.am   55  LEU55      -0.1963
     17  CA         8.7410   24.7400   43.0930 C.3    55  LEU55       0.1728
     18  C          9.5590   25.8370   43.7110 C.2    55  LEU55       0.2616
     19  O          9.6050   25.9280   44.9310 O.2    55  LEU55      -0.2715
     20  CB         7.2600   25.0630   43.2990 C.3    55  LEU55       0.0311
     21  CG         6.3280   24.1180   42.5480 C.3    55  LEU55       0.0022
     22  CD1        4.8950   24.3890   42.9570 C.3    55  LEU55       0.0001
     23  CD2        6.4900   24.2370   41.0390 C.3    55  LEU55       0.0001
     24  N         10.1990   26.6630   42.8820 N.am   56  ASP56      -0.1971
     25  CA        11.0320   27.7580   43.4100 C.3    56  ASP56       0.1709
     26  C         10.3340   29.1090   43.3560 C.2    56  ASP56       0.2293
     27  O          9.2380   29.2250   42.8020 O.2    56  ASP56      -0.2864
     28  CB        12.4070   27.7790   42.7460 C.3    56  ASP56       0.1436
     29  CG        12.3880   28.2050   41.2900 C.2    56  ASP56       0.3671
     30  OD1       11.4050   28.7730   40.7900 O.co2  56  ASP56      -0.2456
     31  OD2       13.4270   27.9740   40.6270 O.co2  56  ASP56      -0.2456
     32  N          9.4060   30.6310   39.8350 N.3    59  THR59      -0.1218
     33  CA         8.2620   29.9790   39.2190 C.3    59  THR59       0.1862
     34  C          6.9440   30.5010   39.7870 C.2    59  THR59       0.2287
     35  O          5.9820   30.6830   39.0490 O.2    59  THR59      -0.2866
     36  CB         8.3740   28.4550   39.3540 C.3    59  THR59       0.1770
     37  OG1        9.5260   28.0080   38.6190 O.3    59  THR59      -0.2211
     38  CG2        7.1500   27.7610   38.8070 C.3    59  THR59       0.0375
     39  N          3.4060   35.5140   28.0430 N.3    72  TYR72      -0.1241
     40  CA         3.4050   34.4230   29.0120 C.3    72  TYR72       0.1605
     41  C          2.9700   35.0150   30.3400 C.2    72  TYR72       0.2264
     42  O          3.4910   36.0460   30.7660 O.2    72  TYR72      -0.2867
     43  CB         4.7940   33.7800   29.0840 C.3    72  TYR72       0.0534
     44  CG         4.8100   32.4710   29.8300 C.ar   72  TYR72      -0.0201
     45  CD1        4.4930   31.2900   29.1800 C.ar   72  TYR72      -0.0009
     46  CD2        5.1020   32.4080   31.1970 C.ar   72  TYR72      -0.0009
     47  CE1        4.4550   30.0840   29.8550 C.ar   72  TYR72       0.0417
     48  CE2        5.0830   31.1970   31.8750 C.ar   72  TYR72       0.0417
     49  CZ         4.7450   30.0410   31.1960 C.ar   72  TYR72       0.1957
     50  OH         4.7080   28.8390   31.8670 O.3    72  TYR72      -0.2866
     51  N          0.9110   25.3980   31.5570 N.3    96  ASP96      -0.1225
     52  CA         2.0350   24.5420   31.9210 C.3    96  ASP96       0.1805
     53  C          2.0660   24.1400   33.4070 C.2    96  ASP96       0.2597
     54  O          2.7260   23.1760   33.7880 O.2    96  ASP96      -0.2718
     55  CB         3.3350   25.2940   31.6560 C.3    96  ASP96       0.1424
     56  CG         3.5460   25.6420   30.1500 C.2    96  ASP96       0.3668
     57  OD1        3.2920   24.7480   29.3280 O.co2  96  ASP96      -0.2456
     58  OD2        4.0040   26.7580   29.7740 O.co2  96  ASP96      -0.2456
     59  N          1.3500   24.8990   34.2260 N.am   97  LEU97      -0.1979
     60  CA         1.3810   24.6990   35.6810 C.3    97  LEU97       0.1596
     61  C          0.0970   25.2360   36.2980 C.2    97  LEU97       0.2287
     62  O         -0.3340   26.3400   35.9510 O.2    97  LEU97      -0.2864
     63  CB         2.5800   25.4140   36.2790 C.3    97  LEU97       0.0297
     64  CG         2.7470   25.3430   37.8110 C.3    97  LEU97       0.0022
     65  CD1        3.0680   23.9320   38.2920 C.3    97  LEU97       0.0001
     66  CD2        3.8210   26.2850   38.3110 C.3    97  LEU97       0.0001
     67  N          1.1500   19.6830   36.3990 N.3   116  THR116     -0.1203
     68  CA         2.4160   20.1320   35.8240 C.3   116  THR116      0.1994
     69  C          2.6850   19.5140   34.4510 C.2   116  THR116      0.2618
     70  O          2.4410   18.3330   34.2290 O.2   116  THR116     -0.2717
     71  CB         3.5850   19.8690   36.7670 C.3   116  THR116      0.1784
     72  OG1        4.8130   20.1740   36.1060 O.3   116  THR116     -0.2211
     73  CG2        3.6210   18.4220   37.2280 C.3   116  THR116      0.0376
     74  N          3.1750   20.3480   33.5350 N.am  117  GLY117     -0.1942
     75  CA         3.5470   19.9080   32.2160 C.3   117  GLY117      0.2014
     76  C          4.6590   18.8600   32.1910 C.2   117  GLY117      0.2638
     77  O          4.8810   18.2520   31.1710 O.2   117  GLY117     -0.2714
     78  N          5.3510   18.6370   33.2990 N.am  118  TRP118     -0.1973
     79  CA         6.2740   17.4860   33.3950 C.3   118  TRP118      0.1640
     80  C          5.5280   16.1880   33.0670 C.2   118  TRP118      0.2290
     81  O          6.1080   15.2500   32.5160 O.2   118  TRP118     -0.2864
     82  CB         6.8610   17.3690   34.8120 C.3   118  TRP118      0.0576
     83  CG         8.0860   18.1520   35.0670 C.ar  118  TRP118      0.0006
     84  CD1        8.1860   19.2940   35.8190 C.ar  118  TRP118      0.0946
     85  CD2        9.4070   17.8540   34.5980 C.ar  118  TRP118      0.0152
     86  NE1        9.4900   19.7190   35.8360 N.ar  118  TRP118     -0.2442
     87  CE2       10.2530   18.8540   35.0900 C.ar  118  TRP118      0.0810
     88  CE3        9.9550   16.8400   33.8000 C.ar  118  TRP118      0.0012
     89  CZ2       11.6180   18.8700   34.8100 C.ar  118  TRP118      0.0191
     90  CZ3       11.3210   16.8570   33.5270 C.ar  118  TRP118      0.0001
     91  CH2       12.1260   17.8720   34.0380 C.ar  118  TRP118      0.0015
     92  N         12.7460   14.4530   37.0450 N.3   135  VAL135     -0.1245
     93  CA        12.2550   15.3470   38.1120 C.3   135  VAL135      0.1561
     94  C         13.1080   15.1660   39.3620 C.2   135  VAL135      0.2260
     95  O         13.4970   16.1440   40.0170 O.2   135  VAL135     -0.2867
     96  CB        10.7750   15.0650   38.4140 C.3   135  VAL135      0.0252
     97  CG1       10.3320   15.7450   39.7170 C.3   135  VAL135      0.0019
     98  CG2        9.9420   15.5160   37.2360 C.3   135  VAL135      0.0019
     99  N         16.2870   17.0960   38.7790 N.3   138  GLU138     -0.1231
    100  CA        16.0090   18.5370   38.9610 C.3   138  GLU138      0.1699
    101  C         15.8630   18.8930   40.4360 C.2   138  GLU138      0.2592
    102  O         16.2960   19.9630   40.9090 O.2   138  GLU138     -0.2718
    103  CB        14.7430   18.9490   38.2210 C.3   138  GLU138      0.0402
    104  CG        14.8290   18.7780   36.7170 C.3   138  GLU138      0.1161
    105  CD        15.6790   19.8180   36.0160 C.2   138  GLU138      0.3649
    106  OE1       15.9340   20.8990   36.5880 O.co2 138  GLU138     -0.2457
    107  OE2       16.0630   19.5610   34.8600 O.co2 138  GLU138     -0.2457
    108  N         15.2280   18.0110   41.1990 N.am  139  ASN139     -0.1974
    109  CA        15.0750   18.2150   42.6350 C.3   139  ASN139      0.1688
    110  C         16.3910   18.1700   43.3870 C.2   139  ASN139      0.2292
    111  O         16.5740   18.9140   44.3470 O.2   139  ASN139     -0.2864
    112  CB        14.0940   17.2010   43.2080 C.3   139  ASN139      0.1181
    113  CG        12.6480   17.5000   42.8240 C.2   139  ASN139      0.2629
    114  OD1       12.3020   18.6000   42.3570 O.2   139  ASN139     -0.2716
    115  ND2       11.7800   16.5150   43.0370 N.am  139  ASN139     -0.0877
@<TRIPOS>BOND
     1    39    40    1
     2    40    43    1
     3    40    41    1
     4    43    44    1
     5    45    44   ar
     6    45    47   ar
     7    57    56   ar
     8    58    56   ar
     9    44    46   ar
    10    47    49   ar
    11    56    55    1
    12    41    42    2
    13    77    76    2
    14    49    50    1
    15    49    48   ar
    16    46    48   ar
    17    51    52    1
    18    55    52    1
    19    52    53    1
    20    76    75    1
    21    76    78   am
    22    75    74    1
    23    81    80    2
    24    80    79    1
    25    78    79    1
    26    79    82    1
    27    53    54    2
    28    53    59   am
    29    90    88   ar
    30    90    91   ar
    31    74    69   am
    32    88    85   ar
    33    91    89   ar
    34    59    60    1
    35    70    69    2
    36    69    68    1
    37    85    83   ar
    38    85    87   ar
    39    89    87   ar
    40    82    83    1
    41   107   105   ar
    42    83    84   ar
    43    87    86   ar
    44    60    63    1
    45    60    61    1
    46    84    86   ar
    47    68    67    1
    48    68    71    1
    49    62    61    2
    50   105   106   ar
    51   105   104    1
    52    72    71    1
    53    63    64    1
    54   104   103    1
    55    71    73    1
    56    92    93    1
    57    98    96    1
    58    64    65    1
    59    64    66    1
    60    93    96    1
    61    93    94    1
    62   103   100    1
    63    96    97    1
    64    37    36    1
    65    99   100    1
    66    38    36    1
    67   100   101    1
    68    35    34    2
    69    33    36    1
    70    33    34    1
    71    33    32    1
    72    94    95    2
    73     6     5    1
    74     6     7    1
    75     5     2    1
    76   101   102    2
    77   101   108   am
    78     7     1    1
    79    31    29   ar
    80    30    29   ar
    81    23    21    1
    82     2     1    1
    83     2     3    1
    84   108   109    1
    85    29    28    1
    86    11    10    2
    87     3     4    2
    88     3     8   am
    89   114   113    2
    90    21    22    1
    91    21    20    1
    92   109   112    1
    93   109   110    1
    94    28    25    1
    95    27    26    2
    96   113   115   am
    97   113   112    1
    98     8     9    1
    99    24    25    1
   100    24    18   am
   101    10    16   am
   102    10     9    1
   103    17    20    1
   104    17    16    1
   105    17    18    1
   106    26    25    1
   107   110   111    2
   108    18    19    2
   109     9    12    1
   110    12    13    1
   111    13    14    1
   112    13    15    1
