@<TRIPOS>MOLECULE
tmp/4r4kB00.pdb
 94 89 0 0 0
SMALL
GASTEIGER

@<TRIPOS>ATOM
      1  N         40.6760   38.2720   32.0690 N.3    33  LYS33      -0.1231
      2  CA        41.4210   39.4880   31.7520 C.3    33  LYS33       0.1693
      3  C         41.1160   40.6110   32.7350 C.2    33  LYS33       0.2592
      4  O         42.0190   41.3470   33.1320 O.2    33  LYS33      -0.2718
      5  CB        41.1890   39.9280   30.3010 C.3    33  LYS33       0.0285
      6  CG        41.9390   39.1020   29.2640 C.3    33  LYS33       0.0035
      7  CD        42.0390   39.7870   27.9030 C.3    33  LYS33       0.0206
      8  CE        40.7440   39.7130   27.1140 C.3    33  LYS33       0.1093
      9  NZ        40.8410   40.3920   25.7850 N.3    33  LYS33      -0.1314
     10  N         39.8560   40.7910   33.0880 N.am   34  THR34      -0.1953
     11  CA        39.4570   41.8770   33.9860 C.3    34  THR34       0.1897
     12  C         39.1830   41.3470   35.3800 C.2    34  THR34       0.2313
     13  O         38.3150   40.5010   35.5650 O.2    34  THR34      -0.2863
     14  CB        38.2120   42.6030   33.4330 C.3    34  THR34       0.1794
     15  OG1       38.5090   43.0750   32.1060 O.3    34  THR34      -0.2208
     16  CG2       37.8270   43.8040   34.3210 C.3    34  THR34       0.0378
     17  N         27.0050   41.6930   20.8620 N.3    81  THR81      -0.1203
     18  CA        27.3360   43.0640   20.4780 C.3    81  THR81       0.1994
     19  C         28.5260   43.0850   19.5420 C.2    81  THR81       0.2617
     20  O         28.7370   44.0460   18.8280 O.2    81  THR81      -0.2717
     21  CB        27.6620   43.9180   21.7110 C.3    81  THR81       0.1784
     22  OG1       28.6710   43.2730   22.4920 O.3    81  THR81      -0.2211
     23  CG2       26.4140   44.1120   22.5410 C.3    81  THR81       0.0376
     24  N         29.3190   42.0160   19.5940 N.am   82  LEU82      -0.1979
     25  CA        30.3850   41.7730   18.6410 C.3    82  LEU82       0.1596
     26  C         30.2220   40.3390   18.1550 C.2    82  LEU82       0.2287
     27  O         30.0730   39.4240   18.9580 O.2    82  LEU82      -0.2864
     28  CB        31.7530   41.9550   19.2950 C.3    82  LEU82       0.0297
     29  CG        32.9310   41.7930   18.3290 C.3    82  LEU82       0.0022
     30  CD1       33.0220   43.0060   17.4110 C.3    82  LEU82       0.0001
     31  CD2       34.2340   41.5920   19.0760 C.3    82  LEU82       0.0001
     32  N         35.9570   36.1820   17.2830 N.3    87  HIS87      -0.1241
     33  CA        35.8470   37.0850   18.4180 C.3    87  HIS87       0.1621
     34  C         34.3990   37.5070   18.5700 C.2    87  HIS87       0.2264
     35  O         33.8020   38.0860   17.6500 O.2    87  HIS87      -0.2867
     36  CB        36.7560   38.3040   18.2030 C.3    87  HIS87       0.0745
     37  CG        36.9450   39.1590   19.4160 C.ar   87  HIS87       0.0817
     38  ND1       37.4680   40.4300   19.3410 N.ar   87  HIS87      -0.2268
     39  CD2       36.6570   38.9530   20.7270 C.ar   87  HIS87       0.1154
     40  CE1       37.4990   40.9710   20.5480 C.ar   87  HIS87       0.1986
     41  NE2       37.0040   40.1010   21.4100 N.ar   87  HIS87      -0.2212
     42  N         31.2700   38.9090   21.5490 N.3    89  VAL89      -0.1245
     43  CA        30.9660   39.4940   22.8620 C.3    89  VAL89       0.1561
     44  C         29.4580   39.4390   23.0180 C.2    89  VAL89       0.2260
     45  O         28.7180   39.8910   22.1390 O.2    89  VAL89      -0.2867
     46  CB        31.4700   40.9450   23.0210 C.3    89  VAL89       0.0252
     47  CG1       31.0280   41.5060   24.3740 C.3    89  VAL89       0.0019
     48  CG2       32.9870   41.0080   22.8600 C.3    89  VAL89       0.0019
     49  N         28.4580   40.4180   30.6670 N.3   102  ARG102     -0.1245
     50  CA        29.1780   40.6090   29.4230 C.3   102  ARG102      0.1563
     51  C         30.2410   39.5110   29.3830 C.2   102  ARG102      0.2260
     52  O         31.0030   39.3580   30.3310 O.2   102  ARG102     -0.2867
     53  CB        29.7970   41.9980   29.3160 C.3   102  ARG102      0.0307
     54  CG        30.3490   42.2030   27.9190 C.3   102  ARG102      0.0489
     55  CD        30.5750   43.6550   27.5590 C.3   102  ARG102      0.2205
     56  NE        31.7340   44.1830   28.2450 N.pl3 102  ARG102     -0.0865
     57  CZ        31.9920   45.4800   28.3480 C.cat 102  ARG102      0.5346
     58  NH1       31.1480   46.3590   27.8230 N.pl3 102  ARG102      0.1354
     59  NH2       33.0900   45.8960   28.9690 N.pl3 102  ARG102      0.1354
     60  N         33.2110   37.6070   26.8350 N.3   104  GLU104     -0.1245
     61  CA        34.0440   37.7250   25.6710 C.3   104  GLU104      0.1567
     62  C         34.6190   36.3620   25.2990 C.2   104  GLU104      0.2260
     63  O         35.2330   35.6870   26.1440 O.2   104  GLU104     -0.2867
     64  CB        35.1750   38.7010   25.9290 C.3   104  GLU104      0.0388
     65  CG        36.0670   38.9190   24.7090 C.3   104  GLU104      0.1160
     66  CD        37.1170   39.9880   24.9420 C.2   104  GLU104      0.3649
     67  OE1       37.4480   40.2510   26.1170 O.co2 104  GLU104     -0.2457
     68  OE2       37.5960   40.5670   23.9400 O.co2 104  GLU104     -0.2457
     69  N         37.1900   36.7510   28.9830 N.3   117  ASP117     -0.1225
     70  CA        36.8320   37.7880   29.9400 C.3   117  ASP117      0.1805
     71  C         35.3610   37.7730   30.2110 C.2   117  ASP117      0.2598
     72  O         34.5740   37.2680   29.4120 O.2   117  ASP117     -0.2718
     73  CB        37.2670   39.1800   29.4570 C.3   117  ASP117      0.1424
     74  CG        37.5350   40.1370   30.6040 C.2   117  ASP117      0.3668
     75  OD1       37.4520   39.7470   31.8140 O.co2 117  ASP117     -0.2456
     76  OD2       37.8270   41.3140   30.2930 O.co2 117  ASP117     -0.2456
     77  N         34.9910   38.2930   31.3740 N.am  118  CYS118     -0.1956
     78  CA        33.6030   38.3620   31.7630 C.3   118  CYS118      0.1843
     79  C         33.3980   39.4460   32.7980 C.2   118  CYS118      0.2625
     80  O         34.2180   39.6180   33.7300 O.2   118  CYS118     -0.2714
     81  CB        33.1740   37.0180   32.3350 C.3   118  CYS118      0.0997
     82  SG        31.4900   36.9310   33.0160 S.3   118  CYS118     -0.0797
     83  N         32.2920   40.1730   32.6400 N.am  119  TYR119     -0.1974
     84  CA        31.7340   41.0110   33.6900 C.3   119  TYR119      0.1639
     85  C         30.4370   40.3470   34.1270 C.2   119  TYR119      0.2290
     86  O         29.6180   39.9750   33.2820 O.2   119  TYR119     -0.2864
     87  CB        31.3910   42.4050   33.2100 C.3   119  TYR119      0.0560
     88  CG        30.6170   43.1700   34.2380 C.ar  119  TYR119     -0.0198
     89  CD1       31.2620   43.7710   35.3170 C.ar  119  TYR119     -0.0009
     90  CD2       29.2260   43.2800   34.1630 C.ar  119  TYR119     -0.0009
     91  CE1       30.5550   44.4600   36.2770 C.ar  119  TYR119      0.0417
     92  CE2       28.5130   43.9710   35.1270 C.ar  119  TYR119      0.0417
     93  CZ        29.1960   44.5670   36.1720 C.ar  119  TYR119      0.1957
     94  OH        28.4960   45.2540   37.1290 O.3   119  TYR119     -0.2866
@<TRIPOS>BOND
     1    32    33    1
     2    30    29    1
     3    35    34    2
     4    26    25    1
     5    26    27    2
     6    36    33    1
     7    36    37    1
     8    29    31    1
     9    29    28    1
    10    33    34    1
    11    25    28    1
    12    25    24    1
    13    20    19    2
    14    38    37   ar
    15    38    40   ar
    16    37    39   ar
    17    19    24   am
    18    19    18    1
    19    18    17    1
    20    18    21    1
    21    40    41   ar
    22    39    41   ar
    23    42    43    1
    24    21    22    1
    25    21    23    1
    26    45    44    2
    27    48    46    1
    28    43    44    1
    29    43    46    1
    30    46    47    1
    31    68    66   ar
    32    65    66    1
    33    65    64    1
    34    66    67   ar
    35    62    61    1
    36    62    63    2
    37    61    64    1
    38    61    60    1
    39     9     8    1
    40     8     7    1
    41    55    54    1
    42    55    56    1
    43    58    57    1
    44     7     6    1
    45    54    53    1
    46    56    57    2
    47    57    59    1
    48    69    70    1
    49     6     5    1
    50    53    50    1
    51    51    50    1
    52    51    52    2
    53    72    71    2
    54    50    49    1
    55    73    70    1
    56    73    74    1
    57    70    71    1
    58    71    77   am
    59    76    74   ar
    60     5     2    1
    61    74    75   ar
    62    77    78    1
    63     2     1    1
    64     2     3    1
    65    78    81    1
    66    78    79    1
    67    15    14    1
    68    81    82    1
    69    83    79   am
    70    83    84    1
    71     3    10   am
    72     3     4    2
    73    79    80    2
    74    10    11    1
    75    87    84    1
    76    87    88    1
    77    86    85    2
    78    14    11    1
    79    14    16    1
    80    84    85    1
    81    11    12    1
    82    90    88   ar
    83    90    92   ar
    84    88    89   ar
    85    92    93   ar
    86    89    91   ar
    87    12    13    2
    88    93    91   ar
    89    93    94    1
