@<TRIPOS>MOLECULE
tmp/4r4qA00.pdb
 159 147 0 0 0
SMALL
GASTEIGER

@<TRIPOS>ATOM
      1  N          2.4260   16.7520   14.2340 N.3    32  ARG32      -0.1245
      2  CA         2.0540   17.7320   15.2460 C.3    32  ARG32       0.1563
      3  C          3.2550   18.0890   16.0750 C.2    32  ARG32       0.2260
      4  O          4.0280   17.2700   16.4160 O.2    32  ARG32      -0.2867
      5  CB         0.9820   17.1540   16.1360 C.3    32  ARG32       0.0307
      6  CG         1.2160   15.8350   16.7870 C.3    32  ARG32       0.0489
      7  CD         0.0340   15.5510   17.6910 C.3    32  ARG32       0.2205
      8  NE         0.4380   15.8440   19.0430 N.pl3  32  ARG32      -0.0865
      9  CZ        -0.3900   15.7930   20.0830 C.cat  32  ARG32       0.5346
     10  NH1       -1.6750   15.4710   19.9490 N.pl3  32  ARG32       0.1354
     11  NH2        0.1160   16.0330   21.2910 N.pl3  32  ARG32       0.1354
     12  N          5.1130   19.0380   19.5370 N.3    34  ILE34      -0.1231
     13  CA         4.9520   18.7140   20.9640 C.3    34  ILE34       0.1692
     14  C          5.2500   19.9600   21.7500 C.2    34  ILE34       0.2592
     15  O          5.9920   20.8300   21.2700 O.2    34  ILE34      -0.2718
     16  CB         5.9470   17.6040   21.2920 C.3    34  ILE34       0.0266
     17  CG1        5.3390   16.3320   20.7490 C.3    34  ILE34       0.0019
     18  CG2        6.2980   17.5880   22.7610 C.3    34  ILE34       0.0020
     19  CD1        5.9510   15.2250   21.2670 C.3    34  ILE34       0.0001
     20  N          4.7050   20.0720   22.9650 N.am   35  THR35      -0.1953
     21  CA         5.0950   21.2040   23.8060 C.3    35  THR35       0.1897
     22  C          6.5430   21.0540   24.3060 C.2    35  THR35       0.2313
     23  O          6.8520   20.0920   25.0180 O.2    35  THR35      -0.2863
     24  CB         4.1610   21.3670   25.0000 C.3    35  THR35       0.1794
     25  OG1        2.8060   21.4430   24.5340 O.3    35  THR35      -0.2208
     26  CG2        4.5240   22.6510   25.7710 C.3    35  THR35       0.0378
     27  N          9.8260   19.9770   18.6940 N.3    42  ARG42      -0.1245
     28  CA         9.9310   18.5830   18.3370 C.3    42  ARG42       0.1563
     29  C          8.6190   18.2000   17.6990 C.2    42  ARG42       0.2260
     30  O          7.5490   18.7250   18.0870 O.2    42  ARG42      -0.2867
     31  CB        10.2380   17.6630   19.5240 C.3    42  ARG42       0.0307
     32  CG        10.6780   16.3110   18.9670 C.3    42  ARG42       0.0489
     33  CD        11.2670   15.3860   19.9670 C.3    42  ARG42       0.2205
     34  NE        12.5680   15.8130   20.4490 N.pl3  42  ARG42      -0.0865
     35  CZ        13.7500   15.5400   19.8960 C.cat  42  ARG42       0.5346
     36  NH1       14.8400   15.9800   20.5330 N.pl3  42  ARG42       0.1354
     37  NH2       13.8840   14.8630   18.7430 N.pl3  42  ARG42       0.1354
     38  N          6.0270   15.1430   16.4450 N.3    44  ARG44      -0.1245
     39  CA         5.5250   13.7660   16.5940 C.3    44  ARG44       0.1563
     40  C          4.7410   13.4160   15.3700 C.2    44  ARG44       0.2260
     41  O          4.0030   14.2450   14.8000 O.2    44  ARG44      -0.2867
     42  CB         4.6070   13.6710   17.7890 C.3    44  ARG44       0.0307
     43  CG         4.0880   12.2770   18.0870 C.3    44  ARG44       0.0489
     44  CD         3.3450   12.2560   19.4080 C.3    44  ARG44       0.2205
     45  NE         2.8650   10.9090   19.6810 N.pl3  44  ARG44      -0.0865
     46  CZ         2.2000   10.5620   20.7690 C.cat  44  ARG44       0.5346
     47  NH1        1.8260    9.2990   20.9200 N.pl3  44  ARG44       0.1354
     48  NH2        1.9230   11.4690   21.7070 N.pl3  44  ARG44       0.1354
     49  N          3.8530    6.8220   17.6340 N.3    56  SER56      -0.1217
     50  CA         4.9710    7.1600   18.5330 C.3    56  SER56       0.1889
     51  C          6.2730    7.4130   17.8240 C.2    56  SER56       0.2288
     52  O          7.3490    7.1960   18.3230 O.2    56  SER56      -0.2866
     53  CB         5.1490    6.0440   19.5160 C.3    56  SER56       0.2089
     54  OG         5.4600    4.8910   18.7580 O.3    56  SER56      -0.2183
     55  N          8.9390   10.1440   16.4350 N.3    58  MET58      -0.1245
     56  CA         9.4390   11.4910   16.6730 C.3    58  MET58       0.1570
     57  C         10.5880   11.7890   15.7110 C.2    58  MET58       0.2261
     58  O         11.4050   10.9170   15.4160 O.2    58  MET58      -0.2867
     59  CB         9.9160   11.6350   18.1180 C.3    58  MET58       0.0387
     60  CG         8.9020   11.1730   19.1530 C.3    58  MET58       0.0595
     61  SD         8.0500   12.5450   19.9540 S.3    58  MET58      -0.1393
     62  CE         9.1940   12.9280   21.2780 C.3    58  MET58       0.0692
     63  N         14.0490   13.5520   14.5680 N.3    60  ALA60      -0.1231
     64  CA        15.2700   14.1460   15.0830 C.3    60  ALA60       0.1694
     65  C         15.2470   15.6310   14.7930 C.2    60  ALA60       0.2593
     66  O         14.7880   16.0620   13.7440 O.2    60  ALA60      -0.2718
     67  CB        16.4720   13.5130   14.4630 C.3    60  ALA60       0.0304
     68  N         15.7490   16.4530   15.7180 N.am   61  THR61      -0.1939
     69  CA        15.7350   17.8990   15.5700 C.3    61  THR61       0.2028
     70  C         16.3950   18.3670   14.2960 C.2    61  THR61       0.2642
     71  O         15.9590   19.3570   13.6630 O.2    61  THR61      -0.2714
     72  CB        16.4460   18.5530   16.7560 C.3    61  THR61       0.1808
     73  OG1       15.9470   17.9660   17.9560 O.3    61  THR61      -0.2208
     74  CG2       16.1850   20.0560   16.7490 C.3    61  THR61       0.0379
     75  N         17.4480   17.6560   13.9050 N.am   62  GLN62      -0.1976
     76  CA        18.1650   17.9980   12.6780 C.3    62  GLN62       0.1601
     77  C         17.2810   17.9550   11.4440 C.2    62  GLN62       0.2287
     78  O         17.6030   18.6530   10.4630 O.2    62  GLN62      -0.2864
     79  CB        19.3790   17.0860   12.4620 C.3    62  GLN62       0.0394
     80  CG        19.0250   15.5680   12.2370 C.3    62  GLN62       0.0908
     81  CD        20.1320   14.5460   12.5430 C.2    62  GLN62       0.2608
     82  OE1       21.0810   14.8060   13.2670 O.2    62  GLN62      -0.2717
     83  NE2       19.9670   13.3570   12.0130 N.am   62  GLN62      -0.0878
     84  N         16.1460    5.1140   15.5720 N.3    84  ILE84      -0.1245
     85  CA        16.5190    4.5650   16.8900 C.3    84  ILE84       0.1561
     86  C         15.2320    4.3080   17.6440 C.2    84  ILE84       0.2260
     87  O         14.2790    5.0280   17.4730 O.2    84  ILE84      -0.2867
     88  CB        17.3770    5.5600   17.7130 C.3    84  ILE84       0.0252
     89  CG1       18.7210    5.7830   16.9990 C.3    84  ILE84       0.0019
     90  CG2       17.5850    5.0510   19.1610 C.3    84  ILE84       0.0019
     91  CD1       19.5960    6.8520   17.6130 C.3    84  ILE84       0.0001
     92  N         13.6340    4.0830   21.4860 N.3    86  ASN86      -0.1225
     93  CA        13.9000    4.3440   22.8880 C.3    86  ASN86       0.1785
     94  C         12.6650    3.9640   23.6430 C.2    86  ASN86       0.2598
     95  O         11.5560    3.9590   23.1410 O.2    86  ASN86      -0.2718
     96  CB        14.2750    5.7960   23.1660 C.3    86  ASN86       0.1169
     97  CG        15.0990    5.9190   24.4240 C.2    86  ASN86       0.2627
     98  OD1       16.1920    5.3440   24.5100 O.2    86  ASN86      -0.2716
     99  ND2       14.5820    6.6140   25.4000 N.am   86  ASN86      -0.0877
    100  N         12.8150    3.5520   24.8780 N.am   87  THR87      -0.1939
    101  CA        11.7160    3.0940   25.7110 C.3    87  THR87       0.2028
    102  C         11.5750    4.0090   26.9130 C.2    87  THR87       0.2642
    103  O         12.5570    4.2660   27.6260 O.2    87  THR87      -0.2714
    104  CB        11.9870    1.6490   26.1350 C.3    87  THR87       0.1808
    105  OG1       12.1190    0.8020   24.9690 O.3    87  THR87      -0.2208
    106  CG2       10.8580    1.1280   26.9630 C.3    87  THR87       0.0379
    107  N         10.3670    4.4790   27.1200 N.am   88  LEU88      -0.1977
    108  CA        10.0560    5.3650   28.2440 C.3    88  LEU88       0.1596
    109  C          9.9100    4.6030   29.5350 C.2    88  LEU88       0.2287
    110  O          9.7300    3.3730   29.5550 O.2    88  LEU88      -0.2864
    111  CB         8.7500    6.1020   27.9820 C.3    88  LEU88       0.0297
    112  CG         8.6470    6.8390   26.6690 C.3    88  LEU88       0.0022
    113  CD1        7.3560    7.6060   26.6120 C.3    88  LEU88       0.0001
    114  CD2        9.8210    7.7430   26.4550 C.3    88  LEU88       0.0001
    115  N          6.2820    2.5640   27.0790 N.3    92  ARG92      -0.1231
    116  CA         6.0290    2.9050   25.6850 C.3    92  ARG92       0.1694
    117  C          7.3370    3.0860   24.9150 C.2    92  ARG92       0.2592
    118  O          8.2970    3.6610   25.4280 O.2    92  ARG92      -0.2718
    119  CB         5.1930    4.1830   25.5950 C.3    92  ARG92       0.0321
    120  CG         3.6990    3.9570   25.7560 C.3    92  ARG92       0.0489
    121  CD         2.9220    5.2570   25.6230 C.3    92  ARG92       0.2205
    122  NE         3.3680    6.2640   26.5810 N.pl3  92  ARG92      -0.0865
    123  CZ         2.8570    7.4870   26.6710 C.cat  92  ARG92       0.5346
    124  NH1        3.3240    8.3390   27.5740 N.pl3  92  ARG92       0.1354
    125  NH2        1.8780    7.8610   25.8580 N.pl3  92  ARG92       0.1354
    126  N          7.3620    2.5970   23.6780 N.am   93  ARG93      -0.1962
    127  CA         8.4910    2.7710   22.8050 C.3    93  ARG93       0.1772
    128  C          8.2600    3.9540   21.8880 C.2    93  ARG93       0.2619
    129  O          7.1920    4.1630   21.4380 O.2    93  ARG93      -0.2715
    130  CB         8.7480    1.5180   21.9920 C.3    93  ARG93       0.0603
    131  CG         9.8760    0.6090   22.4860 C.2    93  ARG93       0.0163
    132  CD         9.4480   -0.6000   23.1700 C.2    93  ARG93       0.1886
    133  NE        10.5020   -1.3220   23.8620 N.pl3  93  ARG93      -0.0578
    134  CZ        10.7420   -2.5900   23.6680 C.cat  93  ARG93       0.5393
    135  NH1       10.0610   -3.2650   22.8080 N.pl3  93  ARG93       0.1358
    136  NH2       11.6330   -3.2030   24.3640 N.pl3  93  ARG93       0.1358
    137  N          9.3280    4.7170   21.6920 N.am   94  VAL94      -0.1977
    138  CA         9.3270    5.8590   20.8050 C.3    94  VAL94       0.1596
    139  C         10.3390    5.5950   19.7040 C.2    94  VAL94       0.2287
    140  O         11.4660    5.1720   19.9590 O.2    94  VAL94      -0.2864
    141  CB         9.7060    7.1540   21.5450 C.3    94  VAL94       0.0276
    142  CG1        9.9180    8.2880   20.5550 C.3    94  VAL94       0.0022
    143  CG2        8.6340    7.5170   22.5610 C.3    94  VAL94       0.0022
    144  N         12.5280    7.2070   16.9230 N.3    96  ILE96      -0.1245
    145  CA        13.1330    8.4570   16.5390 C.3    96  ILE96       0.1561
    146  C         13.7200    8.3720   15.1490 C.2    96  ILE96       0.2260
    147  O         14.6030    7.5960   14.8960 O.2    96  ILE96      -0.2867
    148  CB        14.1950    8.9320   17.5460 C.3    96  ILE96       0.0252
    149  CG1       13.6190    9.0200   18.9550 C.3    96  ILE96       0.0019
    150  CG2       14.7030   10.3050   17.1610 C.3    96  ILE96       0.0019
    151  CD1       13.9170    7.8600   19.7720 C.3    96  ILE96       0.0001
    152  N         15.9430    9.4830   12.3120 N.3    98  MET98      -0.1245
    153  CA        17.1990   10.2050   12.2100 C.3    98  MET98       0.1570
    154  C         17.5580   10.5560   10.8010 C.2    98  MET98       0.2261
    155  O         18.1510   11.5230   10.5570 O.2    98  MET98      -0.2867
    156  CB        18.3210    9.3340   12.7440 C.3    98  MET98       0.0387
    157  CG        18.1330    8.8710   14.1750 C.3    98  MET98       0.0595
    158  SD        17.8970   10.1640   15.3970 S.3    98  MET98      -0.1393
    159  CE        19.3470   11.1710   15.1670 C.3    98  MET98       0.0692
@<TRIPOS>BOND
     1    78    77    2
     2   155   154    2
     3   154   153    1
     4    77    76    1
     5    83    81   am
     6   153   152    1
     7   153   156    1
     8    80    79    1
     9    80    81    1
    10    79    76    1
    11    81    82    2
    12    76    75    1
    13   156   157    1
    14    71    70    2
    15    66    65    2
    16    75    70   am
    17   157   158    1
    18     1     2    1
    19    70    69    1
    20    67    64    1
    21    63    64    1
    22    65    64    1
    23    65    68   am
    24    41    40    2
    25   147   146    2
    26   146   145    1
    27   159   158    1
    28     2     3    1
    29     2     5    1
    30    40    39    1
    31    58    57    2
    32    69    68    1
    33    69    72    1
    34    84    85    1
    35    57    56    1
    36     3     4    2
    37     5     6    1
    38    55    56    1
    39    38    39    1
    40   145   144    1
    41   145   148    1
    42    39    42    1
    43    56    59    1
    44    74    72    1
    45    72    73    1
    46     6     7    1
    47    85    86    1
    48    85    88    1
    49    89    91    1
    50    89    88    1
    51   150   148    1
    52    87    86    2
    53   148   149    1
    54    49    50    1
    55     7     8    1
    56    29    30    2
    57    29    28    1
    58    88    90    1
    59    42    43    1
    60    51    52    2
    61    51    50    1
    62    43    44    1
    63    59    60    1
    64    28    27    1
    65    28    31    1
    66    50    53    1
    67    37    35    1
    68    54    53    1
    69   149   151    1
    70    32    31    1
    71    32    33    1
    72     8     9    2
    73    60    61    1
    74    44    45    1
    75    12    13    1
    76    45    46    2
    77   139   140    2
    78   139   138    1
    79    35    34    2
    80    35    36    1
    81    10     9    1
    82    61    62    1
    83    33    34    1
    84     9    11    1
    85   142   141    1
    86    17    19    1
    87    17    16    1
    88    46    47    1
    89    46    48    1
    90   138   141    1
    91   138   137    1
    92    13    16    1
    93    13    14    1
    94    15    14    2
    95    16    18    1
    96   129   128    2
    97    92    93    1
    98   141   143    1
    99   137   128   am
   100    14    20   am
   101   128   127    1
   102   130   131    1
   103   130   127    1
   104   131   132    2
   105   127   126    1
   106   135   134    1
   107    93    96    1
   108    93    94    1
   109    20    21    1
   110    95    94    2
   111    96    97    1
   112   132   133    1
   113    94   100   am
   114   134   133    2
   115   134   136    1
   116   126   117   am
   117    21    22    1
   118    21    24    1
   119    22    23    2
   120    97    98    2
   121    97    99   am
   122    25    24    1
   123   100   101    1
   124   117   118    2
   125   117   116    1
   126   105   104    1
   127    24    26    1
   128   119   116    1
   129   119   120    1
   130   121   120    1
   131   121   122    1
   132   116   115    1
   133   101   104    1
   134   101   102    1
   135   125   123    1
   136   104   106    1
   137   114   112    1
   138   122   123    2
   139   113   112    1
   140   112   111    1
   141   123   124    1
   142   102   107   am
   143   102   103    2
   144   107   108    1
   145   111   108    1
   146   108   109    1
   147   109   110    2
