@<TRIPOS>MOLECULE
tmp/4r4uB00.pdb
 144 138 0 0 0
SMALL
GASTEIGER

@<TRIPOS>ATOM
      1  N        -26.1790  -55.1880  -44.5560 N.3    26  GLN26      -0.1231
      2  CA       -25.2310  -55.6490  -43.5850 C.3    26  GLN26       0.1698
      3  C        -24.3260  -56.6890  -44.1830 C.2    26  GLN26       0.2592
      4  O        -24.7310  -57.4880  -44.9980 O.2    26  GLN26      -0.2718
      5  CB       -25.9120  -56.1720  -42.3300 C.3    26  GLN26       0.0381
      6  CG       -26.6540  -57.4900  -42.4530 C.3    26  GLN26       0.0905
      7  CD       -27.2250  -57.9170  -41.1060 C.2    26  GLN26       0.2608
      8  OE1      -27.8840  -57.1240  -40.4280 O.2    26  GLN26      -0.2717
      9  NE2      -26.9530  -59.1620  -40.6950 N.am   26  GLN26      -0.0878
     10  N        -23.0740  -56.6480  -43.7590 N.am   27  VAL27      -0.1980
     11  CA       -22.0680  -57.5910  -44.2090 C.3    27  VAL27       0.1595
     12  C        -22.4590  -59.0150  -43.8580 C.2    27  VAL27       0.2287
     13  O        -22.9670  -59.2710  -42.7840 O.2    27  VAL27      -0.2864
     14  CB       -20.7000  -57.2790  -43.5710 C.3    27  VAL27       0.0276
     15  CG1      -20.7480  -57.4430  -42.0750 C.3    27  VAL27       0.0022
     16  CG2      -19.6490  -58.2060  -44.0990 C.3    27  VAL27       0.0022
     17  N        -21.6580  -62.5200  -42.4930 N.3    29  GLY29      -0.1225
     18  CA       -20.7160  -63.0590  -41.4950 C.3    29  GLY29       0.1811
     19  C        -19.5030  -63.7250  -42.1480 C.2    29  GLY29       0.2280
     20  O        -18.3330  -63.5130  -41.7690 O.2    29  GLY29      -0.2866
     21  N        -16.5890  -61.5610  -43.0990 N.3    32  VAL32      -0.1245
     22  CA       -15.7660  -61.1860  -41.9280 C.3    32  VAL32       0.1561
     23  C        -14.8800  -62.3840  -41.4760 C.2    32  VAL32       0.2260
     24  O        -13.7130  -62.2050  -41.1250 O.2    32  VAL32      -0.2867
     25  CB       -16.6590  -60.6560  -40.7660 C.3    32  VAL32       0.0252
     26  CG1      -15.8360  -60.2500  -39.5670 C.3    32  VAL32       0.0019
     27  CG2      -17.5070  -59.4610  -41.2250 C.3    32  VAL32       0.0019
     28  N        -19.6940  -62.3940  -32.8720 N.3    57  PHE57      -0.1227
     29  CA       -20.1970  -61.2510  -33.6400 C.3    57  PHE57       0.1736
     30  C        -20.9150  -60.3770  -32.6490 C.2    57  PHE57       0.2595
     31  O        -21.8470  -60.8420  -32.0290 O.2    57  PHE57      -0.2718
     32  CB       -21.2120  -61.6940  -34.6890 C.3    57  PHE57       0.0547
     33  CG       -20.6390  -62.5820  -35.7360 C.ar   57  PHE57      -0.0202
     34  CD1      -20.2600  -63.8530  -35.4460 C.ar   57  PHE57      -0.0042
     35  CD2      -20.4140  -62.1090  -36.9950 C.ar   57  PHE57      -0.0042
     36  CE1      -19.7050  -64.6730  -36.4050 C.ar   57  PHE57      -0.0003
     37  CE2      -19.8560  -62.9210  -37.9660 C.ar   57  PHE57      -0.0003
     38  CZ       -19.5130  -64.2050  -37.6660 C.ar   57  PHE57      -0.0000
     39  N        -20.4710  -59.1350  -32.4960 N.am   58  LEU58      -0.1966
     40  CA       -21.0890  -58.1910  -31.5730 C.3    58  LEU58       0.1728
     41  C        -22.0680  -57.2150  -32.2800 C.2    58  LEU58       0.2616
     42  O        -23.1410  -56.9010  -31.7140 O.2    58  LEU58      -0.2715
     43  CB       -20.0030  -57.3890  -30.8340 C.3    58  LEU58       0.0311
     44  CG       -18.8650  -58.1370  -30.1870 C.3    58  LEU58       0.0022
     45  CD1      -17.9530  -57.1740  -29.4420 C.3    58  LEU58       0.0001
     46  CD2      -19.3270  -59.2070  -29.2610 C.3    58  LEU58       0.0001
     47  N        -21.7010  -56.7240  -33.4740 N.am   59  ARG59      -0.1964
     48  CA       -22.4790  -55.6630  -34.1620 C.3    59  ARG59       0.1714
     49  C        -22.5940  -55.9450  -35.6370 C.2    59  ARG59       0.2458
     50  O        -21.7290  -56.6110  -36.2080 O.2    59  ARG59      -0.2730
     51  CB       -21.8710  -54.2450  -33.9840 C.3    59  ARG59       0.0347
     52  CG       -21.7890  -53.7320  -32.5450 C.3    59  ARG59       0.0492
     53  CD       -21.0740  -52.3730  -32.4240 C.3    59  ARG59       0.2205
     54  NE       -20.8730  -51.9640  -31.0190 N.pl3  59  ARG59      -0.0865
     55  CZ       -19.8770  -52.3540  -30.2060 C.cat  59  ARG59       0.5346
     56  NH1      -18.9220  -53.1790  -30.5820 N.pl3  59  ARG59       0.1354
     57  NH2      -19.8470  -51.9210  -28.9650 N.pl3  59  ARG59       0.1354
     58  N        -23.6690  -55.4440  -36.2750 N.am   60  PRO60      -0.2716
     59  CA       -23.7480  -55.6400  -37.7140 C.3    60  PRO60       0.1536
     60  C        -22.6920  -54.8120  -38.4040 C.2    60  PRO60       0.2599
     61  O        -22.2270  -53.8180  -37.8530 O.2    60  PRO60      -0.2715
     62  CB       -25.1710  -55.1670  -38.0780 C.3    60  PRO60       0.0310
     63  CG       -25.9010  -55.0720  -36.7690 C.3    60  PRO60       0.0237
     64  CD       -24.8480  -54.7350  -35.7590 C.3    60  PRO60       0.0939
     65  N        -22.3150  -55.2300  -39.6020 N.am   61  GLY61      -0.1955
     66  CA       -21.2510  -54.5650  -40.3410 C.3    61  GLY61       0.1869
     67  C        -21.8330  -53.8510  -41.5440 C.2    61  GLY61       0.2309
     68  O        -22.5650  -54.4430  -42.3620 O.2    61  GLY61      -0.2863
     69  N        -16.9090  -54.7550  -34.3700 N.3    94  ILE94      -0.1231
     70  CA       -18.1230  -55.4870  -34.7700 C.3    94  ILE94       0.1692
     71  C        -18.0200  -56.9880  -34.6040 C.2    94  ILE94       0.2592
     72  O        -19.0400  -57.7200  -34.7090 O.2    94  ILE94      -0.2718
     73  CB       -18.4680  -55.1840  -36.2400 C.3    94  ILE94       0.0266
     74  CG1      -17.4670  -55.8050  -37.2020 C.3    94  ILE94       0.0019
     75  CG2      -18.5300  -53.6830  -36.4560 C.3    94  ILE94       0.0020
     76  CD1      -17.7670  -55.5090  -38.6660 C.3    94  ILE94       0.0001
     77  N        -16.7970  -57.4650  -34.3670 N.am   95  PHE95      -0.1976
     78  CA       -16.4790  -58.8930  -34.3880 C.3    95  PHE95       0.1639
     79  C        -15.0700  -59.1090  -33.8700 C.2    95  PHE95       0.2290
     80  O        -14.1820  -58.2890  -34.0610 O.2    95  PHE95      -0.2864
     81  CB       -16.6360  -59.3910  -35.8370 C.3    95  PHE95       0.0560
     82  CG       -15.9270  -60.6910  -36.1930 C.ar   95  PHE95      -0.0200
     83  CD1      -16.6600  -61.8320  -36.4400 C.ar   95  PHE95      -0.0042
     84  CD2      -14.5700  -60.7280  -36.4470 C.ar   95  PHE95      -0.0042
     85  CE1      -16.0410  -63.0290  -36.8340 C.ar   95  PHE95      -0.0003
     86  CE2      -13.9300  -61.9210  -36.8350 C.ar   95  PHE95      -0.0003
     87  CZ       -14.6810  -63.0750  -37.0340 C.ar   95  PHE95      -0.0000
     88  N        -36.3450  -62.7760  -36.4770 N.3   204  GLN204     -0.1245
     89  CA       -35.0530  -62.2200  -36.1800 C.3   204  GLN204      0.1566
     90  C        -34.0750  -63.3640  -35.9840 C.2   204  GLN204      0.2260
     91  O        -34.1790  -64.1340  -35.0380 O.2   204  GLN204     -0.2867
     92  CB       -35.0710  -61.3610  -34.9370 C.3   204  GLN204      0.0367
     93  CG       -33.7900  -60.5590  -34.7860 C.3   204  GLN204      0.0905
     94  CD       -33.5940  -60.0190  -33.4020 C.2   204  GLN204      0.2608
     95  OE1      -34.4570  -60.1730  -32.5390 O.2   204  GLN204     -0.2717
     96  NE2      -32.4310  -59.4060  -33.1640 N.am  204  GLN204     -0.0878
     97  N        -29.8210  -64.0570  -36.0730 N.3   206  ALA206     -0.1231
     98  CA       -28.5000  -63.4570  -36.1340 C.3   206  ALA206      0.1694
     99  C        -27.4760  -64.2910  -35.3450 C.2   206  ALA206      0.2593
    100  O        -27.7530  -64.8820  -34.2700 O.2   206  ALA206     -0.2718
    101  CB       -28.5440  -62.0300  -35.6160 C.3   206  ALA206      0.0304
    102  N        -26.2780  -64.2930  -35.8950 N.am  207  THR207     -0.1939
    103  CA       -25.1850  -65.1160  -35.4040 C.3   207  THR207      0.2028
    104  C        -24.6530  -64.4580  -34.1280 C.2   207  THR207      0.2642
    105  O        -24.5550  -63.2370  -34.0380 O.2   207  THR207     -0.2714
    106  CB       -24.1520  -65.2990  -36.5220 C.3   207  THR207      0.1808
    107  OG1      -24.7470  -66.0830  -37.5770 O.3   207  THR207     -0.2208
    108  CG2      -22.9120  -65.9930  -36.0500 C.3   207  THR207      0.0379
    109  N        -24.4640  -65.2690  -33.0970 N.am  208  ILE208     -0.1977
    110  CA       -23.8250  -64.8370  -31.9080 C.3   208  ILE208      0.1596
    111  C        -22.3410  -65.2030  -32.0540 C.2   208  ILE208      0.2287
    112  O        -21.4450  -64.3450  -31.9690 O.2   208  ILE208     -0.2864
    113  CB       -24.4360  -65.5040  -30.6690 C.3   208  ILE208      0.0276
    114  CG1      -25.8550  -65.0390  -30.4590 C.3   208  ILE208      0.0022
    115  CG2      -23.6580  -65.1700  -29.4260 C.3   208  ILE208      0.0022
    116  CD1      -26.6710  -65.8060  -29.4150 C.3   208  ILE208      0.0001
    117  N        -29.1740  -66.0110  -32.3300 N.3   260  VAL260     -0.1245
    118  CA       -30.5040  -65.5510  -31.9380 C.3   260  VAL260      0.1561
    119  C        -31.5200  -65.9980  -32.9690 C.2   260  VAL260      0.2260
    120  O        -31.3630  -65.7080  -34.1320 O.2   260  VAL260     -0.2867
    121  CB       -30.5710  -63.9970  -31.9030 C.3   260  VAL260      0.0252
    122  CG1      -31.9820  -63.5150  -31.5560 C.3   260  VAL260      0.0019
    123  CG2      -29.5800  -63.4290  -30.8900 C.3   260  VAL260      0.0019
    124  N        -35.4950  -65.4500  -33.1780 N.3   262  ARG262     -0.1245
    125  CA       -36.5620  -64.9110  -32.4070 C.3   262  ARG262      0.1563
    126  C        -37.6340  -64.4970  -33.3580 C.2   262  ARG262      0.2260
    127  O        -37.3580  -63.7750  -34.2860 O.2   262  ARG262     -0.2867
    128  CB       -36.0360  -63.7150  -31.6590 C.3   262  ARG262      0.0307
    129  CG       -36.8910  -63.2600  -30.5140 C.3   262  ARG262      0.0489
    130  CD       -36.4210  -61.8920  -30.0410 C.3   262  ARG262      0.2205
    131  NE       -35.4700  -61.9690  -28.9300 N.pl3 262  ARG262     -0.0865
    132  CZ       -34.2320  -61.4920  -28.9490 C.cat 262  ARG262      0.5346
    133  NH1      -33.4870  -61.5750  -27.8620 N.pl3 262  ARG262      0.1354
    134  NH2      -33.7460  -60.9170  -30.0400 N.pl3 262  ARG262      0.1354
    135  N        -40.6710  -62.3040  -34.1930 N.3   264  HIS264     -0.1241
    136  CA       -41.3830  -61.0900  -33.7800 C.3   264  HIS264      0.1621
    137  C        -42.7730  -61.0580  -34.4060 C.2   264  HIS264      0.2264
    138  O        -43.7400  -61.3570  -33.7220 O.2   264  HIS264     -0.2867
    139  CB       -40.6350  -59.8180  -34.1810 C.3   264  HIS264      0.0745
    140  CG       -39.3460  -59.6230  -33.4530 C.ar  264  HIS264      0.0817
    141  ND1      -39.2870  -59.4490  -32.0880 N.ar  264  HIS264     -0.2268
    142  CD2      -38.0690  -59.5780  -33.8950 C.ar  264  HIS264      0.1154
    143  CE1      -38.0270  -59.3090  -31.7180 C.ar  264  HIS264      0.1986
    144  NE2      -37.2670  -59.3810  -32.7950 N.ar  264  HIS264     -0.2212
@<TRIPOS>BOND
     1     4     3    2
     2     1     2    1
     3    11    12    1
     4    11    10    1
     5    11    14    1
     6     3    10   am
     7     3     2    1
     8    16    14    1
     9    12    13    2
    10     2     5    1
    11    14    15    1
    12    21    22    1
    13    17    18    1
    14     6     5    1
    15     6     7    1
    16    68    67    2
    17    19    20    2
    18    19    18    1
    19    22    23    1
    20    22    25    1
    21    67    66    1
    22    23    24    2
    23    27    25    1
    24     7     9   am
    25     7     8    2
    26    25    26    1
    27    66    65    1
    28    65    60   am
    29    76    74    1
    30    60    61    2
    31    60    59    1
    32    62    59    1
    33    62    63    1
    34    37    38   ar
    35    37    35   ar
    36    59    58    1
    37    38    36   ar
    38   107   106    1
    39    74    73    1
    40    87    86   ar
    41    87    85   ar
    42    35    33   ar
    43    86    84   ar
    44    85    83   ar
    45    63    64    1
    46   106   108    1
    47   106   103    1
    48    88    89    1
    49    75    73    1
    50    84    82   ar
    51    83    82   ar
    52    36    34   ar
    53    58    64    1
    54    58    49   am
    55    73    70    1
    56    50    49    2
    57    82    81    1
    58    89    90    1
    59    89    92    1
    60    98    97    1
    61    98   101    1
    62    98    99    1
    63    90    91    2
    64   102   103    1
    65   102    99   am
    66    81    78    1
    67    33    34   ar
    68    33    32    1
    69    49    48    1
    70   103   104    1
    71    99   100    2
    72    92    93    1
    73    93    94    1
    74    70    71    1
    75    70    69    1
    76    72    71    2
    77    32    29    1
    78    71    77   am
    79   137   136    1
    80   137   138    2
    81    78    77    1
    82    78    79    1
    83   127   126    2
    84   135   136    1
    85   139   136    1
    86   139   140    1
    87    48    51    1
    88    48    47    1
    89   120   119    2
    90   104   105    2
    91   104   109   am
    92    80    79    2
    93    51    52    1
    94   142   140   ar
    95   142   144   ar
    96    29    28    1
    97    29    30    1
    98    47    41   am
    99   140   141   ar
   100    94    96   am
   101    94    95    2
   102   126   125    1
   103   124   125    1
   104   109   110    1
   105   119   118    1
   106   144   143   ar
   107    30    39   am
   108    30    31    2
   109    52    53    1
   110    39    40    1
   111    53    54    1
   112   125   128    1
   113   117   118    1
   114    41    42    2
   115    41    40    1
   116   141   143   ar
   117   111   112    2
   118   111   110    1
   119   118   121    1
   120   110   113    1
   121   121   122    1
   122   121   123    1
   123   128   129    1
   124    40    43    1
   125    54    55    2
   126    43    44    1
   127   113   114    1
   128   113   115    1
   129    56    55    1
   130   129   130    1
   131   114   116    1
   132    55    57    1
   133    44    45    1
   134    44    46    1
   135   130   131    1
   136   134   132    1
   137   132   131    2
   138   132   133    1
