@<TRIPOS>MOLECULE
tmp/4r4uA00.pdb
 144 138 0 0 0
SMALL
GASTEIGER

@<TRIPOS>ATOM
      1  N         16.9190  -41.3260  -40.5120 N.3    29  GLN29      -0.1231
      2  CA        15.8770  -41.3450  -39.4920 C.3    29  GLN29       0.1698
      3  C         14.9540  -40.1070  -39.5080 C.2    29  GLN29       0.2592
      4  O         15.3000  -39.0500  -40.0170 O.2    29  GLN29      -0.2718
      5  CB        16.4700  -41.5300  -38.0940 C.3    29  GLN29       0.0381
      6  CG        17.1910  -40.3070  -37.5410 C.3    29  GLN29       0.0905
      7  CD        17.6180  -40.5060  -36.0920 C.2    29  GLN29       0.2608
      8  OE1       18.2490  -41.5190  -35.7460 O.2    29  GLN29      -0.2717
      9  NE2       17.2700  -39.5510  -35.2320 N.am   29  GLN29      -0.0878
     10  N         13.7560  -40.2660  -38.9590 N.am   30  VAL30      -0.1980
     11  CA        12.7610  -39.2010  -39.0310 C.3    30  VAL30       0.1595
     12  C         13.0570  -38.1290  -37.9820 C.2    30  VAL30       0.2287
     13  O         13.5150  -38.4270  -36.8820 O.2    30  VAL30      -0.2864
     14  CB        11.3220  -39.7600  -38.9690 C.3    30  VAL30       0.0276
     15  CG1       11.0530  -40.3740  -37.6360 C.3    30  VAL30       0.0022
     16  CG2       10.2850  -38.6780  -39.2020 C.3    30  VAL30       0.0022
     17  N         12.2820  -35.6550  -35.0180 N.3    32  GLY32      -0.1225
     18  CA        11.3880  -35.6690  -33.8540 C.3    32  GLY32       0.1811
     19  C         10.1700  -34.8100  -34.0520 C.2    32  GLY32       0.2280
     20  O          9.0470  -35.2830  -33.8880 O.2    32  GLY32      -0.2866
     21  N          7.2260  -36.2280  -36.1080 N.3    35  VAL35      -0.1245
     22  CA         6.4140  -37.1650  -35.3470 C.3    35  VAL35       0.1561
     23  C          5.4650  -36.4570  -34.3720 C.2    35  VAL35       0.2260
     24  O          4.2670  -36.7830  -34.2640 O.2    35  VAL35      -0.2867
     25  CB         7.2730  -38.2150  -34.6200 C.3    35  VAL35       0.0252
     26  CG1        6.3710  -39.1790  -33.8960 C.3    35  VAL35       0.0019
     27  CG2        8.0800  -39.0330  -35.6180 C.3    35  VAL35       0.0019
     28  N         10.2530  -40.7320  -26.9620 N.3    60  PHE60      -0.1227
     29  CA        10.7680  -41.2660  -28.2210 C.3    60  PHE60       0.1736
     30  C         11.5290  -42.5840  -27.9590 C.2    60  PHE60       0.2595
     31  O         12.6080  -42.5680  -27.3930 O.2    60  PHE60      -0.2718
     32  CB        11.7050  -40.2850  -28.8800 C.3    60  PHE60       0.0547
     33  CG        11.0600  -39.0270  -29.3160 C.ar   60  PHE60      -0.0202
     34  CD1       10.7110  -38.0810  -28.4320 C.ar   60  PHE60      -0.0042
     35  CD2       10.8350  -38.7820  -30.6460 C.ar   60  PHE60      -0.0042
     36  CE1       10.1370  -36.8950  -28.8220 C.ar   60  PHE60      -0.0003
     37  CE2       10.2350  -37.5930  -31.0560 C.ar   60  PHE60      -0.0003
     38  CZ         9.9090  -36.6390  -30.1220 C.ar   60  PHE60      -0.0000
     39  N         10.9440  -43.7080  -28.3660 N.am   61  LEU61      -0.1966
     40  CA        11.4780  -45.0100  -28.0360 C.3    61  LEU61       0.1728
     41  C         12.4350  -45.5290  -29.0750 C.2    61  LEU61       0.2616
     42  O         13.4200  -46.1580  -28.7010 O.2    61  LEU61      -0.2715
     43  CB        10.3610  -46.0260  -27.8070 C.3    61  LEU61       0.0311
     44  CG         9.4030  -45.6770  -26.6440 C.3    61  LEU61       0.0022
     45  CD1        8.4150  -46.8070  -26.3570 C.3    61  LEU61       0.0001
     46  CD2       10.0900  -45.2770  -25.3390 C.3    61  LEU61       0.0001
     47  N         12.1590  -45.2590  -30.3510 N.am   62  ARG62      -0.1964
     48  CA        12.9620  -45.7690  -31.4450 C.3    62  ARG62       0.1714
     49  C         13.0510  -44.7470  -32.5710 C.2    62  ARG62       0.2458
     50  O         12.1580  -43.9330  -32.7310 O.2    62  ARG62      -0.2730
     51  CB        12.3300  -47.0440  -32.0350 C.3    62  ARG62       0.0347
     52  CG        12.3330  -48.2480  -31.1460 C.3    62  ARG62       0.0492
     53  CD        11.7160  -49.4810  -31.8300 C.3    62  ARG62       0.2205
     54  NE        11.7200  -50.5830  -30.8550 N.pl3  62  ARG62      -0.0865
     55  CZ        10.8110  -50.8050  -29.9140 C.cat  62  ARG62       0.5346
     56  NH1        9.7260  -50.0560  -29.8250 N.pl3  62  ARG62       0.1354
     57  NH2       10.9700  -51.8180  -29.0600 N.pl3  62  ARG62       0.1354
     58  N         14.1360  -44.8140  -33.3750 N.am   63  PRO63      -0.2716
     59  CA        14.2510  -43.9800  -34.5540 C.3    63  PRO63       0.1536
     60  C         13.1520  -44.2940  -35.5600 C.2    63  PRO63       0.2599
     61  O         12.7560  -45.4230  -35.7250 O.2    63  PRO63      -0.2715
     62  CB        15.6160  -44.3770  -35.1490 C.3    63  PRO63       0.0310
     63  CG        16.3400  -45.1030  -34.0610 C.3    63  PRO63       0.0237
     64  CD        15.2750  -45.7570  -33.2470 C.3    63  PRO63       0.0939
     65  N         12.6830  -43.3060  -36.2720 N.am   64  GLY64      -0.1955
     66  CA        11.7470  -43.6120  -37.3400 C.3    64  GLY64       0.1869
     67  C         12.5050  -43.8310  -38.6380 C.2    64  GLY64       0.2309
     68  O         13.5150  -43.1950  -38.8910 O.2    64  GLY64      -0.2863
     69  N          7.3960  -46.4840  -31.9850 N.3    97  ILE97      -0.1231
     70  CA         8.6230  -45.6870  -32.0520 C.3    97  ILE97       0.1692
     71  C          8.5080  -44.4640  -31.1510 C.2    97  ILE97       0.2592
     72  O          9.5150  -43.7880  -30.8700 O.2    97  ILE97      -0.2718
     73  CB         9.0000  -45.2670  -33.5110 C.3    97  ILE97       0.0266
     74  CG1        7.9810  -44.3390  -34.1150 C.3    97  ILE97       0.0019
     75  CG2        9.1630  -46.4950  -34.3960 C.3    97  ILE97       0.0020
     76  CD1        8.4160  -43.7230  -35.4220 C.3    97  ILE97       0.0001
     77  N          7.2860  -44.2140  -30.6820 N.am   98  PHE98      -0.1976
     78  CA         6.9310  -42.9700  -30.0060 C.3    98  PHE98       0.1639
     79  C          5.5250  -43.0700  -29.4540 C.2    98  PHE98       0.2290
     80  O          4.6280  -43.5940  -30.0800 O.2    98  PHE98      -0.2864
     81  CB         7.1050  -41.8370  -30.9870 C.3    98  PHE98       0.0560
     82  CG         6.4660  -40.5170  -30.6090 C.ar   98  PHE98      -0.0200
     83  CD1        7.2570  -39.4340  -30.2400 C.ar   98  PHE98      -0.0042
     84  CD2        5.0830  -40.2980  -30.7710 C.ar   98  PHE98      -0.0042
     85  CE1        6.6850  -38.1970  -29.9870 C.ar   98  PHE98      -0.0003
     86  CE2        4.5140  -39.0410  -30.5200 C.ar   98  PHE98      -0.0003
     87  CZ         5.3080  -38.0060  -30.1110 C.ar   98  PHE98      -0.0000
     88  N         26.8860  -38.6050  -29.7870 N.3   217  GLN217     -0.1245
     89  CA        25.5410  -39.1730  -29.8000 C.3   217  GLN217      0.1566
     90  C         24.5610  -38.2460  -29.0720 C.2   217  GLN217      0.2260
     91  O         24.6570  -38.0150  -27.8590 O.2   217  GLN217     -0.2867
     92  CB        25.5220  -40.5560  -29.1530 C.3   217  GLN217      0.0367
     93  CG        24.1170  -41.0910  -28.8820 C.3   217  GLN217      0.0905
     94  CD        24.1140  -42.4300  -28.1580 C.2   217  GLN217      0.2608
     95  OE1       25.0790  -42.8030  -27.5010 O.2   217  GLN217     -0.2717
     96  NE2       23.0150  -43.1350  -28.2510 N.am  217  GLN217     -0.0878
     97  N         20.3750  -37.6530  -28.7420 N.3   219  ALA219     -0.1231
     98  CA        19.0350  -38.1700  -29.0750 C.3   219  ALA219      0.1694
     99  C         18.0480  -37.7760  -28.0280 C.2   219  ALA219      0.2593
    100  O         18.3070  -37.8520  -26.8410 O.2   219  ALA219     -0.2718
    101  CB        19.0120  -39.6820  -29.2180 C.3   219  ALA219      0.0304
    102  N         16.9030  -37.3400  -28.5110 N.am  220  THR220     -0.1939
    103  CA        15.7770  -37.0350  -27.7020 C.3   220  THR220      0.2028
    104  C         15.1950  -38.2740  -27.0130 C.2   220  THR220      0.2642
    105  O         14.9800  -39.2740  -27.6520 O.2   220  THR220     -0.2714
    106  CB        14.6770  -36.4550  -28.5970 C.3   220  THR220      0.1808
    107  OG1       15.1870  -35.2880  -29.2310 O.3   220  THR220     -0.2208
    108  CG2       13.4710  -36.0800  -27.7200 C.3   220  THR220      0.0379
    109  N         14.9120  -38.1400  -25.7170 N.am  221  ILE221     -0.1977
    110  CA        14.2590  -39.1580  -24.9400 C.3   221  ILE221      0.1596
    111  C         12.8010  -38.7520  -24.7460 C.2   221  ILE221      0.2287
    112  O         11.9060  -39.5670  -24.9830 O.2   221  ILE221     -0.2864
    113  CB        14.8670  -39.2960  -23.5740 C.3   221  ILE221      0.0276
    114  CG1       16.3110  -39.7810  -23.6750 C.3   221  ILE221      0.0022
    115  CG2       14.0010  -40.1880  -22.6990 C.3   221  ILE221      0.0022
    116  CD1       17.0520  -39.5340  -22.3750 C.3   221  ILE221      0.0001
    117  N         19.7910  -37.8290  -24.5650 N.3   273  VAL273     -0.1245
    118  CA        21.0570  -38.4440  -24.3780 C.3   273  VAL273      0.1561
    119  C         22.0560  -37.5730  -25.0960 C.2   273  VAL273      0.2260
    120  O         21.8820  -37.2390  -26.2780 O.2   273  VAL273     -0.2867
    121  CB        21.1860  -39.8310  -25.0390 C.3   273  VAL273      0.0252
    122  CG1       22.5300  -40.4340  -24.7090 C.3   273  VAL273      0.0019
    123  CG2       20.0980  -40.7810  -24.5930 C.3   273  VAL273      0.0019
    124  N         26.0690  -37.9770  -25.5260 N.3   275  ARG275     -0.1245
    125  CA        27.1930  -38.8350  -25.2520 C.3   275  ARG275      0.1563
    126  C         28.2260  -38.6330  -26.3580 C.2   275  ARG275      0.2260
    127  O         27.9240  -38.8050  -27.5230 O.2   275  ARG275     -0.2867
    128  CB        26.7130  -40.2820  -25.2070 C.3   275  ARG275      0.0307
    129  CG        27.5260  -41.1880  -24.3080 C.3   275  ARG275      0.0489
    130  CD        27.1040  -42.6630  -24.4280 C.3   275  ARG275      0.2205
    131  NE        26.0530  -43.0670  -23.4930 N.pl3 275  ARG275     -0.0865
    132  CZ        24.8570  -43.5460  -23.8530 C.cat 275  ARG275      0.5346
    133  NH1       23.9770  -43.8870  -22.9180 N.pl3 275  ARG275      0.1354
    134  NH2       24.5250  -43.6890  -25.1390 N.pl3 275  ARG275      0.1354
    135  N         31.2560  -40.1780  -28.0070 N.3   277  HIS277     -0.1241
    136  CA        31.9120  -41.4800  -28.2350 C.3   277  HIS277      0.1621
    137  C         33.2830  -41.2750  -28.8550 C.2   277  HIS277      0.2264
    138  O         34.2580  -41.2410  -28.1310 O.2   277  HIS277     -0.2867
    139  CB        31.0970  -42.3660  -29.1750 C.3   277  HIS277      0.0745
    140  CG        29.7620  -42.7460  -28.6300 C.ar  277  HIS277      0.0817
    141  ND1       29.6220  -43.6200  -27.5740 N.ar  277  HIS277     -0.2268
    142  CD2       28.5100  -42.3700  -28.9820 C.ar  277  HIS277      0.1154
    143  CE1       28.3380  -43.7710  -27.3030 C.ar  277  HIS277      0.1986
    144  NE2       27.6430  -43.0200  -28.1390 N.ar  277  HIS277     -0.2212
@<TRIPOS>BOND
     1     1     2    1
     2     4     3    2
     3     3     2    1
     4     3    10   am
     5     2     5    1
     6    16    14    1
     7    11    14    1
     8    11    10    1
     9    11    12    1
    10    14    15    1
    11    68    67    2
    12    67    66    1
    13     5     6    1
    14    12    13    2
    15     6     7    1
    16    66    65    1
    17    65    60   am
    18    21    22    1
    19     7     8    2
    20     7     9   am
    21    61    60    2
    22    27    25    1
    23    60    59    1
    24    76    74    1
    25    22    25    1
    26    22    23    1
    27    62    59    1
    28    62    63    1
    29    17    18    1
    30    25    26    1
    31    59    58    1
    32    75    73    1
    33    23    24    2
    34    74    73    1
    35    63    64    1
    36    19    20    2
    37    19    18    1
    38    73    70    1
    39    58    64    1
    40    58    49   am
    41    50    49    2
    42    49    48    1
    43    70    69    1
    44    70    71    1
    45    51    48    1
    46    51    52    1
    47    53    52    1
    48    53    54    1
    49    48    47    1
    50    71    72    2
    51    71    77   am
    52    37    35   ar
    53    37    38   ar
    54    81    82    1
    55    81    78    1
    56    54    55    2
    57    84    82   ar
    58    84    86   ar
    59    77    78    1
    60    35    33   ar
    61    82    83   ar
    62    86    87   ar
    63    47    41   am
    64    83    85   ar
    65    38    36   ar
    66    87    85   ar
    67    80    79    2
    68    78    79    1
    69    55    56    1
    70    55    57    1
    71    89    88    1
    72    89    92    1
    73    89    90    1
    74    33    32    1
    75    33    34   ar
    76   107   106    1
    77   101    98    1
    78   139   140    1
    79   139   136    1
    80    92    93    1
    81    41    42    2
    82    41    40    1
    83    98    97    1
    84    98    99    1
    85    90    91    2
    86   142   140   ar
    87   142   144   ar
    88    93    94    1
    89    32    29    1
    90   137   136    1
    91   137   138    2
    92    36    34   ar
    93   140   141   ar
    94   106   108    1
    95   106   103    1
    96   102    99   am
    97   102   103    1
    98    39    40    1
    99    39    30   am
   100    96    94   am
   101   136   135    1
   102    29    30    1
   103    29    28    1
   104    94    95    2
   105   144   143   ar
   106    40    43    1
   107    99   100    2
   108    30    31    2
   109    43    44    1
   110   103   104    1
   111   105   104    2
   112   141   143   ar
   113   127   126    2
   114   104   109   am
   115    44    45    1
   116    44    46    1
   117   126   125    1
   118   120   119    2
   119   109   110    1
   120   124   125    1
   121   125   128    1
   122   128   129    1
   123   134   132    1
   124   119   118    1
   125   121   122    1
   126   121   123    1
   127   121   118    1
   128   112   111    2
   129   110   111    1
   130   110   113    1
   131   117   118    1
   132   130   129    1
   133   130   131    1
   134   132   131    2
   135   132   133    1
   136   114   113    1
   137   114   116    1
   138   113   115    1
