@<TRIPOS>MOLECULE
tmp/4r4yA00.pdb
 114 109 0 0 0
SMALL
GASTEIGER

@<TRIPOS>ATOM
      1  N        -12.0910   -1.1180  -15.9160 N.3   143  VAL143     -0.1245
      2  CA       -10.7850   -1.6550  -16.2410 C.3   143  VAL143      0.1561
      3  C        -10.9690   -2.9420  -17.0090 C.2   143  VAL143      0.2260
      4  O        -11.3280   -3.9700  -16.4610 O.2   143  VAL143     -0.2867
      5  CB        -9.9300   -1.9060  -14.9960 C.3   143  VAL143      0.0252
      6  CG1       -8.6070   -2.5730  -15.3880 C.3   143  VAL143      0.0019
      7  CG2       -9.6970   -0.5960  -14.2580 C.3   143  VAL143      0.0019
      8  N         -7.7330    0.4570  -20.0630 N.3   148  HIS148     -0.1226
      9  CA        -6.7480    0.2800  -19.0020 C.3   148  HIS148      0.1752
     10  C         -5.5170    1.1100  -19.3120 C.2   148  HIS148      0.2596
     11  O         -5.3650    1.6700  -20.4350 O.2   148  HIS148     -0.2718
     12  CB        -6.3240   -1.1420  -18.8850 C.3   148  HIS148      0.0759
     13  CG        -5.7730   -1.6940  -20.1460 C.ar  148  HIS148      0.0818
     14  ND1       -6.5640   -2.3050  -21.0890 N.ar  148  HIS148     -0.2268
     15  CD2       -4.5220   -1.6710  -20.6520 C.ar  148  HIS148      0.1154
     16  CE1       -5.8070   -2.6730  -22.1180 C.ar  148  HIS148      0.1986
     17  NE2       -4.5690   -2.2790  -21.8860 N.ar  148  HIS148     -0.2212
     18  N         -4.6570    1.2270  -18.3150 N.am  149  ASP149     -0.1960
     19  CA        -3.4880    2.0770  -18.4270 C.3   149  ASP149      0.1840
     20  C         -2.3280    1.6360  -17.5400 C.2   149  ASP149      0.2622
     21  O         -1.5780    2.4580  -17.0520 O.2   149  ASP149     -0.2715
     22  CB        -3.8520    3.5250  -18.0950 C.3   149  ASP149      0.1450
     23  CG        -2.7990    4.4960  -18.5140 C.2   149  ASP149      0.3671
     24  OD1       -2.3390    4.4240  -19.6740 O.co2 149  ASP149     -0.2456
     25  OD2       -2.4280    5.3590  -17.6890 O.co2 149  ASP149     -0.2456
     26  N         -2.1440    0.3540  -17.3650 N.am  150  THR150     -0.1951
     27  CA        -1.1580   -0.1130  -16.3990 C.3   150  THR150      0.1897
     28  C         -0.0950   -0.8990  -17.0820 C.2   150  THR150      0.2313
     29  O         -0.3900   -1.6770  -17.9720 O.2   150  THR150     -0.2863
     30  CB        -1.8330   -0.9940  -15.3420 C.3   150  THR150      0.1794
     31  OG1       -2.8180   -0.2130  -14.6850 O.3   150  THR150     -0.2208
     32  CG2       -0.8680   -1.4890  -14.2680 C.3   150  THR150      0.0378
     33  N          0.7040    3.7180  -13.5970 N.3   168  THR168     -0.1218
     34  CA        -0.5240    4.0650  -14.3390 C.3   168  THR168      0.1862
     35  C         -0.8010    5.5340  -14.1920 C.2   168  THR168      0.2287
     36  O         -0.2020    6.2000  -13.3650 O.2   168  THR168     -0.2866
     37  CB        -1.7520    3.2910  -13.8160 C.3   168  THR168      0.1770
     38  OG1       -2.8480    3.4330  -14.7460 O.3   168  THR168     -0.2211
     39  CG2       -2.1620    3.7800  -12.3920 C.3   168  THR168      0.0375
     40  N         -4.2270    5.8250  -14.3110 N.3   170  ASP170     -0.1225
     41  CA        -5.6480    5.5210  -13.9610 C.3   170  ASP170      0.1805
     42  C         -5.9790    5.9540  -12.5470 C.2   170  ASP170      0.2597
     43  O         -5.0540    6.1440  -11.7490 O.2   170  ASP170     -0.2718
     44  CB        -5.9840    4.0600  -14.1300 C.3   170  ASP170      0.1424
     45  CG        -6.3970    3.7390  -15.5460 C.2   170  ASP170      0.3668
     46  OD1       -6.8950    4.6750  -16.2350 O.co2 170  ASP170     -0.2456
     47  OD2       -6.2100    2.5780  -15.9950 O.co2 170  ASP170     -0.2456
     48  N         -7.2580    6.1320  -12.2050 N.am  171  MET171     -0.1979
     49  CA        -8.4250    6.0700  -13.0770 C.3   171  MET171      0.1605
     50  C         -8.7670    7.4370  -13.6330 C.2   171  MET171      0.2287
     51  O         -8.7440    8.4150  -12.9230 O.2   171  MET171     -0.2864
     52  CB        -9.6640    5.6470  -12.2730 C.3   171  MET171      0.0413
     53  CG        -9.6330    4.2610  -11.6150 C.3   171  MET171      0.0598
     54  SD        -9.4510    2.8730  -12.7450 S.3   171  MET171     -0.1393
     55  CE       -10.7160    3.3020  -13.9220 C.3   171  MET171      0.0692
     56  N         -6.3890   11.4560   -5.5350 N.3   178  ARG178     -0.1245
     57  CA        -6.7020   10.0000   -5.3400 C.3   178  ARG178      0.1563
     58  C         -5.4440    9.1680   -5.6410 C.2   178  ARG178      0.2260
     59  O         -4.7900    9.3270   -6.6980 O.2   178  ARG178     -0.2867
     60  CB        -7.8560    9.5620   -6.2590 C.3   178  ARG178      0.0307
     61  CG        -8.3390    8.1070   -6.1480 C.3   178  ARG178      0.0489
     62  CD        -7.4410    7.1650   -6.9150 C.3   178  ARG178      0.2205
     63  NE        -7.9550    5.8050   -7.0640 N.pl3 178  ARG178     -0.0865
     64  CZ        -7.4960    4.9600   -7.9590 C.cat 178  ARG178      0.5346
     65  NH1       -6.5370    5.3600   -8.8320 N.pl3 178  ARG178      0.1354
     66  NH2       -8.0380    3.7420   -8.0740 N.pl3 178  ARG178      0.1354
     67  N         -4.2040    5.1800   -6.2080 N.3   180  GLY180     -0.1210
     68  CA        -4.5420    3.8170   -6.4420 C.3   180  GLY180      0.1956
     69  C         -3.5510    2.8610   -5.8180 C.2   180  GLY180      0.2612
     70  O         -2.7580    3.2420   -4.9440 O.2   180  GLY180     -0.2717
     71  N         -3.6660    1.5990   -6.2150 N.am  181  ASP181     -0.1959
     72  CA        -2.7490    0.5570   -5.7560 C.3   181  ASP181      0.1840
     73  C         -1.3560    0.6180   -6.3770 C.2   181  ASP181      0.2622
     74  O         -0.4060    0.1620   -5.7750 O.2   181  ASP181     -0.2715
     75  CB        -3.3510   -0.8270   -6.0720 C.3   181  ASP181      0.1450
     76  CG        -3.5480   -1.0770   -7.5750 C.2   181  ASP181      0.3671
     77  OD1       -4.2090   -0.2980   -8.2600 O.co2 181  ASP181     -0.2456
     78  OD2       -3.0580   -2.0890   -8.0540 O.co2 181  ASP181     -0.2456
     79  N         -1.2680    1.1530   -7.5940 N.am  182  SER182     -0.1950
     80  CA        -0.0680    1.1130   -8.4150 C.3   182  SER182      0.1924
     81  C          1.2330    1.5400   -7.7290 C.2   182  SER182      0.2314
     82  O          2.2710    0.9370   -7.9890 O.2   182  SER182     -0.2863
     83  CB        -0.2570    1.9050   -9.7130 C.3   182  SER182      0.2116
     84  OG        -1.4920    1.5850  -10.3570 O.3   182  SER182     -0.2180
     85  N         -0.3510   -6.3500  -10.3350 N.3   200  ALA200     -0.1231
     86  CA        -1.7840   -6.3650  -10.3910 C.3   200  ALA200      0.1694
     87  C         -2.2460   -5.2630  -11.2440 C.2   200  ALA200      0.2593
     88  O         -1.5150   -4.3240  -11.5030 O.2   200  ALA200     -0.2718
     89  CB        -2.4140   -6.1750   -8.9920 C.3   200  ALA200      0.0304
     90  N         -3.5180   -5.3700  -11.5990 N.am  201  THR201     -0.1939
     91  CA        -4.2350   -4.3640  -12.3770 C.3   201  THR201      0.2028
     92  C         -5.7180   -4.5810  -11.9920 C.2   201  THR201      0.2643
     93  O         -6.1110   -5.6500  -11.5360 O.2   201  THR201     -0.2714
     94  CB        -3.9790   -4.5060  -13.8870 C.3   201  THR201      0.1808
     95  OG1       -4.6560   -3.4520  -14.5950 O.3   201  THR201     -0.2208
     96  CG2       -4.4150   -5.8440  -14.4120 C.3   201  THR201      0.0379
     97  N         -6.5020   -3.5200  -12.1150 N.am  202  GLY202     -0.1939
     98  CA        -7.9050   -3.5550  -11.7850 C.3   202  GLY202      0.2014
     99  C         -8.2390   -2.3990  -10.9060 C.2   202  GLY202      0.2639
    100  O         -7.5290   -1.3830  -10.8540 O.2   202  GLY202     -0.2714
    101  N         -9.3410   -2.5310  -10.1880 N.am  203  HIS203     -0.1959
    102  CA        -9.7650   -1.4500   -9.3860 C.3   203  HIS203      0.1787
    103  C         -8.8970   -1.3770   -8.1610 C.2   203  HIS203      0.2620
    104  O         -8.9410   -2.2560   -7.3230 O.2   203  HIS203     -0.2715
    105  CB       -11.1990   -1.6500   -8.9850 C.3   203  HIS203      0.0785
    106  CG       -12.1300   -1.4270  -10.1090 C.ar  203  HIS203      0.0821
    107  ND1      -12.3920   -2.3950  -11.0480 N.ar  203  HIS203     -0.2267
    108  CD2      -12.8670   -0.3510  -10.4470 C.ar  203  HIS203      0.1154
    109  CE1      -13.2590   -1.9270  -11.9200 C.ar  203  HIS203      0.1986
    110  NE2      -13.5440   -0.6810  -11.5920 N.ar  203  HIS203     -0.2212
    111  N         -8.1280   -0.2990   -8.0880 N.am  204  GLY204     -0.1954
    112  CA        -7.0380   -0.1820   -7.1690 C.3   204  GLY204      0.1869
    113  C         -7.5000   -0.2540   -5.7110 C.2   204  GLY204      0.2309
    114  O         -6.8650   -0.9080   -4.9010 O.2   204  GLY204     -0.2863
@<TRIPOS>BOND
     1    16    17   ar
     2    16    14   ar
     3    17    15   ar
     4    14    13   ar
     5    15    13   ar
     6    11    10    2
     7    13    12    1
     8     8     9    1
     9    24    23   ar
    10    10     9    1
    11    10    18   am
    12     9    12    1
    13    23    22    1
    14    23    25   ar
    15    19    18    1
    16    19    22    1
    17    19    20    1
    18    29    28    2
    19    20    26   am
    20    20    21    2
    21    26    27    1
    22    28    27    1
    23     3     4    2
    24     3     2    1
    25    27    30    1
    26     2     1    1
    27     2     5    1
    28    46    45   ar
    29    47    45   ar
    30    45    44    1
    31     6     5    1
    32    30    31    1
    33    30    32    1
    34     5     7    1
    35    38    37    1
    36    95    94    1
    37    96    94    1
    38    34    35    1
    39    34    37    1
    40    34    33    1
    41    40    41    1
    42    35    36    2
    43    44    41    1
    44    41    42    1
    45    55    54    1
    46    94    91    1
    47    37    39    1
    48    50    49    1
    49    50    51    2
    50    49    52    1
    51    49    48    1
    52    54    53    1
    53    42    48   am
    54    42    43    2
    55    91    92    1
    56    91    90    1
    57    52    53    1
    58    97    92   am
    59    97    98    1
    60    92    93    2
    61   109   110   ar
    62   109   107   ar
    63    98    99    1
    64    90    87   am
    65   110   108   ar
    66    88    87    2
    67    87    86    1
    68   107   106   ar
    69    99   100    2
    70    99   101   am
    71   108   106   ar
    72    86    85    1
    73    86    89    1
    74    84    83    1
    75   101   102    1
    76   106   105    1
    77    83    80    1
    78   102   105    1
    79   102   103    1
    80    65    64    1
    81    80    81    1
    82    80    79    1
    83    77    76   ar
    84   103   111   am
    85   103   104    2
    86   111   112    1
    87    66    64    1
    88    78    76   ar
    89    82    81    2
    90    64    63    2
    91    79    73   am
    92    76    75    1
    93   112   113    1
    94    63    62    1
    95    62    61    1
    96    59    58    2
    97    68    67    1
    98    68    69    1
    99    73    74    2
   100    73    72    1
   101    60    61    1
   102    60    57    1
   103    71    69   am
   104    71    72    1
   105    75    72    1
   106    69    70    2
   107   113   114    2
   108    58    57    1
   109    56    57    1
