@<TRIPOS>MOLECULE
tmp/4r51A00.pdb
 102 93 0 0 0
SMALL
GASTEIGER

@<TRIPOS>ATOM
      1  N         -9.7240    1.7730    6.1390 N.3    72  GLY72      -0.1210
      2  CA        -9.5270    2.6540    4.9850 C.3    72  GLY72       0.1956
      3  C         -9.5220    4.1100    5.3940 C.2    72  GLY72       0.2612
      4  O        -10.1690    4.4920    6.3690 O.2    72  GLY72      -0.2717
      5  N         -8.7780    4.9260    4.6510 N.am   73  SER73      -0.1952
      6  CA        -8.5950    6.3240    5.0090 C.3    73  SER73       0.1924
      7  C         -9.9230    7.0730    5.0700 C.2    73  SER73       0.2314
      8  O        -10.1170    7.9140    5.9480 O.2    73  SER73      -0.2863
      9  CB        -7.6360    7.0170    4.0340 C.3    73  SER73       0.2116
     10  OG        -6.3300    6.4760    4.1600 O.3    73  SER73      -0.2180
     11  N         -4.5860    3.3160   11.7360 N.3    93  ASN93      -0.1225
     12  CA        -3.6180    2.6670   10.8240 C.3    93  ASN93       0.1785
     13  C         -3.5240    3.3030    9.4230 C.2    93  ASN93       0.2598
     14  O         -2.5990    3.0010    8.6620 O.2    93  ASN93      -0.2718
     15  CB        -3.9170    1.1640   10.6620 C.3    93  ASN93       0.1169
     16  CG        -3.1100    0.2930   11.6010 C.2    93  ASN93       0.2627
     17  OD1       -3.6750   -0.4510   12.4060 O.2    93  ASN93      -0.2716
     18  ND2       -1.7750    0.3710   11.5040 N.am   93  ASN93      -0.0877
     19  N         -4.4330    4.2160    9.0980 N.am   94  THR94      -0.1939
     20  CA        -4.5110    4.7610    7.7460 C.3    94  THR94       0.2028
     21  C         -3.6240    5.9950    7.5950 C.2    94  THR94       0.2642
     22  O         -3.0940    6.5200    8.5770 O.2    94  THR94      -0.2714
     23  CB        -5.9570    5.1490    7.3650 C.3    94  THR94       0.1808
     24  OG1       -6.2640    6.4520    7.8800 O.3    94  THR94      -0.2208
     25  CG2       -6.9650    4.1190    7.8910 C.3    94  THR94       0.0379
     26  N         -3.5040    6.4690    6.3560 N.am   95  SER95      -0.1949
     27  CA        -2.6990    7.6450    6.0450 C.3    95  SER95       0.1924
     28  C         -3.3780    8.9670    6.3820 C.2    95  SER95       0.2314
     29  O         -2.7190   10.0100    6.3770 O.2    95  SER95      -0.2863
     30  CB        -2.3300    7.6540    4.5550 C.3    95  SER95       0.2116
     31  OG        -3.4960    7.7500    3.7500 O.3    95  SER95      -0.2180
     32  N         -1.9370   11.2830    9.3330 N.3    98  ARG98      -0.1245
     33  CA        -0.5100   11.1330    9.6560 C.3    98  ARG98       0.1563
     34  C          0.2790   12.4440    9.6330 C.2    98  ARG98       0.2260
     35  O          1.1880   12.6200   10.4470 O.2    98  ARG98      -0.2867
     36  CB         0.1570   10.1540    8.7080 C.3    98  ARG98       0.0307
     37  CG        -0.2780    8.7230    8.8950 C.3    98  ARG98       0.0489
     38  CD         0.5810    7.8050    8.0570 C.3    98  ARG98       0.2205
     39  NE         0.1320    6.4250    8.1910 N.pl3  98  ARG98      -0.0865
     40  CZ         0.0300    5.5530    7.1910 C.cat  98  ARG98       0.5346
     41  NH1        0.3860    5.8770    5.9510 N.pl3  98  ARG98       0.1354
     42  NH2       -0.4360    4.3360    7.4440 N.pl3  98  ARG98       0.1354
     43  N          2.9330    4.2020    7.7920 N.3   126  ASN126     -0.1225
     44  CA         2.8700    3.1880    6.7430 C.3   126  ASN126      0.1785
     45  C          3.8460    2.0500    7.0550 C.2   126  ASN126      0.2597
     46  O          4.9330    2.2920    7.5780 O.2   126  ASN126     -0.2718
     47  CB         3.1980    3.8200    5.3990 C.3   126  ASN126      0.1169
     48  CG         3.1820    2.8130    4.2670 C.2   126  ASN126      0.2627
     49  OD1        2.1220    2.3870    3.7980 O.2   126  ASN126     -0.2716
     50  ND2        4.3520    2.4100    3.8400 N.am  126  ASN126     -0.0877
     51  N          3.4630    0.8170    6.7130 N.am  127  CYS127     -0.1970
     52  CA         4.2630   -0.3750    7.0340 C.3   127  CYS127      0.1712
     53  C          5.7080   -0.2700    6.5700 C.2   127  CYS127      0.2296
     54  O          6.6440   -0.5750    7.3270 O.2   127  CYS127     -0.2864
     55  CB         3.6220   -1.6190    6.4200 C.3   127  CYS127      0.0983
     56  SG         3.1780   -1.4050    4.6980 S.3   127  CYS127     -0.0798
     57  N         -0.2530   -6.3020    1.9970 N.3   158  GLY158     -0.1210
     58  CA        -0.3940   -4.8830    2.2580 C.3   158  GLY158      0.1956
     59  C         -1.5150   -4.2110    1.4880 C.2   158  GLY158      0.2611
     60  O         -1.9670   -3.1410    1.8820 O.2   158  GLY158     -0.2717
     61  N         -1.9700   -4.8410    0.4040 N.am  159  ALA159     -0.1979
     62  CA        -3.0530   -4.3170   -0.4190 C.3   159  ALA159      0.1597
     63  C         -4.4250   -4.9380   -0.1040 C.2   159  ALA159      0.2287
     64  O         -5.4040   -4.6400   -0.7930 O.2   159  ALA159     -0.2864
     65  CB        -2.7200   -4.5040   -1.8940 C.3   159  ALA159      0.0319
     66  N          0.0970    2.3900   -4.5230 N.3   209  ASP209     -0.1239
     67  CA        -0.8090    3.5550   -4.4540 C.3   209  ASP209      0.1674
     68  C         -0.8130    4.2920   -5.8030 C.2   209  ASP209      0.2266
     69  O         -0.2020    3.8400   -6.7650 O.2   209  ASP209     -0.2867
     70  CB        -0.4110    4.4910   -3.3060 C.3   209  ASP209      0.1410
     71  CG        -1.6110    5.1750   -2.6500 C.2   209  ASP209      0.3668
     72  OD1       -2.5250    5.6410   -3.3740 O.co2 209  ASP209     -0.2456
     73  OD2       -1.6260    5.2610   -1.4040 O.co2 209  ASP209     -0.2456
     74  N          2.8040    6.1560   -2.0800 N.3   219  GLU219     -0.1245
     75  CA         3.5440    5.2870   -1.1690 C.3   219  GLU219      0.1567
     76  C          4.9620    5.8310   -0.9670 C.2   219  GLU219      0.2260
     77  O          5.4520    5.9020    0.1610 O.2   219  GLU219     -0.2867
     78  CB         3.5990    3.8620   -1.6990 C.3   219  GLU219      0.0388
     79  CG         4.3300    2.8860   -0.7880 C.3   219  GLU219      0.1160
     80  CD         3.5050    2.4310    0.4000 C.2   219  GLU219      0.3649
     81  OE1        2.3330    2.8670    0.5460 O.co2 219  GLU219     -0.2457
     82  OE2        4.0360    1.6140    1.1880 O.co2 219  GLU219     -0.2457
     83  N          4.8350    9.0210    1.0720 N.3   222  LYS222     -0.1245
     84  CA         4.5880    8.6860    2.4710 C.3   222  LYS222      0.1561
     85  C          5.8900    8.3360    3.1970 C.2   222  LYS222      0.2260
     86  O          6.1170    8.8140    4.3010 O.2   222  LYS222     -0.2867
     87  CB         3.5850    7.5360    2.6060 C.3   222  LYS222      0.0271
     88  CG         2.1370    7.9200    2.3490 C.3   222  LYS222      0.0035
     89  CD         1.2340    6.6980    2.4720 C.3   222  LYS222      0.0206
     90  CE         0.0600    6.7420    1.5140 C.3   222  LYS222      0.1093
     91  NZ        -0.6880    5.4600    1.5620 N.3   222  LYS222     -0.1314
     92  N          5.8970   -3.6130   -5.7810 N.3   244  ARG244     -0.1245
     93  CA         5.1880   -4.8190   -5.3690 C.3   244  ARG244      0.1563
     94  C          5.8050   -6.0380   -6.0440 C.2   244  ARG244      0.2260
     95  O          6.0460   -6.0170   -7.2620 O.2   244  ARG244     -0.2867
     96  CB         3.7230   -4.7320   -5.7670 C.3   244  ARG244      0.0307
     97  CG         2.8200   -5.7450   -5.0620 C.3   244  ARG244      0.0489
     98  CD         2.4920   -5.3190   -3.6410 C.3   244  ARG244      0.2205
     99  NE         1.6320   -4.1340   -3.6000 N.pl3 244  ARG244     -0.0865
    100  CZ         1.2530   -3.5280   -2.4770 C.cat 244  ARG244      0.5346
    101  NH1        1.6340   -4.0030   -1.2890 N.pl3 244  ARG244      0.1354
    102  NH2        0.4820   -2.4480   -2.5370 N.pl3 244  ARG244      0.1354
@<TRIPOS>BOND
     1    95    94    2
     2    69    68    2
     3    94    93    1
     4    68    67    1
     5    92    93    1
     6    96    93    1
     7    96    97    1
     8    97    98    1
     9    66    67    1
    10    67    70    1
    11    98    99    1
    12    99   100    2
    13    72    71   ar
    14    70    71    1
    15    71    73   ar
    16   102   100    1
    17   100   101    1
    18    74    75    1
    19    65    62    1
    20    78    75    1
    21    78    79    1
    22    75    76    1
    23    76    77    2
    24    64    63    2
    25    79    80    1
    26    62    63    1
    27    62    61    1
    28    80    81   ar
    29    80    82   ar
    30    61    59   am
    31    83    84    1
    32    59    60    2
    33    59    58    1
    34    90    91    1
    35    90    89    1
    36    57    58    1
    37    88    89    1
    38    88    87    1
    39    84    87    1
    40    84    85    1
    41    85    86    2
    42    31    30    1
    43    49    48    2
    44    50    48   am
    45     9    10    1
    46     9     6    1
    47    48    47    1
    48    30    27    1
    49     5     6    1
    50     5     3   am
    51    56    55    1
    52     2     3    1
    53     2     1    1
    54     6     7    1
    55     7     8    2
    56     3     4    2
    57    47    44    1
    58    41    40    1
    59    27    26    1
    60    27    28    1
    61    26    21   am
    62    29    28    2
    63    55    52    1
    64    53    52    1
    65    53    54    2
    66    51    52    1
    67    51    45   am
    68    44    45    1
    69    44    43    1
    70    45    46    2
    71    40    42    1
    72    40    39    2
    73    23    20    1
    74    23    24    1
    75    23    25    1
    76    21    20    1
    77    21    22    2
    78    20    19    1
    79    38    39    1
    80    38    37    1
    81    14    13    2
    82    36    37    1
    83    36    33    1
    84    19    13   am
    85    32    33    1
    86    13    12    1
    87    34    33    1
    88    34    35    2
    89    15    12    1
    90    15    16    1
    91    12    11    1
    92    18    16   am
    93    16    17    2
