@<TRIPOS>MOLECULE
tmp/4r54A01.pdb
 116 107 0 0 0
SMALL
GASTEIGER

@<TRIPOS>ATOM
      1  N         -9.4620    1.9820    6.1850 N.3    72  GLY72      -0.1210
      2  CA        -9.2670    2.8780    5.0530 C.3    72  GLY72       0.1956
      3  C         -9.3440    4.3280    5.4810 C.2    72  GLY72       0.2613
      4  O         -9.9980    4.6470    6.4730 O.2    72  GLY72      -0.2717
      5  N         -8.6580    5.1930    4.7310 N.am   73  SER73      -0.1938
      6  CA        -8.5380    6.6170    5.0350 C.3    73  SER73       0.2055
      7  C         -9.8700    7.3170    5.1750 C.2    73  SER73       0.2643
      8  O        -10.0600    8.1090    6.0990 O.2    73  SER73      -0.2714
      9  CB        -7.7290    7.3290    3.9520 C.3    73  SER73       0.2130
     10  OG        -6.3540    7.1060    4.1840 O.3    73  SER73      -0.2179
     11  N        -10.7750    7.0310    4.2450 N.am   74  SER74      -0.1949
     12  CA       -12.1200    7.5940    4.2630 C.3    74  SER74       0.1924
     13  C        -12.8440    7.3070    5.5800 C.2    74  SER74       0.2314
     14  O        -13.3790    8.2170    6.2050 O.2    74  SER74      -0.2863
     15  CB       -12.9240    7.0410    3.0870 C.3    74  SER74       0.2116
     16  OG       -14.2760    7.4250    3.1740 O.3    74  SER74      -0.2180
     17  N         -4.4170    3.5060   11.7700 N.3    93  ASN93      -0.1225
     18  CA        -3.4910    2.8300   10.9120 C.3    93  ASN93       0.1785
     19  C         -3.4640    3.3460    9.4690 C.2    93  ASN93       0.2598
     20  O         -2.6790    2.8490    8.6640 O.2    93  ASN93      -0.2718
     21  CB        -3.7990    1.3370   10.9410 C.3    93  ASN93       0.1169
     22  CG        -2.6470    0.5060   10.4580 C.2    93  ASN93       0.2627
     23  OD1       -1.5020    0.7460   10.8430 O.2    93  ASN93      -0.2716
     24  ND2       -2.9330   -0.4730    9.5990 N.am   93  ASN93      -0.0877
     25  N         -4.2530    4.3590    9.1410 N.am   94  THR94      -0.1939
     26  CA        -4.3060    4.8830    7.7790 C.3    94  THR94       0.2028
     27  C         -3.3960    6.0740    7.5930 C.2    94  THR94       0.2642
     28  O         -2.8640    6.6130    8.5590 O.2    94  THR94      -0.2714
     29  CB        -5.7220    5.3390    7.3910 C.3    94  THR94       0.1808
     30  OG1       -6.0010    6.6260    7.9850 O.3    94  THR94      -0.2208
     31  CG2       -6.7250    4.3180    7.8280 C.3    94  THR94       0.0379
     32  N         -3.2950    6.5400    6.3490 N.am   95  SER95      -0.1949
     33  CA        -2.4830    7.7010    6.0300 C.3    95  SER95       0.1924
     34  C         -3.1200    9.0410    6.4000 C.2    95  SER95       0.2314
     35  O         -2.4320   10.0570    6.4000 O.2    95  SER95      -0.2863
     36  CB        -2.1550    7.7230    4.5280 C.3    95  SER95       0.2116
     37  OG        -3.3500    7.7950    3.7510 O.3    95  SER95      -0.2180
     38  N         -1.6860   11.4340    9.2620 N.3    98  ARG98      -0.1245
     39  CA        -0.2410   11.2910    9.5440 C.3    98  ARG98       0.1563
     40  C          0.5510   12.5890    9.4960 C.2    98  ARG98       0.2260
     41  O          1.5400   12.7210   10.2170 O.2    98  ARG98      -0.2867
     42  CB         0.3920   10.2880    8.5930 C.3    98  ARG98       0.0307
     43  CG        -0.0690    8.8570    8.8140 C.3    98  ARG98       0.0489
     44  CD         0.6900    7.9260    7.9160 C.3    98  ARG98       0.2205
     45  NE         0.3180    6.5350    8.1320 N.pl3  98  ARG98      -0.0865
     46  CZ         0.2300    5.6330    7.1620 C.cat  98  ARG98       0.5346
     47  NH1        0.5100    5.9690    5.9070 N.pl3  98  ARG98       0.1354
     48  NH2       -0.1370    4.3950    7.4530 N.pl3  98  ARG98       0.1354
     49  N          3.0480    4.2520    7.6070 N.3   126  ASN126     -0.1225
     50  CA         3.0700    3.2220    6.5690 C.3   126  ASN126      0.1785
     51  C          4.0660    2.1040    6.8800 C.2   126  ASN126      0.2597
     52  O          5.1620    2.3650    7.3970 O.2   126  ASN126     -0.2718
     53  CB         3.4200    3.8960    5.2440 C.3   126  ASN126      0.1169
     54  CG         3.6350    2.9060    4.1360 C.2   126  ASN126      0.2627
     55  OD1        4.7660    2.5900    3.8040 O.2   126  ASN126     -0.2716
     56  ND2        2.5470    2.3720    3.5920 N.am  126  ASN126     -0.0877
     57  N          3.6960    0.8620    6.5350 N.am  127  CYS127     -0.1970
     58  CA         4.5070   -0.3260    6.8240 C.3   127  CYS127      0.1712
     59  C          5.9540   -0.2030    6.3780 C.2   127  CYS127      0.2296
     60  O          6.9000   -0.4810    7.1520 O.2   127  CYS127     -0.2864
     61  CB         3.8640   -1.5750    6.1880 C.3   127  CYS127      0.0983
     62  SG         3.1550   -1.3210    4.5410 S.3   127  CYS127     -0.0798
     63  N         -0.3330   -6.1230    1.7850 N.3   158  GLY158     -0.1210
     64  CA        -0.3660   -4.6950    2.0250 C.3   158  GLY158      0.1956
     65  C         -1.5010   -3.9920    1.3090 C.2   158  GLY158      0.2611
     66  O         -1.9170   -2.9310    1.7380 O.2   158  GLY158     -0.2717
     67  N         -2.0200   -4.5910    0.2370 N.am  159  ALA159     -0.1979
     68  CA        -3.1510   -4.0270   -0.4840 C.3   159  ALA159      0.1597
     69  C         -4.4790   -4.7200   -0.1640 C.2   159  ALA159      0.2287
     70  O         -5.4650   -4.4680   -0.8460 O.2   159  ALA159     -0.2864
     71  CB        -2.8830   -4.0240   -1.9990 C.3   159  ALA159      0.0319
     72  N          2.7500    1.6540   -6.3200 N.3   208  ILE208     -0.1231
     73  CA         2.0090    1.3730   -5.1050 C.3   208  ILE208      0.1692
     74  C          1.2980    2.6790   -4.7520 C.2   208  ILE208      0.2592
     75  O          1.9190    3.7350   -4.6970 O.2   208  ILE208     -0.2718
     76  CB         2.9170    0.8440   -3.9860 C.3   208  ILE208      0.0266
     77  CG1        3.5200   -0.5070   -4.4320 C.3   208  ILE208      0.0019
     78  CG2        2.1660    0.7550   -2.6590 C.3   208  ILE208      0.0020
     79  CD1        4.2750   -1.2710   -3.3810 C.3   208  ILE208      0.0001
     80  N         -0.0210    2.5900   -4.5760 N.am  209  ASP209     -0.1974
     81  CA        -0.9070    3.7520   -4.4500 C.3   209  ASP209      0.1709
     82  C         -0.9640    4.5180   -5.7680 C.2   209  ASP209      0.2293
     83  O         -0.4300    4.0780   -6.7790 O.2   209  ASP209     -0.2864
     84  CB        -0.4780    4.6590   -3.2940 C.3   209  ASP209      0.1436
     85  CG        -1.6620    5.2320   -2.5060 C.2   209  ASP209      0.3671
     86  OD1       -2.5620    5.8880   -3.0900 O.co2 209  ASP209     -0.2456
     87  OD2       -1.6900    5.0370   -1.2780 O.co2 209  ASP209     -0.2456
     88  N          2.8020    6.3020   -2.2560 N.3   219  GLU219     -0.1245
     89  CA         3.5300    5.3990   -1.3630 C.3   219  GLU219      0.1567
     90  C          4.9830    5.8920   -1.1950 C.2   219  GLU219      0.2260
     91  O          5.5140    5.9220   -0.0930 O.2   219  GLU219     -0.2867
     92  CB         3.5190    3.9640   -1.9070 C.3   219  GLU219      0.0388
     93  CG         4.2850    2.9220   -1.0760 C.3   219  GLU219      0.1160
     94  CD         3.6990    2.6600    0.3070 C.2   219  GLU219      0.3649
     95  OE1        2.6170    3.1990    0.6070 O.co2 219  GLU219     -0.2457
     96  OE2        4.3120    1.8980    1.0960 O.co2 219  GLU219     -0.2457
     97  N          4.8620    9.1420    0.8950 N.3   222  LYS222     -0.1245
     98  CA         4.6540    8.8030    2.2990 C.3   222  LYS222      0.1561
     99  C          5.9770    8.4200    2.9470 C.2   222  LYS222      0.2260
    100  O          6.2730    8.8900    4.0300 O.2   222  LYS222     -0.2867
    101  CB         3.6450    7.6770    2.4810 C.3   222  LYS222      0.0271
    102  CG         2.2060    8.0660    2.1690 C.3   222  LYS222      0.0035
    103  CD         1.2750    6.9150    2.5540 C.3   222  LYS222      0.0206
    104  CE         0.2430    6.5770    1.4980 C.3   222  LYS222      0.1093
    105  NZ         0.0880    5.0980    1.4360 N.3   222  LYS222     -0.1314
    106  N          5.5490   -3.5030   -6.0630 N.3   244  ARG244     -0.1245
    107  CA         4.8670   -4.7240   -5.6750 C.3   244  ARG244      0.1563
    108  C          5.4460   -5.9510   -6.3690 C.2   244  ARG244      0.2260
    109  O          5.6560   -5.9270   -7.5760 O.2   244  ARG244     -0.2867
    110  CB         3.3750   -4.6270   -6.0580 C.3   244  ARG244      0.0307
    111  CG         2.5200   -5.6470   -5.3230 C.3   244  ARG244      0.0489
    112  CD         2.2870   -5.2560   -3.8660 C.3   244  ARG244      0.2205
    113  NE         1.4640   -4.0660   -3.7470 N.pl3 244  ARG244     -0.0865
    114  CZ         1.1750   -3.4430   -2.6060 C.cat 244  ARG244      0.5346
    115  NH1        1.6240   -3.8970   -1.4390 N.pl3 244  ARG244      0.1354
    116  NH2        0.4320   -2.3490   -2.6380 N.pl3 244  ARG244      0.1354
@<TRIPOS>BOND
     1   109   108    2
     2    83    82    2
     3   108   107    1
     4    72    73    1
     5   106   107    1
     6   110   107    1
     7   110   111    1
     8    82    81    1
     9   111   112    1
    10    73    74    1
    11    73    76    1
    12    74    75    2
    13    74    80   am
    14    80    81    1
    15    81    84    1
    16    77    76    1
    17    77    79    1
    18    76    78    1
    19   112   113    1
    20   113   114    2
    21    84    85    1
    22    86    85   ar
    23   116   114    1
    24   114   115    1
    25    85    87   ar
    26    88    89    1
    27    71    68    1
    28    92    89    1
    29    92    93    1
    30    89    90    1
    31    90    91    2
    32    93    94    1
    33    70    69    2
    34    68    69    1
    35    68    67    1
    36    67    65   am
    37    94    95   ar
    38    94    96   ar
    39    97    98    1
    40    65    66    2
    41    65    64    1
    42   105   104    1
    43   104   103    1
    44    63    64    1
    45   102   101    1
    46   102   103    1
    47    98   101    1
    48    98    99    1
    49    99   100    2
    50    15    16    1
    51    15    12    1
    52    56    54   am
    53    37    36    1
    54    55    54    2
    55     9    10    1
    56     9     6    1
    57    54    53    1
    58    11    12    1
    59    11     7   am
    60    12    13    1
    61    36    33    1
    62    62    61    1
    63     5     6    1
    64     5     3   am
    65     6     7    1
    66     2     3    1
    67     2     1    1
    68     7     8    2
    69    53    50    1
    70     3     4    2
    71    13    14    2
    72    47    46    1
    73    33    32    1
    74    33    34    1
    75    61    58    1
    76    32    27   am
    77    59    58    1
    78    59    60    2
    79    34    35    2
    80    57    58    1
    81    57    51   am
    82    50    51    1
    83    50    49    1
    84    51    52    2
    85    46    48    1
    86    46    45    2
    87    29    26    1
    88    29    31    1
    89    29    30    1
    90    27    26    1
    91    27    28    2
    92    26    25    1
    93    44    45    1
    94    44    43    1
    95    42    43    1
    96    42    39    1
    97    20    19    2
    98    25    19   am
    99    38    39    1
   100    19    18    1
   101    40    39    1
   102    40    41    2
   103    24    22   am
   104    22    23    2
   105    22    21    1
   106    18    21    1
   107    18    17    1
