@<TRIPOS>MOLECULE
tmp/4r59A00.pdb
 156 151 0 0 0
SMALL
GASTEIGER

@<TRIPOS>ATOM
      1  N          3.4070   -1.5040   76.4370 N.3    62  HIS62      -0.1241
      2  CA         3.3520   -2.2630   77.6920 C.3    62  HIS62       0.1621
      3  C          1.9540   -2.8120   78.0070 C.2    62  HIS62       0.2264
      4  O          1.8010   -3.7050   78.8430 O.2    62  HIS62      -0.2867
      5  CB         3.8770   -1.4320   78.8800 C.3    62  HIS62       0.0745
      6  CG         3.2920   -0.0570   79.0000 C.ar   62  HIS62       0.0817
      7  ND1        2.1760    0.2180   79.7610 N.ar   62  HIS62      -0.2268
      8  CD2        3.7020    1.1320   78.4960 C.ar   62  HIS62       0.1154
      9  CE1        1.9110    1.5110   79.7030 C.ar   62  HIS62       0.1986
     10  NE2        2.8210    2.0870   78.9400 N.ar   62  HIS62      -0.2212
     11  N         -4.5960    0.4640   75.5640 N.3    65  GLN65      -0.1245
     12  CA        -5.4740    1.3180   76.3390 C.3    65  GLN65       0.1566
     13  C         -6.5300    1.9670   75.4670 C.2    65  GLN65       0.2260
     14  O         -6.3030    2.2520   74.2860 O.2    65  GLN65      -0.2867
     15  CB        -4.6690    2.3870   77.0990 C.3    65  GLN65       0.0367
     16  CG        -3.9510    3.4280   76.2480 C.3    65  GLN65       0.0905
     17  CD        -3.2130    4.4630   77.1010 C.2    65  GLN65       0.2608
     18  OE1       -2.0620    4.2580   77.5040 O.2    65  GLN65      -0.2717
     19  NE2       -3.8820    5.5780   77.3840 N.am   65  GLN65      -0.0878
     20  N         -9.8150    8.8160   82.5480 N.3    89  LEU89      -0.1231
     21  CA        -8.8550    9.1500   81.4880 C.3    89  LEU89       0.1693
     22  C         -8.7070    8.0120   80.4750 C.2    89  LEU89       0.2591
     23  O         -8.7670    8.2250   79.2680 O.2    89  LEU89      -0.2718
     24  CB        -7.4870    9.4640   82.0990 C.3    89  LEU89       0.0284
     25  CG        -6.3420    9.6370   81.0940 C.3    89  LEU89       0.0019
     26  CD1       -6.6860   10.6740   80.0290 C.3    89  LEU89       0.0001
     27  CD2       -5.0550    9.9980   81.8170 C.3    89  LEU89       0.0001
     28  N         -8.4820    6.8030   80.9860 N.am   90  GLN90      -0.1979
     29  CA        -8.2330    5.6500   80.1240 C.3    90  GLN90       0.1601
     30  C         -8.5020    4.3620   80.9030 C.2    90  GLN90       0.2287
     31  O         -8.5420    4.3660   82.1410 O.2    90  GLN90      -0.2864
     32  CB        -6.7810    5.6110   79.6190 C.3    90  GLN90       0.0394
     33  CG        -5.8010    5.6410   80.7830 C.3    90  GLN90       0.0908
     34  CD        -4.9920    4.3450   80.8360 C.2    90  GLN90       0.2608
     35  OE1       -5.5830    3.2790   80.9770 O.2    90  GLN90      -0.2717
     36  NE2       -3.6700    4.4320   80.8370 N.am   90  GLN90      -0.0878
     37  N         -7.0250    0.1150   80.6790 N.3    92  HIS92      -0.1241
     38  CA        -6.0840   -0.8120   80.0680 C.3    92  HIS92       0.1621
     39  C         -6.1330   -2.1150   80.8360 C.2    92  HIS92       0.2264
     40  O         -6.8230   -2.2090   81.8620 O.2    92  HIS92      -0.2867
     41  CB        -4.6640   -0.2520   80.0940 C.3    92  HIS92       0.0745
     42  CG        -4.1700    0.0060   81.4790 C.ar   92  HIS92       0.0817
     43  ND1       -4.4090    1.1900   82.1410 N.ar   92  HIS92      -0.2268
     44  CD2       -3.5050   -0.7890   82.3500 C.ar   92  HIS92       0.1154
     45  CE1       -3.8880    1.1220   83.3540 C.ar   92  HIS92       0.1986
     46  NE2       -3.3240   -0.0630   83.5010 N.ar   92  HIS92      -0.2212
     47  N         -3.8370   -5.8100   82.2380 N.3    94  HIS94      -0.1241
     48  CA        -2.6540   -6.6190   82.4660 C.3    94  HIS94       0.1621
     49  C         -3.0830   -8.0720   82.3760 C.2    94  HIS94       0.2264
     50  O         -4.1330   -8.4170   82.9140 O.2    94  HIS94      -0.2867
     51  CB        -2.0520   -6.3310   83.8350 C.3    94  HIS94       0.0745
     52  CG        -1.7590   -4.8830   84.0680 C.ar   94  HIS94       0.0817
     53  ND1       -0.5080   -4.3420   83.8660 N.ar   94  HIS94      -0.2268
     54  CD2       -2.5530   -3.8620   84.4690 C.ar   94  HIS94       0.1154
     55  CE1       -0.5370   -3.0530   84.1590 C.ar   94  HIS94       0.1986
     56  NE2       -1.7680   -2.7340   84.5190 N.ar   94  HIS94      -0.2212
     57  N         -7.8230   -2.0580   84.6230 N.3   117  HIS117     -0.1241
     58  CA        -7.6260   -0.8290   85.3820 C.3   117  HIS117      0.1621
     59  C         -8.3340    0.3240   84.6980 C.2   117  HIS117      0.2264
     60  O         -8.0110    0.6540   83.5580 O.2   117  HIS117     -0.2867
     61  CB        -6.1330   -0.5130   85.5240 C.3   117  HIS117      0.0745
     62  CG        -5.4030   -1.4820   86.4030 C.ar  117  HIS117      0.0817
     63  ND1       -4.0370   -1.6680   86.3500 N.ar  117  HIS117     -0.2268
     64  CD2       -5.8620   -2.3120   87.3690 C.ar  117  HIS117      0.1154
     65  CE1       -3.6860   -2.5740   87.2460 C.ar  117  HIS117      0.1986
     66  NE2       -4.7730   -2.9830   87.8760 N.ar  117  HIS117     -0.2212
     67  N         -8.5640    4.1630   84.9360 N.3   119  VAL119     -0.1245
     68  CA        -7.7150    5.1890   85.5300 C.3   119  VAL119      0.1561
     69  C         -8.4280    6.5310   85.5690 C.2   119  VAL119      0.2260
     70  O         -8.8530    7.0360   84.5210 O.2   119  VAL119     -0.2867
     71  CB        -6.4020    5.3380   84.7380 C.3   119  VAL119      0.0252
     72  CG1       -5.4650    6.3200   85.4350 C.3   119  VAL119      0.0019
     73  CG2       -5.7320    3.9850   84.5550 C.3   119  VAL119      0.0019
     74  N         -3.7070   15.4900   84.5860 N.3   128  VAL128     -0.1231
     75  CA        -3.2460   14.2270   85.1400 C.3   128  VAL128      0.1692
     76  C         -1.7640   14.3080   85.4780 C.2   128  VAL128      0.2592
     77  O         -1.3020   13.6580   86.4120 O.2   128  VAL128     -0.2718
     78  CB        -3.5410   13.0380   84.1690 C.3   128  VAL128      0.0266
     79  CG1       -2.8600   13.2440   82.8320 C.3   128  VAL128      0.0020
     80  CG2       -3.1360   11.7210   84.7970 C.3   128  VAL128      0.0020
     81  N         -1.0280   15.1410   84.7430 N.am  129  GLY129     -0.1957
     82  CA         0.3900   15.3350   85.0090 C.3   129  GLY129      0.1869
     83  C          0.6350   15.9070   86.3990 C.2   129  GLY129      0.2309
     84  O          1.5940   15.5270   87.0830 O.2   129  GLY129     -0.2863
     85  N         -0.5030   13.1460   89.2430 N.3   132  VAL132     -0.1245
     86  CA         0.3700   12.0120   89.5700 C.3   132  VAL132      0.1561
     87  C          1.4720   12.4410   90.5390 C.2   132  VAL132      0.2260
     88  O          2.2090   11.6060   91.0610 O.2   132  VAL132     -0.2867
     89  CB         0.9990   11.3570   88.3050 C.3   132  VAL132      0.0252
     90  CG1       -0.0910   10.7050   87.4490 C.3   132  VAL132      0.0019
     91  CG2        1.7770   12.3590   87.4980 C.3   132  VAL132      0.0019
     92  N         -4.7500   10.2150   91.9200 N.3   138  LEU138     -0.1245
     93  CA        -5.3570    9.2290   91.0400 C.3   138  LEU138      0.1561
     94  C         -6.2360    8.2610   91.8170 C.2   138  LEU138      0.2260
     95  O         -5.9820    7.9600   92.9860 O.2   138  LEU138     -0.2867
     96  CB        -4.2790    8.4500   90.2810 C.3   138  LEU138      0.0270
     97  CG        -3.8880    8.9740   88.8940 C.3   138  LEU138      0.0019
     98  CD1       -3.3420   10.3860   88.9700 C.3   138  LEU138      0.0001
     99  CD2       -2.8950    8.0440   88.1880 C.3   138  LEU138      0.0001
    100  N         -7.6550    4.4300   90.8550 N.3   140  VAL140     -0.1245
    101  CA        -7.7400    3.3800   89.8500 C.3   140  VAL140      0.1561
    102  C         -8.6950    2.2990   90.3210 C.2   140  VAL140      0.2260
    103  O         -8.5650    1.7670   91.4270 O.2   140  VAL140     -0.2867
    104  CB        -6.3620    2.7600   89.5160 C.3   140  VAL140      0.0252
    105  CG1       -6.5130    1.7490   88.3750 C.3   140  VAL140      0.0019
    106  CG2       -5.3820    3.8480   89.1010 C.3   140  VAL140      0.0019
    107  N          1.1930    3.8260   91.0830 N.3   195  LEU195     -0.1231
    108  CA         1.1710    3.2780   89.7250 C.3   195  LEU195      0.1693
    109  C          1.8850    1.9150   89.7370 C.2   195  LEU195      0.2593
    110  O          2.8830    1.7380   90.4510 O.2   195  LEU195     -0.2718
    111  CB         1.8700    4.2200   88.7350 C.3   195  LEU195      0.0284
    112  CG         1.5600    5.7190   88.7530 C.3   195  LEU195      0.0019
    113  CD1        2.3720    6.4160   87.6700 C.3   195  LEU195      0.0001
    114  CD2        0.0910    5.9710   88.5430 C.3   195  LEU195      0.0001
    115  N          1.4170    0.9540   88.9390 N.am  196  THR196     -0.1939
    116  CA         2.1180   -0.3310   88.8740 C.3   196  THR196      0.2028
    117  C          3.0940   -0.4190   87.7010 C.2   196  THR196      0.2643
    118  O          3.7160   -1.4600   87.4900 O.2   196  THR196     -0.2714
    119  CB         1.1490   -1.5120   88.7570 C.3   196  THR196      0.1808
    120  OG1        0.4900   -1.4480   87.4890 O.3   196  THR196     -0.2208
    121  CG2        0.1200   -1.4920   89.8890 C.3   196  THR196      0.0379
    122  N          3.2140    0.6560   86.9310 N.am  197  THR197     -0.1937
    123  CA         4.2760    0.7540   85.9290 C.3   197  THR197      0.2013
    124  C          5.1060    1.9890   86.2280 C.2   197  THR197      0.2484
    125  O          4.6180    2.9130   86.8780 O.2   197  THR197     -0.2729
    126  CB         3.7160    0.8370   84.4790 C.3   197  THR197      0.1807
    127  OG1        2.7780    1.9130   84.3830 O.3   197  THR197     -0.2208
    128  CG2        3.0240   -0.4470   84.1010 C.3   197  THR197      0.0379
    129  N          6.3720    2.0060   85.7710 N.am  198  PRO198     -0.2715
    130  CA         7.1570    3.2430   85.8710 C.3   198  PRO198      0.1521
    131  C          6.3370    4.4480   85.4020 C.2   198  PRO198      0.2440
    132  O          5.6570    4.3740   84.3730 O.2   198  PRO198     -0.2731
    133  CB         8.3460    2.9660   84.9490 C.3   198  PRO198      0.0310
    134  CG         8.5590    1.4620   85.1120 C.3   198  PRO198      0.0237
    135  CD         7.1480    0.8980   85.1850 C.3   198  PRO198      0.0939
    136  N          6.4080    5.5650   86.1320 N.am  199  PRO199     -0.2727
    137  CA         7.3640    5.9000   87.1930 C.3   199  PRO199      0.1402
    138  C          7.0000    5.4170   88.6100 C.2   199  PRO199      0.2269
    139  O          7.6630    5.8410   89.5670 O.2   199  PRO199     -0.2865
    140  CB         7.3810    7.4270   87.1500 C.3   199  PRO199      0.0296
    141  CG         5.9750    7.7840   86.7450 C.3   199  PRO199      0.0237
    142  CD         5.5430    6.7040   85.7780 C.3   199  PRO199      0.0939
    143  N         -6.3340    2.9860   95.4790 N.3   206  TRP206     -0.1241
    144  CA        -6.7830    1.8010   94.7660 C.3   206  TRP206      0.1605
    145  C         -8.1590    1.3870   95.2250 C.2   206  TRP206      0.2264
    146  O         -8.4490    1.3590   96.4200 O.2   206  TRP206     -0.2867
    147  CB        -5.7750    0.6460   94.9430 C.3   206  TRP206      0.0550
    148  CG        -4.6480    0.7630   93.9540 C.ar  206  TRP206      0.0003
    149  CD1       -3.4150    1.3200   94.1600 C.ar  206  TRP206      0.0946
    150  CD2       -4.6800    0.3430   92.5910 C.ar  206  TRP206      0.0152
    151  NE1       -2.6750    1.2620   92.9990 N.ar  206  TRP206     -0.2442
    152  CE2       -3.4280    0.6620   92.0240 C.ar  206  TRP206      0.0810
    153  CE3       -5.6450   -0.2920   91.7990 C.ar  206  TRP206      0.0012
    154  CZ2       -3.1160    0.3760   90.6920 C.ar  206  TRP206      0.0191
    155  CZ3       -5.3340   -0.5870   90.4840 C.ar  206  TRP206      0.0001
    156  CH2       -4.0810   -0.2420   89.9370 C.ar  206  TRP206      0.0015
@<TRIPOS>BOND
     1    14    13    2
     2    13    12    1
     3    11    12    1
     4    16    15    1
     5    16    17    1
     6    12    15    1
     7     1     2    1
     8    17    19   am
     9    17    18    2
    10     2     3    1
    11     2     5    1
    12     3     4    2
    13     8    10   ar
    14     8     6   ar
    15     5     6    1
    16    10     9   ar
    17     6     7   ar
    18    23    22    2
    19    32    29    1
    20    32    33    1
    21     9     7   ar
    22    26    25    1
    23    38    41    1
    24    38    37    1
    25    38    39    1
    26    41    42    1
    27    29    30    1
    28    29    28    1
    29    22    28   am
    30    22    21    1
    31    33    34    1
    32    39    40    2
    33    34    36   am
    34    34    35    2
    35    30    31    2
    36    25    27    1
    37    25    24    1
    38    42    43   ar
    39    42    44   ar
    40    21    24    1
    41    21    20    1
    42    43    45   ar
    43    47    48    1
    44    44    46   ar
    45    49    48    1
    46    49    50    2
    47    48    51    1
    48    79    78    1
    49    45    46   ar
    50    60    59    2
    51    51    52    1
    52    53    52   ar
    53    53    55   ar
    54    52    54   ar
    55   128   126    1
    56    55    56   ar
    57    78    80    1
    58    78    75    1
    59   132   131    2
    60   127   126    1
    61    54    56   ar
    62   126   123    1
    63    70    69    2
    64    73    71    1
    65    74    75    1
    66    57    58    1
    67    59    58    1
    68    71    72    1
    69    71    68    1
    70    81    82    1
    71    81    76   am
    72    67    68    1
    73   133   134    1
    74   133   130    1
    75    82    83    1
    76   134   135    1
    77    75    76    1
    78   135   129    1
    79    58    61    1
    80   131   130    1
    81   131   136   am
    82    76    77    2
    83    61    62    1
    84    68    69    1
    85   129   130    1
    86   129   124   am
    87   142   136    1
    88   142   141    1
    89   123   124    1
    90   123   122    1
    91   136   137    1
    92   124   125    2
    93    63    62   ar
    94    63    65   ar
    95    83    84    2
    96    62    64   ar
    97   141   140    1
    98   122   117   am
    99   140   137    1
   100   137   138    1
   101    65    66   ar
   102    64    66   ar
   103    90    89    1
   104   120   119    1
   105   118   117    2
   106    91    89    1
   107   113   112    1
   108   117   116    1
   109    99    97    1
   110    89    86    1
   111   105   104    1
   112   114   112    1
   113   138   139    2
   114   111   112    1
   115   111   108    1
   116   119   116    1
   117   119   121    1
   118   116   115    1
   119    97    98    1
   120    97    96    1
   121   115   109   am
   122   106   104    1
   123    85    86    1
   124   104   101    1
   125    86    87    1
   126   108   109    1
   127   108   107    1
   128   109   110    2
   129   101   102    1
   130   101   100    1
   131   156   155   ar
   132   156   154   ar
   133    96    93    1
   134   102   103    2
   135   155   153   ar
   136    87    88    2
   137   154   152   ar
   138    93    94    1
   139    93    92    1
   140   153   150   ar
   141    94    95    2
   142   152   150   ar
   143   152   151   ar
   144   150   148   ar
   145   151   149   ar
   146   148   149   ar
   147   148   147    1
   148   144   147    1
   149   144   145    1
   150   144   143    1
   151   145   146    2
