@<TRIPOS>MOLECULE
tmp/4r5bA00.pdb
 177 173 0 0 0
SMALL
GASTEIGER

@<TRIPOS>ATOM
      1  N         11.4930   -0.3310   80.5020 N.3     5  TRP5       -0.1241
      2  CA        10.9010   -1.3760   81.3310 C.3     5  TRP5        0.1605
      3  C          9.8570   -2.1890   80.5820 C.2     5  TRP5        0.2264
      4  O          9.2790   -1.7260   79.5940 O.2     5  TRP5       -0.2867
      5  CB        10.2850   -0.7540   82.5830 C.3     5  TRP5        0.0550
      6  CG         9.1140    0.1360   82.2780 C.ar    5  TRP5        0.0003
      7  CD1        9.1370    1.4860   82.0430 C.ar    5  TRP5        0.0946
      8  CD2        7.7420   -0.2660   82.1760 C.ar    5  TRP5        0.0152
      9  NE1        7.8630    1.9440   81.7960 N.ar    5  TRP5       -0.2442
     10  CE2        6.9890    0.8890   81.8750 C.ar    5  TRP5        0.0810
     11  CE3        7.0770   -1.4920   82.3050 C.ar    5  TRP5        0.0012
     12  CZ2        5.6040    0.8550   81.7040 C.ar    5  TRP5        0.0191
     13  CZ3        5.7000   -1.5200   82.1360 C.ar    5  TRP5        0.0001
     14  CH2        4.9830   -0.3530   81.8410 C.ar    5  TRP5        0.0015
     15  N         -5.7350    1.9870   72.1270 N.3    60  LEU60      -0.1245
     16  CA        -4.3140    2.0980   71.8050 C.3    60  LEU60       0.1561
     17  C         -3.5380    0.9130   72.3380 C.2    60  LEU60       0.2260
     18  O         -3.6810    0.5660   73.5000 O.2    60  LEU60      -0.2867
     19  CB        -3.7270    3.3920   72.3990 C.3    60  LEU60       0.0270
     20  CG        -2.1980    3.5370   72.3690 C.3    60  LEU60       0.0019
     21  CD1       -1.7160    3.8170   70.9600 C.3    60  LEU60       0.0001
     22  CD2       -1.7090    4.6300   73.3330 C.3    60  LEU60       0.0001
     23  N         -0.1910    0.1950   73.6750 N.3    62  ASN62      -0.1240
     24  CA         0.9100    1.0370   74.1580 C.3    62  ASN62       0.1653
     25  C          2.1910    0.2500   74.3940 C.2    62  ASN62       0.2266
     26  O          3.1370    0.7600   75.0080 O.2    62  ASN62      -0.2867
     27  CB         0.5140    1.7840   75.4470 C.3    62  ASN62       0.1155
     28  CG         0.4140    0.8740   76.6590 C.2    62  ASN62       0.2627
     29  OD1        0.4970   -0.3440   76.5450 O.2    62  ASN62      -0.2716
     30  ND2        0.2430    1.4720   77.8380 N.am   62  ASN62      -0.0877
     31  N          2.4930   -2.3670   76.2330 N.3    64  HIS64      -0.1241
     32  CA         2.3930   -3.0650   77.5300 C.3    64  HIS64       0.1621
     33  C          1.0410   -3.7460   77.6720 C.2    64  HIS64       0.2264
     34  O          0.9460   -4.8940   78.1110 O.2    64  HIS64      -0.2867
     35  CB         2.5900   -2.0920   78.6970 C.3    64  HIS64       0.0745
     36  CG         3.8620   -1.3190   78.6190 C.ar   64  HIS64       0.0817
     37  ND1        5.0990   -1.9140   78.7620 N.ar   64  HIS64      -0.2268
     38  CD2        4.0970   -0.0020   78.4180 C.ar   64  HIS64       0.1154
     39  CE1        6.0410   -0.9960   78.6440 C.ar   64  HIS64       0.1986
     40  NE2        5.4600    0.1730   78.4340 N.ar   64  HIS64      -0.2212
     41  N         -5.1180    0.4040   75.9650 N.3    67  ASN67      -0.1240
     42  CA        -5.9450    1.3680   76.6890 C.3    67  ASN67       0.1653
     43  C         -7.1440    1.7870   75.8680 C.2    67  ASN67       0.2266
     44  O         -6.9900    2.1910   74.7160 O.2    67  ASN67      -0.2867
     45  CB        -5.1500    2.6260   77.0460 C.3    67  ASN67       0.1155
     46  CG        -3.9340    2.3270   77.8600 C.2    67  ASN67       0.2627
     47  OD1       -3.9050    1.3550   78.6170 O.2    67  ASN67      -0.2716
     48  ND2       -2.9050    3.1660   77.7130 N.am   67  ASN67      -0.0877
     49  N        -10.6420    8.1850   82.8760 N.3    91  ILE91      -0.1231
     50  CA        -9.7660    8.5770   81.7670 C.3    91  ILE91       0.1692
     51  C         -9.4780    7.4120   80.8100 C.2    91  ILE91       0.2591
     52  O         -9.4070    7.6050   79.5930 O.2    91  ILE91      -0.2718
     53  CB        -8.4340    9.2000   82.2890 C.3    91  ILE91       0.0266
     54  CG1       -7.4960    9.5140   81.1200 C.3    91  ILE91       0.0019
     55  CG2       -7.7680    8.3180   83.3410 C.3    91  ILE91       0.0020
     56  CD1       -6.3030   10.3750   81.4940 C.3    91  ILE91       0.0001
     57  N         -9.3620    6.1990   81.3400 N.am   92  GLN92      -0.1979
     58  CA        -9.1090    5.0500   80.4820 C.3    92  GLN92       0.1601
     59  C         -9.4000    3.7700   81.2290 C.2    92  GLN92       0.2287
     60  O         -9.4130    3.7720   82.4620 O.2    92  GLN92      -0.2864
     61  CB        -7.6470    4.9810   80.0140 C.3    92  GLN92       0.0394
     62  CG        -6.6830    4.9610   81.2050 C.3    92  GLN92       0.0908
     63  CD        -5.8700    3.6930   81.1900 C.2    92  GLN92       0.2608
     64  OE1       -6.4290    2.6090   81.3070 O.2    92  GLN92      -0.2717
     65  NE2       -4.5440    3.8220   81.1630 N.am   92  GLN92      -0.0878
     66  N         -7.9260   -0.5110   81.0260 N.3    94  HIS94      -0.1241
     67  CA        -7.0470   -1.4840   80.4210 C.3    94  HIS94       0.1621
     68  C         -7.1110   -2.7640   81.2340 C.2    94  HIS94       0.2264
     69  O         -7.7250   -2.8060   82.3050 O.2    94  HIS94      -0.2867
     70  CB        -5.6050   -0.9810   80.3900 C.3    94  HIS94       0.0745
     71  CG        -5.0710   -0.7400   81.7620 C.ar   94  HIS94       0.0817
     72  ND1       -5.2800    0.4400   82.4380 N.ar   94  HIS94      -0.2268
     73  CD2       -4.4150   -1.5600   82.6150 C.ar   94  HIS94       0.1154
     74  CE1       -4.7480    0.3490   83.6440 C.ar   94  HIS94       0.1986
     75  NE2       -4.2290   -0.8600   83.7780 N.ar   94  HIS94      -0.2212
     76  N         -4.8330   -6.4840   82.5770 N.3    96  HIS96      -0.1241
     77  CA        -3.6340   -7.3090   82.7330 C.3    96  HIS96       0.1621
     78  C         -4.0570   -8.7710   82.6050 C.2    96  HIS96       0.2264
     79  O         -5.0930   -9.1510   83.1600 O.2    96  HIS96      -0.2867
     80  CB        -2.9840   -7.0850   84.0990 C.3    96  HIS96       0.0745
     81  CG        -2.7020   -5.6470   84.4050 C.ar   96  HIS96       0.0817
     82  ND1       -1.4470   -5.0930   84.2580 N.ar   96  HIS96      -0.2268
     83  CD2       -3.5140   -4.6400   84.8070 C.ar   96  HIS96       0.1154
     84  CE1       -1.4910   -3.8120   84.5820 C.ar   96  HIS96       0.1986
     85  NE2       -2.7370   -3.5080   84.9090 N.ar   96  HIS96      -0.2212
     86  N         -8.7570   -2.7480   84.9210 N.3   119  HIS119     -0.1241
     87  CA        -8.5470   -1.5200   85.6790 C.3   119  HIS119      0.1621
     88  C         -9.2150   -0.3440   85.0100 C.2   119  HIS119      0.2264
     89  O         -8.8410    0.0140   83.8820 O.2   119  HIS119     -0.2867
     90  CB        -7.0520   -1.2480   85.8210 C.3   119  HIS119      0.0745
     91  CG        -6.3650   -2.2250   86.7140 C.ar  119  HIS119      0.0817
     92  ND1       -4.9970   -2.4160   86.6970 N.ar  119  HIS119     -0.2268
     93  CD2       -6.8470   -3.0450   87.6760 C.ar  119  HIS119      0.1154
     94  CE1       -4.6720   -3.3270   87.5880 C.ar  119  HIS119      0.1986
     95  NE2       -5.7770   -3.7300   88.2020 N.ar  119  HIS119     -0.2212
     96  N         -9.4500    3.4820   85.3290 N.3   121  VAL121     -0.1245
     97  CA        -8.6040    4.4900   85.9630 C.3   121  VAL121      0.1561
     98  C         -9.3090    5.8350   86.0000 C.2   121  VAL121      0.2260
     99  O         -9.7640    6.3150   84.9670 O.2   121  VAL121     -0.2867
    100  CB        -7.2650    4.6320   85.2070 C.3   121  VAL121      0.0252
    101  CG1       -6.3650    5.6770   85.8860 C.3   121  VAL121      0.0019
    102  CG2       -6.5690    3.2640   85.0720 C.3   121  VAL121      0.0019
    103  N         -4.8100   14.9230   84.8910 N.3   130  PHE130     -0.1241
    104  CA        -4.2630   13.6380   85.3030 C.3   130  PHE130      0.1605
    105  C         -2.8070   13.7480   85.7430 C.2   130  PHE130      0.2264
    106  O         -2.3950   13.1170   86.7260 O.2   130  PHE130     -0.2867
    107  CB        -4.4020   12.6320   84.1530 C.3   130  PHE130      0.0534
    108  CG        -3.8840   11.2620   84.4740 C.ar  130  PHE130     -0.0203
    109  CD1       -4.6860   10.3470   85.1270 C.ar  130  PHE130     -0.0042
    110  CD2       -2.5940   10.8900   84.1190 C.ar  130  PHE130     -0.0042
    111  CE1       -4.2230    9.0830   85.4190 C.ar  130  PHE130     -0.0003
    112  CE2       -2.1210    9.6270   84.4130 C.ar  130  PHE130     -0.0003
    113  CZ        -2.9340    8.7250   85.0700 C.ar  130  PHE130     -0.0000
    114  N         -1.5520   12.5260   89.5880 N.3   134  VAL134     -0.1245
    115  CA        -0.6720   11.4100   89.9580 C.3   134  VAL134      0.1561
    116  C          0.4290   11.8360   90.9300 C.2   134  VAL134      0.2260
    117  O          1.1300   10.9820   91.4860 O.2   134  VAL134     -0.2867
    118  CB        -0.0180   10.7290   88.7260 C.3   134  VAL134      0.0252
    119  CG1       -1.0810   10.1620   87.7970 C.3   134  VAL134      0.0019
    120  CG2        0.9050   11.6760   87.9790 C.3   134  VAL134      0.0019
    121  N         -8.6130    3.7010   91.2130 N.3   142  VAL142     -0.1245
    122  CA        -8.6880    2.6690   90.1980 C.3   142  VAL142      0.1561
    123  C         -9.6580    1.5980   90.6700 C.2   142  VAL142      0.2260
    124  O         -9.5520    1.0830   91.7880 O.2   142  VAL142     -0.2867
    125  CB        -7.3000    2.0580   89.8600 C.3   142  VAL142      0.0252
    126  CG1       -7.4420    1.0560   88.7140 C.3   142  VAL142      0.0019
    127  CG2       -6.3350    3.1530   89.4380 C.3   142  VAL142      0.0019
    128  N          0.2540    3.0700   91.3330 N.3   197  LEU197     -0.1231
    129  CA         0.2440    2.5570   89.9660 C.3   197  LEU197      0.1693
    130  C          1.0070    1.2410   89.9560 C.2   197  LEU197      0.2593
    131  O          2.0000    1.0840   90.6930 O.2   197  LEU197     -0.2718
    132  CB         0.8980    3.5560   89.0020 C.3   197  LEU197      0.0284
    133  CG         0.2510    4.9350   88.9310 C.3   197  LEU197      0.0019
    134  CD1        1.0630    5.8540   88.0320 C.3   197  LEU197      0.0001
    135  CD2       -1.1780    4.8170   88.4200 C.3   197  LEU197      0.0001
    136  N          0.5950    0.2960   89.1200 N.am  198  THR198     -0.1939
    137  CA         1.2800   -0.9960   89.1140 C.3   198  THR198      0.2028
    138  C          2.2780   -1.1440   87.9730 C.2   198  THR198      0.2643
    139  O          2.8600   -2.2050   87.8250 O.2   198  THR198     -0.2714
    140  CB         0.2970   -2.1790   89.0320 C.3   198  THR198      0.1808
    141  OG1       -0.3620   -2.1700   87.7550 O.3   198  THR198     -0.2208
    142  CG2       -0.7470   -2.1120   90.1700 C.3   198  THR198      0.0379
    143  N          2.4600   -0.0950   87.1700 N.am  199  THR199     -0.1937
    144  CA         3.5930   -0.0130   86.2430 C.3   199  THR199      0.2013
    145  C          4.3960    1.2260   86.5900 C.2   199  THR199      0.2484
    146  O          3.8790    2.1440   87.2290 O.2   199  THR199     -0.2729
    147  CB         3.1740    0.1030   84.7590 C.3   199  THR199      0.1807
    148  OG1        2.6910    1.4290   84.5090 O.3   199  THR199     -0.2208
    149  CG2        2.1110   -0.9230   84.4040 C.3   199  THR199      0.0379
    150  N          5.6670    1.2660   86.1690 N.am  200  PRO200     -0.2715
    151  CA         6.3670    2.5460   86.2610 C.3   200  PRO200      0.1521
    152  C          5.4900    3.6780   85.6930 C.2   200  PRO200      0.2440
    153  O          4.7820    3.4770   84.6950 O.2   200  PRO200     -0.2731
    154  CB         7.6220    2.3070   85.4170 C.3   200  PRO200      0.0310
    155  CG         7.8830    0.8210   85.5860 C.3   200  PRO200      0.0237
    156  CD         6.5040    0.2050   85.5780 C.3   200  PRO200      0.0939
    157  N          5.5040    4.8540   86.3320 N.am  201  PRO201     -0.2727
    158  CA         6.4040    5.2690   87.4190 C.3   201  PRO201      0.1402
    159  C          6.0450    4.8110   88.8490 C.2   201  PRO201      0.2269
    160  O          6.6960    5.2720   89.7910 O.2   201  PRO201     -0.2865
    161  CB         6.3440    6.7970   87.3320 C.3   201  PRO201      0.0296
    162  CG         4.9620    7.0770   86.8410 C.3   201  PRO201      0.0237
    163  CD         4.6420    5.9640   85.8750 C.3   201  PRO201      0.0939
    164  N         -7.2680    2.2200   95.8090 N.3   208  TRP208     -0.1241
    165  CA        -7.6950    1.0220   95.1050 C.3   208  TRP208      0.1605
    166  C         -9.0630    0.5920   95.5920 C.2   208  TRP208      0.2264
    167  O         -9.3190    0.5660   96.7940 O.2   208  TRP208     -0.2867
    168  CB        -6.6720   -0.1170   95.2840 C.3   208  TRP208      0.0550
    169  CG        -5.5780    0.0020   94.2910 C.ar  208  TRP208      0.0003
    170  CD1       -4.3600    0.5810   94.4820 C.ar  208  TRP208      0.0946
    171  CD2       -5.6130   -0.4280   92.9290 C.ar  208  TRP208      0.0152
    172  NE1       -3.6320    0.5450   93.3160 N.ar  208  TRP208     -0.2442
    173  CE2       -4.3740   -0.0880   92.3490 C.ar  208  TRP208      0.0810
    174  CE3       -6.5690   -1.0770   92.1410 C.ar  208  TRP208      0.0012
    175  CZ2       -4.0730   -0.3550   91.0080 C.ar  208  TRP208      0.0191
    176  CZ3       -6.2640   -1.3570   90.8210 C.ar  208  TRP208      0.0001
    177  CH2       -5.0240   -1.0020   90.2660 C.ar  208  TRP208      0.0015
@<TRIPOS>BOND
     1    21    20    1
     2    16    15    1
     3    16    17    1
     4    16    19    1
     5    17    18    2
     6    20    19    1
     7    20    22    1
     8    23    24    1
     9    24    25    1
    10    24    27    1
    11    25    26    2
    12    44    43    2
    13    27    28    1
    14    43    42    1
    15    41    42    1
    16    31    32    1
    17    29    28    2
    18    28    30   am
    19    42    45    1
    20    45    46    1
    21    32    33    1
    22    32    35    1
    23    33    34    2
    24    48    46   am
    25    46    47    2
    26    38    40   ar
    27    38    36   ar
    28    40    39   ar
    29    36    35    1
    30    36    37   ar
    31    39    37   ar
    32    52    51    2
    33     4     3    2
    34    61    58    1
    35    61    62    1
    36    70    67    1
    37    70    71    1
    38    67    66    1
    39    67    68    1
    40    58    59    1
    41    58    57    1
    42     1     2    1
    43     3     2    1
    44    51    57   am
    45    51    50    1
    46    54    56    1
    47    54    53    1
    48    65    63   am
    49    63    62    1
    50    63    64    2
    51    59    60    2
    52    68    69    2
    53     2     5    1
    54    12    14   ar
    55    12    10   ar
    56    71    72   ar
    57    71    73   ar
    58    50    53    1
    59    50    49    1
    60     9    10   ar
    61     9     7   ar
    62    14    13   ar
    63    10     8   ar
    64     7     6   ar
    65    13    11   ar
    66     8     6   ar
    67     8    11   ar
    68     6     5    1
    69    53    55    1
    70    72    74   ar
    71    76    77    1
    72    78    77    1
    73    78    79    2
    74    73    75   ar
    75    77    80    1
    76    74    75   ar
    77    89    88    2
    78    80    81    1
    79   110   112   ar
    80   110   108   ar
    81   107   108    1
    82   107   104    1
    83    82    81   ar
    84    82    84   ar
    85   149   147    1
    86    81    83   ar
    87   112   113   ar
    88   108   109   ar
    89   148   147    1
    90    84    85   ar
    91   153   152    2
    92   147   144    1
    93    83    85   ar
    94   103   104    1
    95    86    87    1
    96    99    98    2
    97    88    87    1
    98   113   111   ar
    99   102   100    1
   100   109   111   ar
   101   100   101    1
   102   100    97    1
   103   104   105    1
   104    96    97    1
   105   154   155    1
   106   154   151    1
   107   156   155    1
   108   156   150    1
   109    87    90    1
   110   152   151    1
   111   152   157   am
   112   105   106    2
   113    90    91    1
   114   163   157    1
   115   163   162    1
   116    97    98    1
   117   150   151    1
   118   150   145   am
   119   144   145    1
   120   144   143    1
   121   157   158    1
   122   145   146    2
   123    92    91   ar
   124    92    94   ar
   125    91    93   ar
   126   162   161    1
   127   143   138   am
   128   161   158    1
   129   158   159    1
   130    94    95   ar
   131    93    95   ar
   132   141   140    1
   133   119   118    1
   134   139   138    2
   135   138   137    1
   136   120   118    1
   137   134   133    1
   138   135   133    1
   139   126   125    1
   140   118   115    1
   141   159   160    2
   142   133   132    1
   143   132   129    1
   144   140   137    1
   145   140   142    1
   146   137   136    1
   147   136   130   am
   148   127   125    1
   149   114   115    1
   150   125   122    1
   151   130   129    1
   152   130   131    2
   153   115   116    1
   154   129   128    1
   155   122   123    1
   156   122   121    1
   157   177   176   ar
   158   177   175   ar
   159   123   124    2
   160   176   174   ar
   161   116   117    2
   162   175   173   ar
   163   174   171   ar
   164   173   171   ar
   165   173   172   ar
   166   171   169   ar
   167   172   170   ar
   168   169   170   ar
   169   169   168    1
   170   165   168    1
   171   165   166    1
   172   165   164    1
   173   166   167    2
