@<TRIPOS>MOLECULE
tmp/4r5eA00.pdb
 179 170 0 0 0
SMALL
GASTEIGER

@<TRIPOS>ATOM
      1  N        -14.6190    2.5950  -18.6380 N.3     6  PHE6       -0.1241
      2  CA       -14.2210    2.8400  -20.0270 C.3     6  PHE6        0.1605
      3  C        -13.3320    1.7150  -20.5330 C.2     6  PHE6        0.2264
      4  O        -12.3230    1.3840  -19.9020 O.2     6  PHE6       -0.2867
      5  CB       -13.4520    4.1610  -20.1450 C.3     6  PHE6        0.0534
      6  CG       -14.3200    5.3770  -20.0370 C.ar    6  PHE6       -0.0203
      7  CD1      -14.7080    5.8600  -18.7930 C.ar    6  PHE6       -0.0042
      8  CD2      -14.7540    6.0420  -21.1810 C.ar    6  PHE6       -0.0042
      9  CE1      -15.5170    6.9780  -18.6900 C.ar    6  PHE6       -0.0003
     10  CE2      -15.5600    7.1630  -21.0820 C.ar    6  PHE6       -0.0003
     11  CZ       -15.9330    7.6370  -19.8340 C.ar    6  PHE6       -0.0000
     12  N         -8.1010    0.1210  -28.4180 N.3    10  TYR10      -0.1241
     13  CA        -6.6850   -0.1900  -28.6710 C.3    10  TYR10       0.1605
     14  C         -6.2410   -1.4470  -27.9410 C.2    10  TYR10       0.2264
     15  O         -5.2720   -2.0780  -28.3560 O.2    10  TYR10      -0.2867
     16  CB        -5.7390    0.9690  -28.2820 C.3    10  TYR10       0.0534
     17  CG        -5.4470    1.0860  -26.7850 C.ar   10  TYR10      -0.0201
     18  CD1       -4.6470    0.1450  -26.1200 C.ar   10  TYR10      -0.0009
     19  CD2       -5.9550    2.1430  -26.0410 C.ar   10  TYR10      -0.0009
     20  CE1       -4.3880    0.2540  -24.7620 C.ar   10  TYR10       0.0417
     21  CE2       -5.7070    2.2550  -24.6860 C.ar   10  TYR10       0.0417
     22  CZ        -4.9230    1.3130  -24.0480 C.ar   10  TYR10       0.1957
     23  OH        -4.6790    1.4150  -22.6960 O.3    10  TYR10      -0.2866
     24  N        -12.6440    4.6130  -28.7590 N.3    32  PHE32      -0.1241
     25  CA       -13.4590    5.7790  -29.1290 C.3    32  PHE32       0.1605
     26  C        -13.9270    5.6670  -30.5700 C.2    32  PHE32       0.2264
     27  O        -13.2230    5.1170  -31.4200 O.2    32  PHE32      -0.2867
     28  CB       -12.6240    7.0580  -29.0690 C.3    32  PHE32       0.0534
     29  CG       -12.1350    7.4130  -27.7050 C.ar   32  PHE32      -0.0203
     30  CD1      -12.9620    8.0770  -26.8130 C.ar   32  PHE32      -0.0042
     31  CD2      -10.8380    7.1150  -27.3210 C.ar   32  PHE32      -0.0042
     32  CE1      -12.5130    8.4210  -25.5490 C.ar   32  PHE32      -0.0003
     33  CE2      -10.3820    7.4610  -26.0620 C.ar   32  PHE32      -0.0003
     34  CZ       -11.2190    8.1060  -25.1700 C.ar   32  PHE32      -0.0000
     35  N        -11.5500   11.6390  -27.6790 N.3    74  GLY74      -0.1210
     36  CA       -10.3580   11.2120  -26.9590 C.3    74  GLY74       0.1956
     37  C         -9.5440   12.4110  -26.5150 C.2    74  GLY74       0.2612
     38  O         -9.8200   13.5430  -26.9040 O.2    74  GLY74      -0.2717
     39  N         -8.5190   12.1630  -25.7100 N.am   75  GLY75      -0.1942
     40  CA        -7.7610   13.2430  -25.0870 C.3    75  GLY75       0.2014
     41  C         -6.6920   13.9000  -25.9400 C.2    75  GLY75       0.2639
     42  O         -6.1100   14.8980  -25.5170 O.2    75  GLY75      -0.2714
     43  N         -6.4220   13.3610  -27.1260 N.am   76  GLY76      -0.1954
     44  CA        -5.3400   13.8750  -27.9680 C.3    76  GLY76       0.1869
     45  C         -5.5790   15.2480  -28.5770 C.2    76  GLY76       0.2309
     46  O         -6.7180   15.7270  -28.6700 O.2    76  GLY76      -0.2863
     47  N        -21.2490    9.6720  -25.8640 N.3   113  ASP113     -0.1239
     48  CA       -20.3990   10.4530  -24.9820 C.3   113  ASP113      0.1674
     49  C        -19.4600   11.2860  -25.8350 C.2   113  ASP113      0.2266
     50  O        -19.0190   10.8410  -26.8950 O.2   113  ASP113     -0.2867
     51  CB       -19.6250    9.5130  -24.0640 C.3   113  ASP113      0.1410
     52  CG       -18.6480   10.2350  -23.1550 C.2   113  ASP113      0.3668
     53  OD1      -19.0920   10.9890  -22.2620 O.co2 113  ASP113     -0.2456
     54  OD2      -17.4300   10.0140  -23.3050 O.co2 113  ASP113     -0.2456
     55  N        -15.8440   13.2100  -25.7150 N.3   115  ASP115     -0.1239
     56  CA       -14.5770   13.4330  -25.0250 C.3   115  ASP115      0.1674
     57  C        -13.7510   14.4760  -25.7770 C.2   115  ASP115      0.2266
     58  O        -12.9800   14.1510  -26.6830 O.2   115  ASP115     -0.2867
     59  CB       -13.8210   12.1110  -24.8630 C.3   115  ASP115      0.1410
     60  CG       -12.5420   12.2540  -24.0470 C.2   115  ASP115      0.3668
     61  OD1      -12.3460   13.2980  -23.3850 O.co2 115  ASP115     -0.2456
     62  OD2      -11.7230   11.3080  -24.0920 O.co2 115  ASP115     -0.2456
     63  N        -11.2180   17.5840  -25.0380 N.3   117  GLU117     -0.1245
     64  CA       -10.3150   18.1010  -24.0110 C.3   117  GLU117      0.1567
     65  C         -9.4460   19.2260  -24.5870 C.2   117  GLU117      0.2260
     66  O         -8.3720   18.9540  -25.1210 O.2   117  GLU117     -0.2867
     67  CB        -9.4640   16.9480  -23.4640 C.3   117  GLU117      0.0388
     68  CG       -10.3140   15.7920  -22.9470 C.3   117  GLU117      0.1160
     69  CD        -9.5170   14.6330  -22.3760 C.2   117  GLU117      0.3649
     70  OE1       -8.3660   14.8520  -21.9390 O.co2 117  GLU117     -0.2457
     71  OE2      -10.0480   13.5020  -22.3520 O.co2 117  GLU117     -0.2457
     72  N        -17.0760   14.0380  -21.0670 N.3   156  ALA156     -0.1245
     73  CA       -15.9370   14.2020  -20.1990 C.3   156  ALA156      0.1562
     74  C        -15.7390   15.6770  -19.8790 C.2   156  ALA156      0.2260
     75  O        -15.8600   16.5310  -20.7610 O.2   156  ALA156     -0.2867
     76  CB       -14.6940   13.6410  -20.8700 C.3   156  ALA156      0.0290
     77  N        -18.6030   13.0910  -16.7750 N.3   185  ASN185     -0.1240
     78  CA       -17.5310   12.2810  -16.2380 C.3   185  ASN185      0.1653
     79  C        -16.3660   13.2000  -15.8980 C.2   185  ASN185      0.2266
     80  O        -15.6800   13.7080  -16.7840 O.2   185  ASN185     -0.2867
     81  CB       -17.1540   11.2100  -17.2600 C.3   185  ASN185      0.1155
     82  CG       -18.2780   10.2220  -17.4930 C.2   185  ASN185      0.2627
     83  OD1      -18.8680    9.7060  -16.5460 O.2   185  ASN185     -0.2716
     84  ND2      -18.5840    9.9570  -18.7540 N.am  185  ASN185     -0.0877
     85  N        -12.8870   14.2490  -14.8170 N.3   187  MET187     -0.1245
     86  CA       -11.5670   13.6330  -14.9380 C.3   187  MET187      0.1570
     87  C        -10.6860   14.1450  -13.8090 C.2   187  MET187      0.2261
     88  O         -9.8000   14.9840  -14.0020 O.2   187  MET187     -0.2867
     89  CB       -10.9730   13.8890  -16.3240 C.3   187  MET187      0.0387
     90  CG       -11.7320   13.1200  -17.4050 C.3   187  MET187      0.0595
     91  SD       -11.1260   13.3050  -19.0850 S.3   187  MET187     -0.1393
     92  CE       -11.4590   15.0390  -19.3500 C.3   187  MET187      0.0692
     93  N         -8.0950   13.4890  -12.0830 N.3   189  TYR189     -0.1227
     94  CA        -6.7830   12.8560  -12.0130 C.3   189  TYR189      0.1736
     95  C         -5.8410   13.5350  -13.0050 C.2   189  TYR189      0.2595
     96  O         -6.2260   14.5130  -13.6440 O.2   189  TYR189     -0.2718
     97  CB        -6.9060   11.3450  -12.2700 C.3   189  TYR189      0.0548
     98  CG        -7.7300   10.9760  -13.4880 C.ar  189  TYR189     -0.0200
     99  CD1       -7.2580   11.1900  -14.7760 C.ar  189  TYR189     -0.0009
    100  CD2       -8.9920   10.4200  -13.3440 C.ar  189  TYR189     -0.0009
    101  CE1       -8.0260   10.8510  -15.8800 C.ar  189  TYR189      0.0417
    102  CE2       -9.7570   10.0740  -14.4440 C.ar  189  TYR189      0.0417
    103  CZ        -9.2700   10.2900  -15.7050 C.ar  189  TYR189      0.1957
    104  OH       -10.0500    9.9460  -16.7900 O.3   189  TYR189     -0.2866
    105  N         -4.6190   13.0150  -13.1170 N.am  190  ASP190     -0.1974
    106  CA        -3.5610   13.5780  -13.9610 C.3   190  ASP190      0.1709
    107  C         -3.1480   14.9850  -13.5100 C.2   190  ASP190      0.2293
    108  O         -2.7430   15.8260  -14.3230 O.2   190  ASP190     -0.2864
    109  CB        -3.9390   13.5430  -15.4530 C.3   190  ASP190      0.1436
    110  CG        -3.7860   12.1640  -16.0680 C.2   190  ASP190      0.3671
    111  OD1       -3.0420   11.3260  -15.5200 O.co2 190  ASP190     -0.2456
    112  OD2       -4.4030   11.9250  -17.1280 O.co2 190  ASP190     -0.2456
    113  N         -4.6070    3.5330  -13.6670 N.3   237  PHE237     -0.1241
    114  CA        -3.1940    3.6140  -13.9880 C.3   237  PHE237      0.1605
    115  C         -2.5560    4.6000  -13.0270 C.2   237  PHE237      0.2264
    116  O         -3.2440    5.4140  -12.3980 O.2   237  PHE237     -0.2867
    117  CB        -2.9850    4.0960  -15.4290 C.3   237  PHE237      0.0534
    118  CG        -3.4460    5.5010  -15.6580 C.ar  237  PHE237     -0.0203
    119  CD1       -4.7770    5.7660  -15.9420 C.ar  237  PHE237     -0.0042
    120  CD2       -2.5650    6.5660  -15.5350 C.ar  237  PHE237     -0.0042
    121  CE1       -5.2180    7.0640  -16.1220 C.ar  237  PHE237     -0.0003
    122  CE2       -3.0000    7.8690  -15.7210 C.ar  237  PHE237     -0.0003
    123  CZ        -4.3330    8.1150  -16.0060 C.ar  237  PHE237     -0.0000
    124  N          0.9660    7.3670  -12.4900 N.3   239  ARG239     -0.1245
    125  CA         1.9780    8.1620  -13.1700 C.3   239  ARG239      0.1563
    126  C          3.3160    7.8630  -12.5150 C.2   239  ARG239      0.2260
    127  O          3.4140    7.8220  -11.2860 O.2   239  ARG239     -0.2867
    128  CB         1.6510    9.6520  -13.0850 C.3   239  ARG239      0.0307
    129  CG         0.4160   10.0550  -13.8710 C.3   239  ARG239      0.0489
    130  CD         0.7390   10.2030  -15.3380 C.3   239  ARG239      0.2205
    131  NE        -0.4610   10.3610  -16.1540 N.pl3 239  ARG239     -0.0865
    132  CZ        -0.5050   10.1550  -17.4660 C.cat 239  ARG239      0.5346
    133  NH1        0.5850    9.7860  -18.1300 N.pl3 239  ARG239      0.1354
    134  NH2       -1.6490   10.3220  -18.1160 N.pl3 239  ARG239      0.1354
    135  N          3.4270    6.2640  -17.5900 N.3   264  ALA264     -0.1245
    136  CA         2.1460    5.6820  -17.1680 C.3   264  ALA264      0.1562
    137  C          2.2620    4.1750  -16.9990 C.2   264  ALA264      0.2260
    138  O          2.8520    3.4920  -17.8390 O.2   264  ALA264     -0.2867
    139  CB         1.0530    6.0200  -18.1680 C.3   264  ALA264      0.0290
    140  N        -16.4510    6.6940  -12.1250 N.3   322  PHE322     -0.1241
    141  CA       -15.9960    6.0060  -13.3340 C.3   322  PHE322      0.1605
    142  C        -14.5380    5.6120  -13.2070 C.2   322  PHE322      0.2264
    143  O        -13.7800    6.2360  -12.4700 O.2   322  PHE322     -0.2867
    144  CB       -16.2700    6.8220  -14.6190 C.3   322  PHE322      0.0534
    145  CG       -15.2430    7.8810  -14.9450 C.ar  322  PHE322     -0.0203
    146  CD1      -14.0130    7.5430  -15.5020 C.ar  322  PHE322     -0.0042
    147  CD2      -15.5380    9.2250  -14.7580 C.ar  322  PHE322     -0.0042
    148  CE1      -13.0910    8.5190  -15.8290 C.ar  322  PHE322     -0.0003
    149  CE2      -14.6190   10.2050  -15.0820 C.ar  322  PHE322     -0.0003
    150  CZ       -13.3870    9.8540  -15.6140 C.ar  322  PHE322     -0.0000
    151  N        -11.1490    4.9360  -15.6480 N.3   324  TRP324     -0.1227
    152  CA       -10.3800    4.9030  -16.8910 C.3   324  TRP324      0.1737
    153  C         -9.0510    4.2010  -16.5990 C.2   324  TRP324      0.2596
    154  O         -8.2810    4.7180  -15.7950 O.2   324  TRP324     -0.2718
    155  CB       -10.0730    6.3070  -17.4360 C.3   324  TRP324      0.0564
    156  CG        -9.2320    6.1830  -18.6680 C.ar  324  TRP324      0.0003
    157  CD1       -7.8830    5.9780  -18.7210 C.ar  324  TRP324      0.0946
    158  CD2       -9.6940    6.1450  -20.0220 C.ar  324  TRP324      0.0152
    159  NE1       -7.4780    5.8290  -20.0240 N.ar  324  TRP324     -0.2442
    160  CE2       -8.5700    5.9260  -20.8430 C.ar  324  TRP324      0.0810
    161  CE3      -10.9500    6.2780  -20.6220 C.ar  324  TRP324      0.0012
    162  CZ2       -8.6600    5.8530  -22.2320 C.ar  324  TRP324      0.0191
    163  CZ3      -11.0400    6.2000  -21.9970 C.ar  324  TRP324      0.0001
    164  CH2       -9.9050    5.9900  -22.7890 C.ar  324  TRP324      0.0015
    165  N         -8.7280    3.0660  -17.2310 N.am  325  SER325     -0.1952
    166  CA        -9.5820    2.3120  -18.1640 C.3   325  SER325      0.1924
    167  C         -9.5200    0.8380  -17.7650 C.2   325  SER325      0.2314
    168  O         -8.5330    0.3850  -17.1890 O.2   325  SER325     -0.2863
    169  CB        -9.1370    2.5120  -19.6180 C.3   325  SER325      0.2116
    170  OG        -7.7840    2.1130  -19.8260 O.3   325  SER325     -0.2180
    171  N         -6.7340   -1.8590  -17.6900 N.3   328  GLN328     -0.1245
    172  CA        -5.5610   -1.6110  -16.8490 C.3   328  GLN328      0.1566
    173  C         -5.6220   -2.2900  -15.4760 C.2   328  GLN328      0.2260
    174  O         -4.6380   -2.2650  -14.7350 O.2   328  GLN328     -0.2867
    175  CB        -5.3480   -0.1110  -16.6780 C.3   328  GLN328      0.0367
    176  CG        -5.0490    0.6210  -17.9780 C.3   328  GLN328      0.0905
    177  CD        -5.1440    2.1280  -17.8470 C.2   328  GLN328      0.2608
    178  OE1       -5.9250    2.6530  -17.0420 O.2   328  GLN328     -0.2717
    179  NE2       -4.3670    2.8400  -18.6530 N.am  328  GLN328     -0.0878
@<TRIPOS>BOND
     1    27    26    2
     2    26    25    1
     3    25    28    1
     4    25    24    1
     5    28    29    1
     6    13    12    1
     7    13    16    1
     8    13    14    1
     9    46    45    2
    10    45    44    1
    11    15    14    2
    12    16    17    1
    13    44    43    1
    14    29    31   ar
    15    29    30   ar
    16    35    36    1
    17    31    33   ar
    18    43    41   am
    19    36    37    1
    20    38    37    2
    21    50    49    2
    22    30    32   ar
    23    17    18   ar
    24    17    19   ar
    25    58    57    2
    26    37    39   am
    27    18    20   ar
    28    33    34   ar
    29    19    21   ar
    30    41    42    2
    31    41    40    1
    32    47    48    1
    33    49    48    1
    34    57    56    1
    35    55    56    1
    36    39    40    1
    37    32    34   ar
    38    66    65    2
    39    63    64    1
    40    56    59    1
    41    48    51    1
    42    59    60    1
    43    20    22   ar
    44    21    22   ar
    45    65    64    1
    46    62    60   ar
    47    51    52    1
    48    22    23    1
    49    60    61   ar
    50    64    67    1
    51    67    68    1
    52    54    52   ar
    53    52    53   ar
    54    68    69    1
    55   164   162   ar
    56   164   163   ar
    57    69    71   ar
    58    69    70   ar
    59   162   160   ar
    60   163   161   ar
    61     8    10   ar
    62     8     6   ar
    63    10    11   ar
    64    72    73    1
    65    76    73    1
    66   160   159   ar
    67   160   158   ar
    68    75    74    2
    69   161   158   ar
    70     3     2    1
    71     3     4    2
    72    73    74    1
    73     5     6    1
    74     5     2    1
    75     6     7   ar
    76     2     1    1
    77   159   157   ar
    78   158   156   ar
    79    11     9   ar
    80   170   169    1
    81   169   166    1
    82    92    91    1
    83    91    90    1
    84     7     9   ar
    85    84    82   am
    86   157   156   ar
    87   156   155    1
    88   179   177   am
    89   139   136    1
    90   166   167    1
    91   166   165    1
    92   133   132    1
    93   134   132    1
    94   176   177    1
    95   176   175    1
    96   177   178    2
    97   138   137    2
    98   167   168    2
    99   171   172    1
   100   135   136    1
   101    82    81    1
   102    82    83    2
   103   132   131    2
   104   155   152    1
   105    90    89    1
   106    81    78    1
   107   165   153   am
   108   136   137    1
   109   112   110   ar
   110   152   153    1
   111   152   151    1
   112   172   175    1
   113   172   173    1
   114   104   103    1
   115    80    79    2
   116    77    78    1
   117   153   154    2
   118    89    86    1
   119    78    79    1
   120   131   130    1
   121   121   123   ar
   122   121   119   ar
   123   110   111   ar
   124   110   109    1
   125   123   122   ar
   126   119   118   ar
   127   101   103   ar
   128   101    99   ar
   129   148   150   ar
   130   148   146   ar
   131   122   120   ar
   132   103   102   ar
   133   118   120   ar
   134   118   117    1
   135   150   149   ar
   136   146   145   ar
   137   173   174    2
   138   109   106    1
   139   117   114    1
   140   130   129    1
   141   149   147   ar
   142   145   147   ar
   143   145   144    1
   144    86    85    1
   145    86    87    1
   146    99    98   ar
   147   144   141    1
   148   102   100   ar
   149   108   107    2
   150    88    87    2
   151   114   113    1
   152   114   115    1
   153   106   107    1
   154   106   105    1
   155   129   128    1
   156    96    95    2
   157    98   100   ar
   158    98    97    1
   159   141   142    1
   160   141   140    1
   161   142   143    2
   162   125   128    1
   163   125   126    1
   164   125   124    1
   165   105    95   am
   166   115   116    2
   167    95    94    1
   168   126   127    2
   169    97    94    1
   170    93    94    1
