@<TRIPOS>MOLECULE
tmp/4r5fA02.pdb
 100 98 0 0 0
SMALL
GASTEIGER

@<TRIPOS>ATOM
      1  N         41.0730   11.3940    6.9860 N.3    53  LYS53      -0.1231
      2  CA        40.8830   10.6970    5.7270 C.3    53  LYS53       0.1693
      3  C         39.4000   10.5450    5.3840 C.2    53  LYS53       0.2592
      4  O         38.9890   10.6800    4.2210 O.2    53  LYS53      -0.2718
      5  CB        41.5570    9.3300    5.7940 C.3    53  LYS53       0.0285
      6  CG        41.6410    8.6100    4.4700 C.3    53  LYS53       0.0035
      7  CD        42.3060    7.2620    4.6310 C.3    53  LYS53       0.0206
      8  CE        42.1880    6.4370    3.3640 C.3    53  LYS53       0.1093
      9  NZ        42.8210    7.1300    2.2120 N.3    53  LYS53      -0.1314
     10  N         38.6020   10.2520    6.3930 N.am   54  LEU54      -0.1966
     11  CA        37.1610   10.1000    6.2180 C.3    54  LEU54       0.1728
     12  C         36.5140   11.3120    5.5410 C.2    54  LEU54       0.2616
     13  O         35.6030   11.1410    4.7220 O.2    54  LEU54      -0.2715
     14  CB        36.5010    9.8310    7.5950 C.3    54  LEU54       0.0311
     15  CG        34.9550    9.7200    7.6690 C.3    54  LEU54       0.0022
     16  CD1       34.4760    8.5920    6.7590 C.3    54  LEU54       0.0001
     17  CD2       34.4360    9.5240    9.1060 C.3    54  LEU54       0.0001
     18  N         36.9380   12.5240    5.8820 N.am   55  VAL55      -0.1963
     19  CA        36.3250   13.7140    5.3030 C.3    55  VAL55       0.1727
     20  C         37.2030   14.4260    4.2680 C.2    55  VAL55       0.2616
     21  O         36.9200   15.5560    3.8640 O.2    55  VAL55      -0.2715
     22  CB        35.9100   14.7140    6.3900 C.3    55  VAL55       0.0290
     23  CG1       34.8900   14.0570    7.3290 C.3    55  VAL55       0.0023
     24  CG2       37.0850   15.2240    7.1760 C.3    55  VAL55       0.0023
     25  N         38.1980   13.6990    3.7800 N.am   56  ASN56      -0.1972
     26  CA        39.1560   14.1920    2.7850 C.3    56  ASN56       0.1688
     27  C         39.8650   15.4500    3.2930 C.2    56  ASN56       0.2292
     28  O         39.9860   16.4240    2.5530 O.2    56  ASN56      -0.2864
     29  CB        38.4660   14.4790    1.4350 C.3    56  ASN56       0.1181
     30  CG        39.4660   14.7730    0.3130 C.2    56  ASN56       0.2629
     31  OD1       40.5460   14.1820    0.2550 O.2    56  ASN56      -0.2716
     32  ND2       39.1230   15.7110   -0.5510 N.am   56  ASN56      -0.0877
     33  N         28.0370   13.1380    8.4630 N.3   177  VAL177     -0.1231
     34  CA        29.1010   12.1670    8.3250 C.3   177  VAL177      0.1692
     35  C         28.5440   10.7840    8.5040 C.2   177  VAL177      0.2592
     36  O         27.8400   10.5110    9.4730 O.2   177  VAL177     -0.2718
     37  CB        30.2570   12.4040    9.3340 C.3   177  VAL177      0.0266
     38  CG1       31.3480   11.4100    9.0990 C.3   177  VAL177      0.0020
     39  CG2       30.8050   13.7790    9.1400 C.3   177  VAL177      0.0020
     40  N         28.8380    9.9280    7.5360 N.am  178  GLY178     -0.1957
     41  CA        28.4030    8.5450    7.5430 C.3   178  GLY178      0.1869
     42  C         27.0160    8.2850    6.9640 C.2   178  GLY178      0.2309
     43  O         26.5500    7.1420    6.9510 O.2   178  GLY178     -0.2863
     44  N         25.7010   10.8580    4.2410 N.3   180  ILE180     -0.1231
     45  CA        25.8630   11.4300    2.9090 C.3   180  ILE180      0.1692
     46  C         27.3580   11.7130    2.7300 C.2   180  ILE180      0.2592
     47  O         28.1370   11.6030    3.6780 O.2   180  ILE180     -0.2718
     48  CB        25.0430   12.7310    2.6870 C.3   180  ILE180      0.0266
     49  CG1       25.4250   13.7840    3.7300 C.3   180  ILE180      0.0019
     50  CG2       23.5300   12.4210    2.7450 C.3   180  ILE180      0.0020
     51  CD1       24.7360   15.1210    3.5670 C.3   180  ILE180      0.0001
     52  N         27.7650   12.0610    1.5190 N.am  181  GLU181     -0.1966
     53  CA        29.1820   12.3230    1.2700 C.3   181  GLU181      0.1733
     54  C         29.5960   13.6130    1.9510 C.2   181  GLU181      0.2616
     55  O         28.9440   14.6570    1.8260 O.2   181  GLU181     -0.2715
     56  CB        29.4820   12.4030   -0.2190 C.3   181  GLU181      0.0429
     57  CG        30.9660   12.5730   -0.5010 C.3   181  GLU181      0.1163
     58  CD        31.2650   12.6700   -1.9880 C.2   181  GLU181      0.3649
     59  OE1       30.3300   12.9050   -2.7720 O.co2 181  GLU181     -0.2457
     60  OE2       32.4310   12.4900   -2.3550 O.co2 181  GLU181     -0.2457
     61  N         30.6590   13.5160    2.7320 N.am  182  VAL182     -0.1963
     62  CA        31.2250   14.6780    3.4050 C.3   182  VAL182      0.1727
     63  C         32.7140   14.8110    3.0260 C.2   182  VAL182      0.2616
     64  O         33.5700   14.1480    3.5850 O.2   182  VAL182     -0.2715
     65  CB        31.0720   14.5810    4.9480 C.3   182  VAL182      0.0290
     66  CG1       31.6060   15.8250    5.6140 C.3   182  VAL182      0.0023
     67  CG2       29.6200   14.4360    5.3280 C.3   182  VAL182      0.0023
     68  N         32.9790   15.7210    2.1100 N.am  183  ASP183     -0.1971
     69  CA        34.3100   15.9670    1.5540 C.3   183  ASP183      0.1709
     70  C         34.5340   17.4640    1.7090 C.2   183  ASP183      0.2293
     71  O         33.8950   18.2750    1.0230 O.2   183  ASP183     -0.2864
     72  CB        34.3460   15.5050    0.0900 C.3   183  ASP183      0.1436
     73  CG        35.6320   15.8370   -0.6320 C.2   183  ASP183      0.3671
     74  OD1       36.3460   16.7690   -0.2550 O.co2 183  ASP183     -0.2456
     75  OD2       35.8920   15.1580   -1.6420 O.co2 183  ASP183     -0.2456
     76  N         29.8530    3.2640    4.7630 N.3   253  TRP253     -0.1227
     77  CA        28.7490    4.2110    4.9040 C.3   253  TRP253      0.1737
     78  C         27.8080    4.1970    3.6810 C.2   253  TRP253      0.2595
     79  O         26.5980    4.3480    3.8420 O.2   253  TRP253     -0.2718
     80  CB        29.2510    5.6420    5.1880 C.3   253  TRP253      0.0564
     81  CG        29.8160    6.4030    4.0260 C.ar  253  TRP253      0.0003
     82  CD1       31.1370    6.5250    3.6760 C.ar  253  TRP253      0.0946
     83  CD2       29.0770    7.1780    3.0780 C.ar  253  TRP253      0.0152
     84  NE1       31.2510    7.3310    2.5720 N.ar  253  TRP253     -0.2442
     85  CE2       29.9940    7.7350    2.1820 C.ar  253  TRP253      0.0810
     86  CE3       27.7090    7.4420    2.8990 C.ar  253  TRP253      0.0012
     87  CZ2       29.5970    8.5340    1.1090 C.ar  253  TRP253      0.0191
     88  CZ3       27.3260    8.2350    1.8480 C.ar  253  TRP253      0.0001
     89  CH2       28.2620    8.7820    0.9720 C.ar  253  TRP253      0.0015
     90  N         28.3450    3.9950    2.4790 N.am  254  ARG254     -0.1980
     91  CA        27.5020    4.0410    1.2780 C.3   254  ARG254      0.1597
     92  C         26.4630    2.9220    1.2980 C.2   254  ARG254      0.2287
     93  O         25.2800    3.1490    1.0220 O.2   254  ARG254     -0.2864
     94  CB        28.3470    3.9660    0.0010 C.3   254  ARG254      0.0334
     95  CG        29.1920    5.2090   -0.2290 C.3   254  ARG254      0.0492
     96  CD        29.7010    5.3350   -1.6770 C.3   254  ARG254      0.2205
     97  NE        30.5550    6.5200   -1.8010 N.pl3 254  ARG254     -0.0865
     98  CZ        30.1470    7.7250   -2.2040 C.cat 254  ARG254      0.5346
     99  NH1       28.8860    7.9410   -2.5700 N.pl3 254  ARG254      0.1354
    100  NH2       31.0190    8.7270   -2.2450 N.pl3 254  ARG254      0.1354
@<TRIPOS>BOND
     1    59    58   ar
     2    99    98    1
     3    60    58   ar
     4   100    98    1
     5    98    97    2
     6    58    57    1
     7    97    96    1
     8    96    95    1
     9    75    73   ar
    10    73    74   ar
    11    73    72    1
    12    32    30   am
    13    57    56    1
    14    95    94    1
    15    56    53    1
    16    94    91    1
    17    72    69    1
    18    31    30    2
    19    30    29    1
    20    89    87   ar
    21    89    88   ar
    22    93    92    2
    23    71    70    2
    24    87    85   ar
    25    53    52    1
    26    53    54    1
    27    91    92    1
    28    91    90    1
    29    29    26    1
    30    52    46   am
    31    69    70    1
    32    69    68    1
    33    55    54    2
    34    88    86   ar
    35    54    61   am
    36    68    63   am
    37    85    84   ar
    38    85    83   ar
    39     9     8    1
    40    90    78   am
    41    28    27    2
    42    84    82   ar
    43    48    50    1
    44    48    45    1
    45    48    49    1
    46    46    45    1
    47    46    47    2
    48    61    62    1
    49    26    27    1
    50    26    25    1
    51    86    83   ar
    52    45    44    1
    53    63    62    1
    54    63    64    2
    55    83    81   ar
    56     8     7    1
    57    62    65    1
    58    51    49    1
    59    82    81   ar
    60    78    79    2
    61    78    77    1
    62    25    20   am
    63    21    20    2
    64    81    80    1
    65     4     3    2
    66    20    19    1
    67     6     7    1
    68     6     5    1
    69    13    12    2
    70    76    77    1
    71    77    80    1
    72    65    67    1
    73    65    66    1
    74    19    18    1
    75    19    22    1
    76     3     2    1
    77     3    10   am
    78    12    18   am
    79    12    11    1
    80     2     5    1
    81     2     1    1
    82    11    10    1
    83    11    14    1
    84    22    24    1
    85    22    23    1
    86    16    15    1
    87    43    42    2
    88    42    41    1
    89    40    41    1
    90    40    35   am
    91    14    15    1
    92    15    17    1
    93    34    33    1
    94    34    35    1
    95    34    37    1
    96    35    36    2
    97    38    37    1
    98    39    37    1
