@<TRIPOS>MOLECULE
tmp/4r5fA00.pdb
 110 99 0 0 0
SMALL
GASTEIGER

@<TRIPOS>ATOM
      1  N         19.4450    9.5910   16.5200 N.3     6  THR6       -0.1203
      2  CA        20.0970   10.9080   16.5360 C.3     6  THR6        0.1994
      3  C         20.2140   11.4770   17.9430 C.2     6  THR6        0.2618
      4  O         20.7650   12.5770   18.1210 O.2     6  THR6       -0.2717
      5  CB        19.3890   11.9590   15.6700 C.3     6  THR6        0.1784
      6  OG1       18.0590   12.1740   16.1570 O.3     6  THR6       -0.2211
      7  CG2       19.3700   11.5230   14.2400 C.3     6  THR6        0.0376
      8  N         19.7090   10.7390   18.9340 N.am    7  SER7       -0.1951
      9  CA        19.9120   11.1160   20.3350 C.3     7  SER7        0.1924
     10  C         21.0950   10.3570   20.9390 C.2     7  SER7        0.2314
     11  O         21.7230   10.8440   21.8720 O.2     7  SER7       -0.2863
     12  CB        18.6470   10.8580   21.1580 C.3     7  SER7        0.2116
     13  OG        17.6040   11.7390   20.7730 O.3     7  SER7       -0.2180
     14  N         33.5200   16.1640   22.1530 N.3    67  GLY67      -0.1210
     15  CA        32.3100   15.8980   21.3830 C.3    67  GLY67       0.1956
     16  C         31.9130   17.0570   20.4850 C.2    67  GLY67       0.2612
     17  O         32.5910   18.0850   20.3910 O.2    67  GLY67      -0.2717
     18  N         30.7940   16.8910   19.8050 N.am   68  ALA68      -0.1965
     19  CA        30.3580   17.9030   18.8600 C.3    68  ALA68       0.1728
     20  C         30.0820   19.2380   19.5390 C.2    68  ALA68       0.2616
     21  O         30.3390   20.2720   18.9360 O.2    68  ALA68      -0.2715
     22  CB        29.0890   17.4160   18.0840 C.3    68  ALA68       0.0334
     23  N         29.5530   19.2310   20.7730 N.am   69  THR69      -0.1951
     24  CA        29.1900   20.4860   21.4300 C.3    69  THR69       0.1897
     25  C         30.4310   21.3250   21.6600 C.2    69  THR69       0.2313
     26  O         30.4690   22.5020   21.3260 O.2    69  THR69      -0.2863
     27  CB        28.4400   20.2510   22.7800 C.3    69  THR69       0.1794
     28  OG1       27.1190   19.7540   22.5160 O.3    69  THR69      -0.2208
     29  CG2       28.3120   21.5300   23.5580 C.3    69  THR69       0.0378
     30  N         31.7630   22.5730   18.2280 N.3    72  ASN72      -0.1240
     31  CA        30.9840   23.7400   17.8110 C.3    72  ASN72       0.1653
     32  C         31.3030   25.0200   18.5790 C.2    72  ASN72       0.2266
     33  O         31.3580   26.1020   17.9790 O.2    72  ASN72      -0.2867
     34  CB        29.4750   23.4480   17.9230 C.3    72  ASN72       0.1155
     35  CG        28.9300   22.6710   16.7360 C.2    72  ASN72       0.2627
     36  OD1       29.4960   22.7040   15.6260 O.2    72  ASN72      -0.2716
     37  ND2       27.7840   22.0140   16.9420 N.am   72  ASN72      -0.0877
     38  N         22.0740   23.6970   15.5030 N.3    97  HIS97      -0.1241
     39  CA        22.0170   23.0710   16.8150 C.3    97  HIS97       0.1621
     40  C         22.2960   24.1330   17.8710 C.2    97  HIS97       0.2264
     41  O         22.9950   25.1110   17.6050 O.2    97  HIS97      -0.2867
     42  CB        23.0320   21.9130   16.9050 C.3    97  HIS97       0.0745
     43  CG        22.8370   21.0320   18.1020 C.ar   97  HIS97       0.0817
     44  ND1       23.4880   21.2520   19.2890 N.ar   97  HIS97      -0.2268
     45  CD2       22.0440   19.9500   18.2970 C.ar   97  HIS97       0.1154
     46  CE1       23.1040   20.3440   20.1780 C.ar   97  HIS97       0.1986
     47  NE2       22.2380   19.5390   19.5970 N.ar   97  HIS97      -0.2212
     48  N         24.2210   24.0910   20.2410 N.3    99  SER99      -0.1217
     49  CA        25.6560   24.1920   20.5320 C.3    99  SER99       0.1889
     50  C         26.3910   25.0920   19.5260 C.2    99  SER99       0.2288
     51  O         27.5850   25.3660   19.6900 O.2    99  SER99      -0.2866
     52  CB        26.2810   22.8080   20.5770 C.3    99  SER99       0.2089
     53  OG        26.3160   22.1710   19.3070 O.3    99  SER99      -0.2183
     54  N         24.9390   24.2880    8.9820 N.3   144  GLN144     -0.1245
     55  CA        25.0370   22.8470    9.0940 C.3   144  GLN144      0.1566
     56  C         24.9740   22.1460    7.7620 C.2   144  GLN144      0.2260
     57  O         24.3330   22.6300    6.8100 O.2   144  GLN144     -0.2867
     58  CB        23.9140   22.3310    9.9830 C.3   144  GLN144      0.0367
     59  CG        22.5860   22.6930    9.3950 C.3   144  GLN144      0.0905
     60  CD        21.3970   22.4490   10.3150 C.2   144  GLN144      0.2608
     61  OE1       20.2650   22.3820    9.8320 O.2   144  GLN144     -0.2717
     62  NE2       21.6330   22.3610   11.6280 N.am  144  GLN144     -0.0878
     63  N         23.4970   19.2790    7.2970 N.3   146  ALA146     -0.1245
     64  CA        22.1270   18.7950    7.2700 C.3   146  ALA146      0.1562
     65  C         21.5400   18.9190    8.6560 C.2   146  ALA146      0.2260
     66  O         22.2600   19.0340    9.6270 O.2   146  ALA146     -0.2867
     67  CB        22.0620   17.3670    6.8060 C.3   146  ALA146      0.0290
     68  N         19.4920   17.4930   11.8500 N.3   148  ASN148     -0.1240
     69  CA        19.2490   16.1840   12.4550 C.3   148  ASN148      0.1653
     70  C         17.8190   16.0470   12.9510 C.2   148  ASN148      0.2266
     71  O         17.4020   14.9540   13.3200 O.2   148  ASN148     -0.2867
     72  CB        20.1940   15.9070   13.6090 C.3   148  ASN148      0.1155
     73  CG        21.0280   14.5970   13.4250 C.2   148  ASN148      0.2627
     74  OD1       20.6590   13.6630   12.6890 O.2   148  ASN148     -0.2716
     75  ND2       22.1560   14.5410   14.1200 N.am  148  ASN148     -0.0877
     76  N         28.6510   22.3800   10.5450 N.3   172  ASP172     -0.1239
     77  CA        28.3580   21.3280   11.5140 C.3   172  ASP172      0.1674
     78  C         27.9290   20.1020   10.7330 C.2   172  ASP172      0.2266
     79  O         26.8350   20.0920   10.1500 O.2   172  ASP172     -0.2867
     80  CB        27.2380   21.7620   12.4830 C.3   172  ASP172      0.1410
     81  CG        26.9760   20.7440   13.5880 C.2   172  ASP172      0.3668
     82  OD1       27.5030   19.6350   13.5410 O.co2 172  ASP172     -0.2456
     83  OD2       26.2110   21.0630   14.5180 O.co2 172  ASP172     -0.2456
     84  N         27.7850   16.9540   12.0960 N.3   174  THR174     -0.1203
     85  CA        27.3470   15.9310   13.0420 C.3   174  THR174      0.1994
     86  C         26.2530   15.0040   12.4770 C.2   174  THR174      0.2617
     87  O         26.2460   13.8140   12.7330 O.2   174  THR174     -0.2717
     88  CB        26.8230   16.6130   14.3410 C.3   174  THR174      0.1784
     89  OG1       27.9230   17.2640   15.0150 O.3   174  THR174     -0.2211
     90  CG2       26.2340   15.6030   15.2610 C.3   174  THR174      0.0376
     91  N         25.3130   15.5500   11.7240 N.am  175  ALA175     -0.1979
     92  CA        24.2290   14.7130   11.1690 C.3   175  ALA175      0.1597
     93  C         24.5670   14.0420    9.8260 C.2   175  ALA175      0.2287
     94  O         23.8700   13.1290    9.3770 O.2   175  ALA175     -0.2864
     95  CB        22.9870   15.5460   11.0120 C.3   175  ALA175      0.0319
     96  N         31.1500   14.2730   15.1170 N.3   195  SER195     -0.1217
     97  CA        30.7620   13.5830   16.3440 C.3   195  SER195      0.1889
     98  C         31.1790   12.1300   16.2400 C.2   195  SER195      0.2288
     99  O         30.9010   11.4970   15.2380 O.2   195  SER195     -0.2866
    100  CB        29.2440   13.6580   16.5710 C.3   195  SER195      0.2089
    101  OG        28.8690   12.6750   17.5140 O.3   195  SER195     -0.2183
    102  N         28.0250    9.5910   16.6300 N.3   198  LYS198     -0.1245
    103  CA        27.1330    9.6050   15.4590 C.3   198  LYS198      0.1561
    104  C         27.6020    8.6420   14.4000 C.2   198  LYS198      0.2260
    105  O         26.8040    8.2740   13.5290 O.2   198  LYS198     -0.2867
    106  CB        27.0130   11.0070   14.8730 C.3   198  LYS198      0.0271
    107  CG        26.2100   11.9400   15.7180 C.3   198  LYS198      0.0035
    108  CD        24.7450   11.7670   15.4020 C.3   198  LYS198      0.0206
    109  CE        23.8920   11.9950   16.6250 C.3   198  LYS198      0.1093
    110  NZ        23.3660   13.3530   16.7060 N.3   198  LYS198     -0.1314
@<TRIPOS>BOND
     1    67    64    1
     2    57    56    2
     3    64    63    1
     4    64    65    1
     5    56    55    1
     6    65    66    2
     7    54    55    1
     8    55    58    1
     9    94    93    2
    10    59    58    1
    11    59    60    1
    12    93    92    1
    13    61    60    2
    14    79    78    2
    15    60    62   am
    16    76    77    1
    17    78    77    1
    18    95    92    1
    19    92    91    1
    20    77    80    1
    21    91    86   am
    22    68    69    1
    23    84    85    1
    24    69    70    1
    25    69    72    1
    26    86    87    2
    27    86    85    1
    28    80    81    1
    29    74    73    2
    30    70    71    2
    31    85    88    1
    32    73    72    1
    33    73    75   am
    34   105   104    2
    35    82    81   ar
    36    81    83   ar
    37     7     5    1
    38    88    89    1
    39    88    90    1
    40   104   103    1
    41   106   103    1
    42   106   107    1
    43    96    97    1
    44    99    98    2
    45   108   107    1
    46   108   109    1
    47   103   102    1
    48    38    39    1
    49    36    35    2
    50     5     6    1
    51     5     2    1
    52    98    97    1
    53    97   100    1
    54     1     2    1
    55     2     3    1
    56   100   101    1
    57   109   110    1
    58    35    37   am
    59    35    34    1
    60    39    42    1
    61    39    40    1
    62    42    43    1
    63    41    40    2
    64    31    34    1
    65    31    30    1
    66    31    32    1
    67     3     4    2
    68     3     8   am
    69    33    32    2
    70    22    19    1
    71    43    45   ar
    72    43    44   ar
    73    45    47   ar
    74    19    20    1
    75    19    18    1
    76     8     9    1
    77    21    20    2
    78    44    46   ar
    79    53    52    1
    80    50    51    2
    81    50    49    1
    82    20    23   am
    83    47    46   ar
    84    18    16   am
    85    48    49    1
    86     9    10    1
    87     9    12    1
    88    17    16    2
    89    16    15    1
    90    49    52    1
    91    13    12    1
    92    23    24    1
    93    10    11    2
    94    26    25    2
    95    15    14    1
    96    24    25    1
    97    24    27    1
    98    28    27    1
    99    27    29    1
