@<TRIPOS>MOLECULE
tmp/4r5fA01.pdb
 94 89 0 0 0
SMALL
GASTEIGER

@<TRIPOS>ATOM
      1  N         37.0530   30.7850   16.5570 N.3    79  TYR79      -0.1241
      2  CA        37.3830   31.5070   15.3420 C.3    79  TYR79       0.1605
      3  C         37.0330   32.9700   15.4720 C.2    79  TYR79       0.2264
      4  O         37.7910   33.8520   15.0530 O.2    79  TYR79      -0.2867
      5  CB        36.6810   30.9100   14.1190 C.3    79  TYR79       0.0534
      6  CG        37.1930   31.5200   12.8400 C.ar   79  TYR79      -0.0201
      7  CD1       38.2850   30.9720   12.1790 C.ar   79  TYR79      -0.0009
      8  CD2       36.6070   32.6600   12.3100 C.ar   79  TYR79      -0.0009
      9  CE1       38.7630   31.5390   11.0010 C.ar   79  TYR79       0.0417
     10  CE2       37.0680   33.2300   11.1420 C.ar   79  TYR79       0.0417
     11  CZ        38.1630   32.6650   10.4900 C.ar   79  TYR79       0.1957
     12  OH        38.6330   33.2220    9.3160 O.3    79  TYR79      -0.2866
     13  N         39.3360   41.3770   11.8850 N.3    86  LYS86      -0.1245
     14  CA        38.9910   41.4140   10.4570 C.3    86  LYS86       0.1561
     15  C         37.5250   41.7870   10.2540 C.2    86  LYS86       0.2260
     16  O         37.1000   42.0610    9.1370 O.2    86  LYS86      -0.2867
     17  CB        39.2780   40.0700    9.7890 C.3    86  LYS86       0.0271
     18  CG        40.7730   39.7310    9.7180 C.3    86  LYS86       0.0035
     19  CD        41.0400   38.5650    8.7690 C.3    86  LYS86       0.0206
     20  CE        40.6420   37.2320    9.3730 C.3    86  LYS86       0.1093
     21  NZ        40.8130   36.1120    8.4000 N.3    86  LYS86      -0.1314
     22  N         33.1080   37.7580    8.9770 N.3   139  ILE139     -0.1245
     23  CA        34.2780   36.9110    9.1650 C.3   139  ILE139      0.1561
     24  C         33.9060   35.4500    9.2360 C.2   139  ILE139      0.2260
     25  O         34.7510   34.5800    9.0530 O.2   139  ILE139     -0.2867
     26  CB        35.0520   37.2460   10.4610 C.3   139  ILE139      0.0252
     27  CG1       34.1470   37.0930   11.7100 C.3   139  ILE139      0.0019
     28  CG2       35.6800   38.6250   10.3350 C.3   139  ILE139      0.0019
     29  CD1       34.9070   36.9330   13.0480 C.3   139  ILE139      0.0001
     30  N         36.8410   32.9620   -0.2800 N.3   165  GLY165     -0.1210
     31  CA        37.8660   33.9360    0.0150 C.3   165  GLY165      0.1956
     32  C         37.3630   35.2370    0.6160 C.2   165  GLY165      0.2612
     33  O         38.0290   36.2580    0.4610 O.2   165  GLY165     -0.2717
     34  N         36.2180   35.2150    1.3100 N.am  166  LYS166     -0.1965
     35  CA        35.7260   36.4260    1.9780 C.3   166  LYS166      0.1728
     36  C         35.3740   36.1670    3.4530 C.2   166  LYS166      0.2616
     37  O         35.7640   36.9440    4.3290 O.2   166  LYS166     -0.2715
     38  CB        34.5210   37.0060    1.2220 C.3   166  LYS166      0.0311
     39  CG        34.8670   37.7010   -0.0780 C.3   166  LYS166      0.0038
     40  CD        33.6260   38.2450   -0.7480 C.3   166  LYS166      0.0206
     41  CE        32.9510   37.2040   -1.6130 C.3   166  LYS166      0.1093
     42  NZ        31.6340   37.7150   -2.0710 N.3   166  LYS166     -0.1314
     43  N         34.6910   35.0630    3.7360 N.am  167  ALA167     -0.1963
     44  CA        34.3520   34.7030    5.1150 C.3   167  ALA167      0.1728
     45  C         34.5960   33.2320    5.3140 C.2   167  ALA167      0.2616
     46  O         34.4340   32.4380    4.3780 O.2   167  ALA167     -0.2715
     47  CB        32.8700   35.0450    5.4290 C.3   167  ALA167      0.0334
     48  N         34.9740   32.8640    6.5310 N.am  168  ALA168     -0.1977
     49  CA        35.1070   31.4610    6.8960 C.3   168  ALA168      0.1597
     50  C         33.7530   30.7710    6.9610 C.2   168  ALA168      0.2287
     51  O         32.7670   31.3570    7.4050 O.2   168  ALA168     -0.2864
     52  CB        35.8270   31.3200    8.2270 C.3   168  ALA168      0.0319
     53  N         35.7430   25.4860    5.9840 N.3   190  ASP190     -0.1239
     54  CA        36.9690   25.9630    6.6640 C.3   190  ASP190      0.1674
     55  C         37.1070   25.3660    8.0610 C.2   190  ASP190      0.2266
     56  O         38.2100   25.2390    8.5850 O.2   190  ASP190     -0.2867
     57  CB        36.9620   27.4770    6.7290 C.3   190  ASP190      0.1410
     58  CG        37.0340   28.1110    5.3490 C.2   190  ASP190      0.3668
     59  OD1       37.9510   27.7310    4.6040 O.co2 190  ASP190     -0.2456
     60  OD2       36.1890   28.9700    5.0180 O.co2 190  ASP190     -0.2456
     61  N         40.7310   23.9720    8.5450 N.3   211  ARG211     -0.1231
     62  CA        41.5310   24.1420    7.3160 C.3   211  ARG211      0.1694
     63  C         42.8520   24.8870    7.5740 C.2   211  ARG211      0.2592
     64  O         42.8900   25.8350    8.3610 O.2   211  ARG211     -0.2718
     65  CB        40.7130   24.8960    6.2650 C.3   211  ARG211      0.0321
     66  CG        41.5020   25.0910    4.9520 C.3   211  ARG211      0.0489
     67  CD        40.6690   25.7100    3.8250 C.3   211  ARG211      0.2205
     68  NE        39.5140   24.8810    3.4870 N.pl3 211  ARG211     -0.0865
     69  CZ        39.5610   23.8030    2.7090 C.cat 211  ARG211      0.5346
     70  NH1       40.7140   23.4100    2.1790 N.pl3 211  ARG211      0.1354
     71  NH2       38.4620   23.0960    2.4800 N.pl3 211  ARG211      0.1354
     72  N         43.9410   24.4720    6.9170 N.am  212  LYS212     -0.1966
     73  CA        45.2240   25.1610    7.0720 C.3   212  LYS212      0.1728
     74  C         45.0910   26.6870    6.8930 C.2   212  LYS212      0.2616
     75  O         44.3930   27.1600    5.9960 O.2   212  LYS212     -0.2715
     76  CB        46.2440   24.5850    6.0740 C.3   212  LYS212      0.0311
     77  CG        47.6270   25.2240    6.0740 C.3   212  LYS212      0.0038
     78  CD        48.4590   24.6740    4.9170 C.3   212  LYS212      0.0206
     79  CE        49.6900   25.5360    4.6030 C.3   212  LYS212      0.1093
     80  NZ        50.4180   25.0900    3.3670 N.3   212  LYS212     -0.1314
     81  N         45.7510   27.4260    7.7890 N.am  213  GLU213     -0.1963
     82  CA        45.7860   28.9090    7.8290 C.3   213  GLU213      0.1733
     83  C         44.5350   29.5250    8.4750 C.2   213  GLU213      0.2616
     84  O         44.4860   30.7270    8.6940 O.2   213  GLU213     -0.2715
     85  CB        46.0100   29.5220    6.4320 C.3   213  GLU213      0.0429
     86  CG        47.3430   29.0840    5.8170 C.3   213  GLU213      0.1163
     87  CD        47.8660   30.0120    4.7380 C.2   213  GLU213      0.3649
     88  OE1       48.1320   31.1970    5.0340 O.co2 213  GLU213     -0.2457
     89  OE2       48.0400   29.5380    3.5970 O.co2 213  GLU213     -0.2457
     90  N         43.5290   28.7100    8.7870 N.am  214  ALA214     -0.1977
     91  CA        42.4610   29.1680    9.6680 C.3   214  ALA214      0.1597
     92  C         42.9820   29.2470   11.1050 C.2   214  ALA214      0.2287
     93  O         43.4180   28.2350   11.6600 O.2   214  ALA214     -0.2864
     94  CB        41.2510   28.2270    9.5840 C.3   214  ALA214      0.0319
@<TRIPOS>BOND
     1    42    41    1
     2    41    40    1
     3    40    39    1
     4    30    31    1
     5    39    38    1
     6    31    32    1
     7    33    32    2
     8    32    34   am
     9    38    35    1
    10    34    35    1
    11    35    36    1
    12    70    69    1
    13    71    69    1
    14    69    68    2
    15    80    79    1
    16    36    43   am
    17    36    37    2
    18    68    67    1
    19    89    87   ar
    20    43    44    1
    21    67    66    1
    22    46    45    2
    23    79    78    1
    24    59    58   ar
    25    87    88   ar
    26    87    86    1
    27    78    77    1
    28    66    65    1
    29    60    58   ar
    30    44    45    1
    31    44    47    1
    32    45    48   am
    33    58    57    1
    34    86    85    1
    35    53    54    1
    36    75    74    2
    37    77    76    1
    38    76    73    1
    39    65    62    1
    40    85    82    1
    41    48    49    1
    42    54    57    1
    43    54    55    1
    44    74    73    1
    45    74    81   am
    46    49    50    1
    47    49    52    1
    48    72    73    1
    49    72    63   am
    50    50    51    2
    51    62    63    1
    52    62    61    1
    53    63    64    2
    54    81    82    1
    55    82    83    1
    56    55    56    2
    57    21    20    1
    58    83    84    2
    59    83    90   am
    60    19    20    1
    61    19    18    1
    62    90    91    1
    63    22    23    1
    64    25    24    2
    65    16    15    2
    66    23    24    1
    67    23    26    1
    68    12    11    1
    69    94    91    1
    70    91    92    1
    71    18    17    1
    72    17    14    1
    73    15    14    1
    74    28    26    1
    75    14    13    1
    76    26    27    1
    77    11     9   ar
    78    11    10   ar
    79     9     7   ar
    80    92    93    2
    81    10     8   ar
    82    27    29    1
    83     7     6   ar
    84     8     6   ar
    85     6     5    1
    86     5     2    1
    87     4     3    2
    88     2     3    1
    89     2     1    1
