@<TRIPOS>MOLECULE
tmp/4r5gB00.pdb
 136 127 0 0 0
SMALL
GASTEIGER

@<TRIPOS>ATOM
      1  N        -15.2790   61.5990   -0.4510 N.3    15  LEU15      -0.1231
      2  CA       -16.2920   60.5650   -0.6460 C.3    15  LEU15       0.1693
      3  C        -16.1360   59.3670    0.2850 C.2    15  LEU15       0.2592
      4  O        -16.8380   58.3650    0.1230 O.2    15  LEU15      -0.2718
      5  CB       -16.2700   60.0850   -2.0990 C.3    15  LEU15       0.0284
      6  CG       -16.6380   61.1250   -3.1610 C.3    15  LEU15       0.0019
      7  CD1      -16.4330   60.5590   -4.5580 C.3    15  LEU15       0.0001
      8  CD2      -18.0700   61.6010   -2.9760 C.3    15  LEU15       0.0001
      9  N        -15.2080   59.4500    1.2360 N.am   16  ASP16      -0.1960
     10  CA       -14.7140   58.2390    1.8790 C.3    16  ASP16       0.1840
     11  C        -15.5100   57.8480    3.1160 C.2    16  ASP16       0.2622
     12  O        -15.3500   58.4220    4.1910 O.2    16  ASP16      -0.2715
     13  CB       -13.2490   58.4400    2.2730 C.3    16  ASP16       0.1450
     14  CG       -13.0090   59.7680    2.9720 C.2    16  ASP16       0.3671
     15  OD1      -13.9940   60.5020    3.1930 O.co2  16  ASP16      -0.2456
     16  OD2      -11.8450   60.0770    3.3050 O.co2  16  ASP16      -0.2456
     17  N        -16.3260   56.8140    2.9430 N.am   17  VAL17      -0.1963
     18  CA       -17.1580   56.2380    3.9890 C.3    17  VAL17       0.1727
     19  C        -17.5360   54.8580    3.4530 C.2    17  VAL17       0.2617
     20  O        -17.5070   54.6550    2.2410 O.2    17  VAL17      -0.2715
     21  CB       -18.4180   57.1300    4.2340 C.3    17  VAL17       0.0290
     22  CG1      -19.6750   56.3090    4.4890 C.3    17  VAL17       0.0023
     23  CG2      -18.1830   58.1080    5.3770 C.3    17  VAL17       0.0023
     24  N        -17.8900   53.9060    4.3110 N.am   18  THR18      -0.1937
     25  CA       -18.4820   52.6730    3.7970 C.3    18  THR18       0.2013
     26  C        -19.9880   52.8650    3.6440 C.2    18  THR18       0.2484
     27  O        -20.6930   53.1100    4.6210 O.2    18  THR18      -0.2729
     28  CB       -18.1600   51.4290    4.6610 C.3    18  THR18       0.1807
     29  OG1      -19.0290   50.3510    4.2890 O.3    18  THR18      -0.2208
     30  CG2      -18.3540   51.7230    6.1210 C.3    18  THR18       0.0379
     31  N        -20.4780   52.7840    2.4000 N.am   19  PRO19      -0.2715
     32  CA       -21.8890   53.0130    2.0770 C.3    19  PRO19       0.1536
     33  C        -22.7680   51.8890    2.6000 C.2    19  PRO19       0.2598
     34  O        -23.9360   52.1080    2.9230 O.2    19  PRO19      -0.2715
     35  CB       -21.8910   53.0000    0.5490 C.3    19  PRO19       0.0310
     36  CG       -20.7570   52.1140    0.1860 C.3    19  PRO19       0.0237
     37  CD       -19.7000   52.3690    1.2200 C.3    19  PRO19       0.0939
     38  N        -22.1960   50.6950    2.6890 N.am   20  LEU20      -0.1978
     39  CA       -22.9430   49.5150    3.0890 C.3    20  LEU20       0.1596
     40  C        -22.2190   48.8240    4.2330 C.2    20  LEU20       0.2287
     41  O        -20.9890   48.7560    4.2470 O.2    20  LEU20      -0.2864
     42  CB       -23.0810   48.5630    1.9010 C.3    20  LEU20       0.0297
     43  CG       -24.4320   47.8780    1.6980 C.3    20  LEU20       0.0022
     44  CD1      -25.5380   48.9110    1.6080 C.3    20  LEU20       0.0001
     45  CD2      -24.4070   47.0140    0.4470 C.3    20  LEU20       0.0001
     46  N        -20.4510   46.2010    6.1110 N.3    22  LEU22      -0.1245
     47  CA       -19.7240   45.0110    5.7080 C.3    22  LEU22       0.1561
     48  C        -19.7830   43.9920    6.8240 C.2    22  LEU22       0.2260
     49  O        -19.6490   44.3380    7.9980 O.2    22  LEU22      -0.2867
     50  CB       -18.2740   45.3510    5.3880 C.3    22  LEU22       0.0270
     51  CG       -18.0860   46.2680    4.1830 C.3    22  LEU22       0.0019
     52  CD1      -16.6610   46.7550    4.1260 C.3    22  LEU22       0.0001
     53  CD2      -18.4520   45.5450    2.9000 C.3    22  LEU22       0.0001
     54  N        -13.1810   55.9250    7.0570 N.3    41  ILE41      -0.1245
     55  CA       -12.0600   55.0480    6.7540 C.3    41  ILE41       0.1561
     56  C        -10.7550   55.8530    6.7800 C.2    41  ILE41       0.2260
     57  O        -10.7740   57.0740    6.6150 O.2    41  ILE41      -0.2867
     58  CB       -12.2730   54.2870    5.4190 C.3    41  ILE41       0.0252
     59  CG1      -12.6690   55.2490    4.3040 C.3    41  ILE41       0.0019
     60  CG2      -13.3490   53.2200    5.5800 C.3    41  ILE41       0.0019
     61  CD1      -11.4930   55.8670    3.6030 C.3    41  ILE41       0.0001
     62  N        -22.1640   42.1450    2.0490 N.3    65  GLN65      -0.1245
     63  CA       -22.4670   43.5480    2.2830 C.3    65  GLN65       0.1566
     64  C        -23.9650   43.8150    2.1800 C.2    65  GLN65       0.2260
     65  O        -24.6100   43.4170    1.2100 O.2    65  GLN65      -0.2867
     66  CB       -21.7090   44.4210    1.2860 C.3    65  GLN65       0.0367
     67  CG       -21.8070   43.9310   -0.1520 C.3    65  GLN65       0.0905
     68  CD       -21.2060   44.9060   -1.1430 C.2    65  GLN65       0.2608
     69  OE1      -20.6120   45.9150   -0.7600 O.2    65  GLN65      -0.2717
     70  NE2      -21.3530   44.6070   -2.4270 N.am   65  GLN65      -0.0878
     71  N         -9.7740   48.1770    6.2150 N.3   101  ILE101     -0.1245
     72  CA        -9.9720   49.0240    5.0470 C.3   101  ILE101      0.1561
     73  C         -9.0270   50.2110    5.1620 C.2   101  ILE101      0.2260
     74  O         -9.0070   50.8810    6.1950 O.2   101  ILE101     -0.2867
     75  CB       -11.4070   49.5570    4.9610 C.3   101  ILE101      0.0252
     76  CG1      -12.3870   48.4180    4.6920 C.3   101  ILE101      0.0019
     77  CG2      -11.5130   50.5800    3.8570 C.3   101  ILE101      0.0019
     78  CD1      -13.7800   48.8910    4.3940 C.3   101  ILE101      0.0001
     79  N         -7.1360   53.8230    3.1580 N.3   103  ALA103     -0.1231
     80  CA        -7.5990   55.0620    2.5300 C.3   103  ALA103      0.1694
     81  C         -8.2460   54.8320    1.1680 C.2   103  ALA103      0.2592
     82  O         -9.0760   55.6250    0.7220 O.2   103  ALA103     -0.2718
     83  CB        -6.4510   56.0520    2.4080 C.3   103  ALA103      0.0304
     84  N         -7.8540   53.7470    0.5090 N.am  104  ASP104     -0.1960
     85  CA        -8.4560   53.3530   -0.7560 C.3   104  ASP104      0.1840
     86  C         -9.7530   52.6050   -0.4620 C.2   104  ASP104      0.2622
     87  O        -10.2310   52.6080    0.6690 O.2   104  ASP104     -0.2715
     88  CB        -7.4970   52.4610   -1.5420 C.3   104  ASP104      0.1450
     89  CG        -6.0480   52.8880   -1.3900 C.2   104  ASP104      0.3671
     90  OD1       -5.7930   54.1040   -1.2660 O.co2 104  ASP104     -0.2456
     91  OD2       -5.1650   52.0040   -1.3860 O.co2 104  ASP104     -0.2456
     92  N        -10.3360   51.9770   -1.4750 N.am  105  GLY105     -0.1954
     93  CA       -11.5250   51.1730   -1.2570 C.3   105  GLY105      0.1869
     94  C        -11.1470   49.7670   -0.8350 C.2   105  GLY105      0.2309
     95  O        -11.9920   48.9770   -0.4130 O.2   105  GLY105     -0.2863
     96  N        -11.6890   44.2850   -2.7060 N.3   125  LYS125     -0.1231
     97  CA       -12.0260   45.6940   -2.5600 C.3   125  LYS125      0.1693
     98  C        -13.5080   45.9440   -2.3760 C.2   125  LYS125      0.2592
     99  O        -14.3270   45.4520   -3.1530 O.2   125  LYS125     -0.2718
    100  CB       -11.5450   46.4740   -3.7810 C.3   125  LYS125      0.0285
    101  CG       -12.0630   45.9130   -5.0910 C.3   125  LYS125      0.0035
    102  CD       -11.5720   46.7080   -6.2730 C.3   125  LYS125      0.0206
    103  CE       -10.0670   46.6260   -6.3810 C.3   125  LYS125      0.1093
    104  NZ        -9.5990   47.1790   -7.6760 N.3   125  LYS125     -0.1314
    105  N        -13.8400   46.6420   -1.2920 N.am  126  ALA126     -0.1966
    106  CA       -15.0290   47.4910   -1.2320 C.3   126  ALA126      0.1728
    107  C        -16.2790   46.9010   -1.8620 C.2   126  ALA126      0.2616
    108  O        -16.6520   45.7600   -1.6010 O.2   126  ALA126     -0.2715
    109  CB       -14.7300   48.8370   -1.8610 C.3   126  ALA126      0.0334
    110  N        -16.9120   47.7110   -2.7050 N.am  127  SER127     -0.1950
    111  CA       -18.0280   47.2700   -3.5220 C.3   127  SER127      0.1924
    112  C        -17.5480   46.4220   -4.6950 C.2   127  SER127      0.2314
    113  O        -16.3820   46.4770   -5.0900 O.2   127  SER127     -0.2863
    114  CB       -18.8330   48.4700   -4.0260 C.3   127  SER127      0.2116
    115  OG       -19.5490   49.0840   -2.9670 O.3   127  SER127     -0.2180
    116  N        -18.3090   46.5440   -8.1720 N.3   129  GLY129     -0.1225
    117  CA       -19.3300   47.3120   -7.4820 C.3   129  GLY129      0.1811
    118  C        -20.7380   47.2530   -8.0390 C.2   129  GLY129      0.2280
    119  O        -21.0720   46.4160   -8.8780 O.2   129  GLY129     -0.2866
    120  N        -25.2900   53.3470   -7.4680 N.3   132  GLU132     -0.1245
    121  CA       -25.8590   53.9780   -6.2780 C.3   132  GLU132      0.1567
    122  C        -27.3680   53.7680   -6.1440 C.2   132  GLU132      0.2260
    123  O        -27.8970   53.7120   -5.0300 O.2   132  GLU132     -0.2867
    124  CB       -25.5430   55.4750   -6.2730 C.3   132  GLU132      0.0388
    125  CG       -25.9810   56.2140   -5.0250 C.3   132  GLU132      0.1160
    126  CD       -25.2340   55.7710   -3.7810 C.2   132  GLU132      0.3649
    127  OE1      -24.0580   55.3540   -3.9100 O.co2 132  GLU132     -0.2457
    128  OE2      -25.8290   55.8360   -2.6800 O.co2 132  GLU132     -0.2457
    129  N        -27.8230   50.4170   -4.3510 N.3   135  ILE135     -0.1245
    130  CA       -27.4970   50.5600   -2.9320 C.3   135  ILE135      0.1561
    131  C        -28.6060   51.2650   -2.1620 C.2   135  ILE135      0.2260
    132  O        -29.0750   50.7680   -1.1330 O.2   135  ILE135     -0.2867
    133  CB       -26.1740   51.3210   -2.7380 C.3   135  ILE135      0.0252
    134  CG1      -24.9950   50.4430   -3.1640 C.3   135  ILE135      0.0019
    135  CG2      -26.0070   51.7600   -1.2860 C.3   135  ILE135      0.0019
    136  CD1      -23.6470   51.1010   -3.0090 C.3   135  ILE135      0.0001
@<TRIPOS>BOND
     1   119   118    2
     2   116   117    1
     3   118   117    1
     4   104   103    1
     5   120   121    1
     6   103   102    1
     7   121   124    1
     8   121   122    1
     9   124   125    1
    10   102   101    1
    11   122   123    2
    12   101   100    1
    13   113   112    2
    14   125   126    1
    15   112   111    1
    16     7     6    1
    17   129   130    1
    18   114   111    1
    19   114   115    1
    20   127   126   ar
    21   126   128   ar
    22   100    97    1
    23   111   110    1
    24   134   136    1
    25   134   133    1
    26     6     8    1
    27     6     5    1
    28    99    98    2
    29   130   133    1
    30   130   131    1
    31   133   135    1
    32    96    97    1
    33   110   107   am
    34    97    98    1
    35    70    68   am
    36    98   105   am
    37   131   132    2
    38     5     2    1
    39   107   108    2
    40   107   106    1
    41   109   106    1
    42    88    89    1
    43    88    85    1
    44    92    93    1
    45    92    86   am
    46    89    91   ar
    47    89    90   ar
    48   105   106    1
    49    93    94    1
    50    68    69    2
    51    68    67    1
    52    94    95    2
    53    85    86    1
    54    85    84    1
    55     2     1    1
    56     2     3    1
    57    86    87    2
    58    67    66    1
    59     4     3    2
    60    36    35    1
    61    36    37    1
    62     3     9   am
    63    45    43    1
    64    84    81   am
    65    35    32    1
    66    82    81    2
    67    81    80    1
    68    65    64    2
    69    37    31    1
    70     9    10    1
    71    66    63    1
    72    44    43    1
    73    43    42    1
    74    10    13    1
    75    10    11    1
    76    42    39    1
    77    62    63    1
    78    32    31    1
    79    32    33    1
    80    64    63    1
    81    20    19    2
    82    13    14    1
    83    31    26   am
    84    83    80    1
    85    80    79    1
    86    33    38   am
    87    33    34    2
    88    38    39    1
    89    53    51    1
    90    17    11   am
    91    17    18    1
    92    14    15   ar
    93    14    16   ar
    94    39    40    1
    95    11    12    2
    96    19    18    1
    97    19    24   am
    98    61    59    1
    99    26    25    1
   100    26    27    2
   101    25    24    1
   102    25    28    1
   103    77    75    1
   104    18    21    1
   105    52    51    1
   106    51    50    1
   107    40    41    2
   108    21    22    1
   109    21    23    1
   110    29    28    1
   111    59    58    1
   112    78    76    1
   113    28    30    1
   114    76    75    1
   115    75    72    1
   116    72    73    1
   117    72    71    1
   118    73    74    2
   119    50    47    1
   120    58    60    1
   121    58    55    1
   122    47    46    1
   123    47    48    1
   124    57    56    2
   125    55    56    1
   126    55    54    1
   127    48    49    2
