@<TRIPOS>MOLECULE
tmp/4r5hA00.pdb
 129 119 0 0 0
SMALL
GASTEIGER

@<TRIPOS>ATOM
      1  N         -8.9920    1.9140    6.4130 N.3    72  GLY72      -0.1210
      2  CA        -8.8380    2.7830    5.2470 C.3    72  GLY72       0.1956
      3  C         -8.9780    4.2400    5.6300 C.2    72  GLY72       0.2612
      4  O         -9.6530    4.5620    6.6040 O.2    72  GLY72      -0.2717
      5  N         -8.3110    5.0980    4.8620 N.am   73  SER73      -0.1952
      6  CA        -8.1830    6.5410    5.1240 C.3    73  SER73       0.1924
      7  C         -9.4910    7.2660    5.3570 C.2    73  SER73       0.2314
      8  O         -9.6020    8.0890    6.2840 O.2    73  SER73      -0.2863
      9  CB        -7.4800    7.2250    3.9400 C.3    73  SER73       0.2116
     10  OG        -6.0860    7.1140    4.0930 O.3    73  SER73      -0.2180
     11  N         -3.8370    3.3160   11.7000 N.3    93  ASN93      -0.1225
     12  CA        -2.9560    2.6840   10.7350 C.3    93  ASN93       0.1785
     13  C         -2.8370    3.4060    9.3830 C.2    93  ASN93       0.2598
     14  O         -1.8260    3.2540    8.6500 O.2    93  ASN93      -0.2718
     15  CB        -3.4300    1.2600   10.5180 C.3    93  ASN93       0.1169
     16  CG        -2.3100    0.2740   10.5460 C.2    93  ASN93       0.2627
     17  OD1       -1.3780    0.3790   11.3560 O.2    93  ASN93      -0.2716
     18  ND2       -2.3890   -0.7090    9.6630 N.am   93  ASN93      -0.0877
     19  N         -3.8420    4.2110    9.0590 N.am   94  THR94      -0.1939
     20  CA        -3.9590    4.8280    7.7310 C.3    94  THR94       0.2028
     21  C         -3.0620    6.0450    7.5450 C.2    94  THR94       0.2642
     22  O         -2.4960    6.5750    8.5090 O.2    94  THR94      -0.2714
     23  CB        -5.4080    5.2870    7.4510 C.3    94  THR94       0.1808
     24  OG1       -5.6480    6.5160    8.1460 O.3    94  THR94      -0.2208
     25  CG2       -6.4250    4.2620    7.8870 C.3    94  THR94       0.0379
     26  N         -2.9670    6.5160    6.3030 N.am   95  SER95      -0.1949
     27  CA        -2.1980    7.7160    5.9850 C.3    95  SER95       0.1924
     28  C         -2.8500    9.0220    6.4400 C.2    95  SER95       0.2314
     29  O         -2.1860   10.0690    6.4340 O.2    95  SER95      -0.2863
     30  CB        -1.9110    7.8090    4.4770 C.3    95  SER95       0.2116
     31  OG        -3.1120    7.9080    3.7160 O.3    95  SER95      -0.2180
     32  N         -1.2650   11.2350    9.3480 N.3    98  ARG98      -0.1245
     33  CA         0.1730   11.1040    9.5840 C.3    98  ARG98       0.1563
     34  C          0.9240   12.4120    9.5470 C.2    98  ARG98       0.2260
     35  O          1.8850   12.5810   10.3000 O.2    98  ARG98      -0.2867
     36  CB         0.8090   10.1610    8.5600 C.3    98  ARG98       0.0307
     37  CG         0.3430    8.7360    8.6940 C.3    98  ARG98       0.0489
     38  CD         1.1570    7.8250    7.7940 C.3    98  ARG98       0.2205
     39  NE         0.6250    6.4780    7.8510 N.pl3  98  ARG98      -0.0865
     40  CZ         0.5380    5.6450    6.8150 C.cat  98  ARG98       0.5346
     41  NH1        1.0130    5.9890    5.6230 N.pl3  98  ARG98       0.1354
     42  NH2        0.0080    4.4440    6.9900 N.pl3  98  ARG98       0.1354
     43  N          3.5270    4.2710    7.4340 N.3   126  ASN126     -0.1225
     44  CA         3.4930    3.2790    6.3980 C.3   126  ASN126      0.1785
     45  C          4.4210    2.1030    6.7230 C.2   126  ASN126      0.2597
     46  O          5.5130    2.3050    7.2640 O.2   126  ASN126     -0.2718
     47  CB         3.9340    3.9830    5.1070 C.3   126  ASN126      0.1169
     48  CG         3.8920    3.0790    3.9090 C.2   126  ASN126      0.2627
     49  OD1        4.9320    2.6140    3.4400 O.2   126  ASN126     -0.2716
     50  ND2        2.6890    2.8040    3.4150 N.am  126  ASN126     -0.0877
     51  N          4.0280    0.8890    6.3230 N.am  127  CYS127     -0.1970
     52  CA         4.8110   -0.3230    6.6060 C.3   127  CYS127      0.1712
     53  C          6.2380   -0.1890    6.1150 C.2   127  CYS127      0.2296
     54  O          7.1720   -0.4370    6.8660 O.2   127  CYS127     -0.2864
     55  CB         4.1720   -1.5720    5.9640 C.3   127  CYS127      0.0983
     56  SG         3.4200   -1.2900    4.3410 S.3   127  CYS127     -0.0798
     57  N          7.8710   -5.0400   -2.3740 N.3   154  GLN154     -0.1245
     58  CA         6.7400   -5.0190   -1.4320 C.3   154  GLN154      0.1566
     59  C          5.7190   -6.1380   -1.7020 C.2   154  GLN154      0.2260
     60  O          5.4120   -6.4190   -2.8490 O.2   154  GLN154     -0.2867
     61  CB         6.0800   -3.6290   -1.4300 C.3   154  GLN154      0.0367
     62  CG         6.9210   -2.6030   -0.6950 C.3   154  GLN154      0.0905
     63  CD         6.3100   -1.2070   -0.6600 C.2   154  GLN154      0.2608
     64  OE1        6.8990   -0.2550   -1.1720 O.2   154  GLN154     -0.2717
     65  NE2        5.1300   -1.0790   -0.0550 N.am  154  GLN154     -0.0878
     66  N          0.0740   -5.8990    1.4790 N.3   158  GLY158     -0.1210
     67  CA         0.0640   -4.4540    1.7160 C.3   158  GLY158      0.1956
     68  C         -1.1290   -3.7650    1.0630 C.2   158  GLY158      0.2611
     69  O         -1.5570   -2.7140    1.5260 O.2   158  GLY158     -0.2717
     70  N         -1.6810   -4.3950    0.0320 N.am  159  ALA159     -0.1979
     71  CA        -2.8470   -3.8770   -0.6940 C.3   159  ALA159      0.1597
     72  C         -4.1780   -4.5060   -0.2610 C.2   159  ALA159      0.2287
     73  O         -5.2060   -4.2300   -0.8760 O.2   159  ALA159     -0.2864
     74  CB        -2.6330   -4.0650   -2.1890 C.3   159  ALA159      0.0319
     75  N          2.8800    1.7530   -6.5600 N.3   208  ILE208     -0.1231
     76  CA         2.1530    1.4260   -5.3420 C.3   208  ILE208      0.1692
     77  C          1.5150    2.7450   -4.9800 C.2   208  ILE208      0.2592
     78  O          2.1910    3.7640   -4.9700 O.2   208  ILE208     -0.2718
     79  CB         3.1050    0.9050   -4.2200 C.3   208  ILE208      0.0266
     80  CG1        3.7520   -0.4160   -4.6730 C.3   208  ILE208      0.0019
     81  CG2        2.3690    0.7660   -2.8840 C.3   208  ILE208      0.0020
     82  CD1        4.4950   -1.2080   -3.6270 C.3   208  ILE208      0.0001
     83  N          0.2210    2.7020   -4.6850 N.am  209  ASP209     -0.1974
     84  CA        -0.6350    3.8730   -4.5850 C.3   209  ASP209      0.1709
     85  C         -0.6780    4.6000   -5.9400 C.2   209  ASP209      0.2293
     86  O         -0.1580    4.0950   -6.9390 O.2   209  ASP209     -0.2864
     87  CB        -0.1630    4.7820   -3.4530 C.3   209  ASP209      0.1436
     88  CG        -1.3130    5.4750   -2.7420 C.2   209  ASP209      0.3671
     89  OD1       -2.2110    6.0250   -3.4170 O.co2 209  ASP209     -0.2456
     90  OD2       -1.3210    5.4610   -1.5060 O.co2 209  ASP209     -0.2456
     91  N          3.0860    6.3930   -2.3940 N.3   219  GLU219     -0.1245
     92  CA         3.8440    5.4830   -1.5190 C.3   219  GLU219      0.1567
     93  C          5.2870    5.9800   -1.3710 C.2   219  GLU219      0.2260
     94  O          5.8240    6.0050   -0.2750 O.2   219  GLU219     -0.2867
     95  CB         3.8310    4.0460   -2.0450 C.3   219  GLU219      0.0388
     96  CG         4.5260    3.0190   -1.1290 C.3   219  GLU219      0.1160
     97  CD         3.6950    2.6020    0.0690 C.2   219  GLU219      0.3649
     98  OE1        2.6040    3.1730    0.2850 O.co2 219  GLU219     -0.2457
     99  OE2        4.1390    1.6810    0.8070 O.co2 219  GLU219     -0.2457
    100  N          5.2470    9.1780    0.7110 N.3   222  LYS222     -0.1245
    101  CA         5.0400    8.8370    2.1210 C.3   222  LYS222      0.1561
    102  C          6.3600    8.4730    2.7950 C.2   222  LYS222      0.2260
    103  O          6.6570    8.9930    3.8560 O.2   222  LYS222     -0.2867
    104  CB         4.0400    7.7110    2.2890 C.3   222  LYS222      0.0271
    105  CG         2.5980    8.1460    2.0290 C.3   222  LYS222      0.0035
    106  CD         1.6460    7.0010    2.2980 C.3   222  LYS222      0.0206
    107  CE         0.6010    6.7840    1.2190 C.3   222  LYS222      0.1093
    108  NZ         0.2360    5.3330    1.1730 N.3   222  LYS222     -0.1314
    109  N          5.8700   -3.4310   -6.3120 N.3   244  ARG244     -0.1245
    110  CA         5.1780   -4.6380   -5.8690 C.3   244  ARG244      0.1563
    111  C          5.7600   -5.8850   -6.5430 C.2   244  ARG244      0.2260
    112  O          5.9770   -5.8810   -7.7340 O.2   244  ARG244     -0.2867
    113  CB         3.6910   -4.5400   -6.1930 C.3   244  ARG244      0.0307
    114  CG         2.8460   -5.5640   -5.4460 C.3   244  ARG244      0.0489
    115  CD         2.5150   -5.0870   -4.0410 C.3   244  ARG244      0.2205
    116  NE         1.7150   -3.8720   -4.0160 N.pl3 244  ARG244     -0.0865
    117  CZ         1.3460   -3.2290   -2.9090 C.cat 244  ARG244      0.5346
    118  NH1        1.6700   -3.7060   -1.7190 N.pl3 244  ARG244      0.1354
    119  NH2        0.6010   -2.1340   -2.9870 N.pl3 244  ARG244      0.1354
    120  N          7.7270   -7.1780    3.4970 N.3   251  HIS251     -0.1241
    121  CA         8.4170   -6.2910    2.5710 C.3   251  HIS251      0.1621
    122  C          9.9350   -6.4060    2.7100 C.2   251  HIS251      0.2264
    123  O         10.4680   -6.6300    3.8090 O.2   251  HIS251     -0.2867
    124  CB         8.0530   -4.8300    2.8540 C.3   251  HIS251      0.0745
    125  CG         6.6140   -4.4890    2.6320 C.ar  251  HIS251      0.0817
    126  ND1        5.7750   -5.2270    1.8360 N.ar  251  HIS251     -0.2268
    127  CD2        5.8780   -3.4420    3.0730 C.ar  251  HIS251      0.1154
    128  CE1        4.5810   -4.6670    1.8060 C.ar  251  HIS251      0.1986
    129  NE2        4.6170   -3.5800    2.5500 N.ar  251  HIS251     -0.2212
@<TRIPOS>BOND
     1   112   111    2
     2    86    85    2
     3    75    76    1
     4   111   110    1
     5   109   110    1
     6   113   110    1
     7   113   114    1
     8    85    84    1
     9   114   115    1
    10    76    77    1
    11    76    79    1
    12    77    78    2
    13    77    83   am
    14    83    84    1
    15    80    79    1
    16    80    82    1
    17    84    87    1
    18    79    81    1
    19   115   116    1
    20   116   117    2
    21    87    88    1
    22    89    88   ar
    23   119   117    1
    24   117   118    1
    25    60    59    2
    26    88    90   ar
    27    91    92    1
    28    57    58    1
    29    74    71    1
    30    95    92    1
    31    95    96    1
    32    59    58    1
    33    92    93    1
    34    58    61    1
    35    61    62    1
    36    93    94    2
    37    64    63    2
    38    96    97    1
    39    73    72    2
    40    62    63    1
    41    71    72    1
    42    71    70    1
    43    63    65   am
    44    70    68   am
    45    97    98   ar
    46    97    99   ar
    47   100   101    1
    48    68    69    2
    49    68    67    1
    50   108   107    1
    51   107   106    1
    52    66    67    1
    53   128   126   ar
    54   128   129   ar
    55   126   125   ar
    56   105   104    1
    57   105   106    1
    58   101   104    1
    59   101   102    1
    60   129   127   ar
    61   121   122    1
    62   121   124    1
    63   121   120    1
    64   125   124    1
    65   125   127   ar
    66   122   123    2
    67   102   103    2
    68    50    48   am
    69    49    48    2
    70    31    30    1
    71    48    47    1
    72     9    10    1
    73     9     6    1
    74    56    55    1
    75    30    27    1
    76     5     6    1
    77     5     3   am
    78    47    44    1
    79     6     7    1
    80     2     3    1
    81     2     1    1
    82     7     8    2
    83    41    40    1
    84     3     4    2
    85    55    52    1
    86    27    26    1
    87    27    28    1
    88    53    52    1
    89    53    54    2
    90    26    21   am
    91    51    52    1
    92    51    45   am
    93    44    45    1
    94    44    43    1
    95    29    28    2
    96    45    46    2
    97    40    42    1
    98    40    39    2
    99    23    20    1
   100    23    25    1
   101    23    24    1
   102    21    20    1
   103    21    22    2
   104    20    19    1
   105    38    39    1
   106    38    37    1
   107    36    37    1
   108    36    33    1
   109    14    13    2
   110    19    13   am
   111    32    33    1
   112    13    12    1
   113    34    33    1
   114    34    35    2
   115    18    16   am
   116    15    16    1
   117    15    12    1
   118    16    17    2
   119    12    11    1
