@<TRIPOS>MOLECULE
tmp/4r5iA00.pdb
 220 211 0 0 0
SMALL
GASTEIGER

@<TRIPOS>ATOM
      1  N        -15.9730  -22.2410  -19.9340 N.3    18  ILE18      -0.1231
      2  CA       -15.1950  -21.4800  -20.8980 C.3    18  ILE18       0.1692
      3  C        -16.0700  -20.4600  -21.5830 C.2    18  ILE18       0.2592
      4  O        -17.2950  -20.5750  -21.5770 O.2    18  ILE18      -0.2718
      5  CB       -14.5570  -22.3970  -21.9780 C.3    18  ILE18       0.0266
      6  CG1      -15.6450  -23.0850  -22.7970 C.3    18  ILE18       0.0019
      7  CG2      -13.6440  -23.4390  -21.2700 C.3    18  ILE18       0.0020
      8  CD1      -15.0430  -23.8100  -24.1240 C.3    18  ILE18       0.0001
      9  N        -15.4530  -19.4410  -22.1650 N.am   19  GLU19      -0.1966
     10  CA       -16.2450  -18.4790  -22.9230 C.3    19  GLU19       0.1733
     11  C        -16.6680  -19.0560  -24.2930 C.2    19  GLU19       0.2617
     12  O        -15.8370  -19.6330  -25.0460 O.2    19  GLU19      -0.2715
     13  CB       -15.4470  -17.1800  -23.1040 C.3    19  GLU19       0.0429
     14  CG       -16.1790  -16.1260  -23.9590 C.3    19  GLU19       0.1163
     15  CD       -15.5200  -14.7650  -23.8590 C.2    19  GLU19       0.3649
     16  OE1      -14.4380  -14.6770  -23.2410 O.co2  19  GLU19      -0.2457
     17  OE2      -16.0900  -13.7890  -24.3720 O.co2  19  GLU19      -0.2457
     18  N        -17.9520  -18.9200  -24.6330 N.am   20  THR20      -0.1937
     19  CA       -18.3880  -19.3440  -25.9530 C.3    20  THR20       0.2028
     20  C        -19.0430  -18.1620  -26.6580 C.2    20  THR20       0.2642
     21  O        -19.2210  -17.0440  -26.0790 O.2    20  THR20      -0.2714
     22  CB       -19.3420  -20.5540  -25.8840 C.3    20  THR20       0.1808
     23  OG1      -20.4710  -20.2020  -25.0600 O.3    20  THR20      -0.2208
     24  CG2      -18.6420  -21.7520  -25.2380 C.3    20  THR20       0.0379
     25  N        -19.4030  -18.4180  -27.9190 N.am   21  MET21      -0.1962
     26  CA       -19.8610  -17.3560  -28.8220 C.3    21  MET21       0.1736
     27  C        -20.9310  -16.4870  -28.2200 C.2    21  MET21       0.2617
     28  O        -21.9230  -17.0110  -27.6660 O.2    21  MET21      -0.2715
     29  CB       -20.4650  -17.9810  -30.0850 C.3    21  MET21       0.0427
     30  CG       -20.6370  -16.9180  -31.2100 C.3    21  MET21       0.0599
     31  SD       -21.1550  -17.7770  -32.7260 S.3    21  MET21      -0.1393
     32  CE       -22.6900  -18.4380  -32.1510 C.3    21  MET21       0.0692
     33  N        -20.7570  -15.1680  -28.3460 N.am   22  GLY22      -0.1955
     34  CA       -21.6580  -14.2180  -27.7190 C.3    22  GLY22       0.1869
     35  C        -21.1160  -13.6690  -26.3920 C.2    22  GLY22       0.2309
     36  O        -21.7200  -12.7800  -25.7870 O.2    22  GLY22      -0.2863
     37  N        -20.4720  -15.5070  -23.6500 N.3    24  VAL24      -0.1231
     38  CA       -21.2400  -16.0620  -22.5500 C.3    24  VAL24       0.1692
     39  C        -20.3490  -17.1320  -21.8860 C.2    24  VAL24       0.2592
     40  O        -19.4780  -17.6960  -22.5320 O.2    24  VAL24      -0.2718
     41  CB       -22.5930  -16.5780  -23.0690 C.3    24  VAL24       0.0266
     42  CG1      -22.4390  -17.8550  -23.8740 C.3    24  VAL24       0.0020
     43  CG2      -23.5440  -16.7970  -21.9570 C.3    24  VAL24       0.0020
     44  N        -20.4940  -17.3710  -20.5880 N.am   25  MET25      -0.1965
     45  CA       -19.7560  -18.4980  -19.9960 C.3    25  MET25       0.1736
     46  C        -20.5840  -19.7560  -20.1250 C.2    25  MET25       0.2617
     47  O        -21.7300  -19.7700  -19.6940 O.2    25  MET25      -0.2715
     48  CB       -19.4690  -18.2440  -18.5070 C.3    25  MET25       0.0427
     49  CG       -18.7160  -19.4090  -17.8080 C.3    25  MET25       0.0599
     50  SD       -18.4660  -19.0010  -16.0760 S.3    25  MET25      -0.1393
     51  CE       -18.4150  -20.6640  -15.3490 C.3    25  MET25       0.0692
     52  N        -20.0070  -20.8160  -20.6850 N.am   26  THR26      -0.1951
     53  CA       -20.6430  -22.1280  -20.7280 C.3    26  THR26       0.1897
     54  C        -19.9710  -23.0250  -19.6630 C.2    26  THR26       0.2313
     55  O        -18.7420  -23.1630  -19.6420 O.2    26  THR26      -0.2863
     56  CB       -20.4510  -22.7480  -22.1180 C.3    26  THR26       0.1794
     57  OG1      -21.1230  -21.9300  -23.1060 O.3    26  THR26      -0.2208
     58  CG2      -20.9800  -24.1600  -22.1700 C.3    26  THR26       0.0378
     59  N        -17.0110  -31.3770  -22.7050 N.3    41  GLN41      -0.1231
     60  CA       -18.0520  -31.1290  -23.6980 C.3    41  GLN41       0.1698
     61  C        -17.3640  -30.8850  -25.0190 C.2    41  GLN41       0.2592
     62  O        -16.2160  -30.4360  -25.0310 O.2    41  GLN41      -0.2718
     63  CB       -18.8280  -29.8500  -23.4120 C.3    41  GLN41       0.0381
     64  CG       -19.8220  -29.9000  -22.2690 C.3    41  GLN41       0.0905
     65  CD       -20.6450  -28.6320  -22.2880 C.2    41  GLN41       0.2608
     66  OE1      -21.0220  -28.1550  -23.3640 O.2    41  GLN41      -0.2717
     67  NE2      -20.8670  -28.0430  -21.1120 N.am   41  GLN41      -0.0878
     68  N        -18.0910  -31.1110  -26.1070 N.am   42  VAL42      -0.1966
     69  CA       -17.5710  -30.8610  -27.4590 C.3    42  VAL42       0.1727
     70  C        -18.0670  -29.5280  -27.9540 C.2    42  VAL42       0.2616
     71  O        -19.2620  -29.2290  -27.8800 O.2    42  VAL42      -0.2715
     72  CB       -18.0020  -31.9740  -28.3920 C.3    42  VAL42       0.0290
     73  CG1      -17.4060  -31.7670  -29.8200 C.3    42  VAL42       0.0023
     74  CG2      -17.4550  -33.2450  -27.8490 C.3    42  VAL42       0.0023
     75  N        -17.1450  -28.7380  -28.5120 N.am   43  PHE43      -0.1960
     76  CA       -17.4890  -27.4560  -29.0980 C.3    43  PHE43       0.1771
     77  C        -17.0430  -27.4790  -30.5370 C.2    43  PHE43       0.2620
     78  O        -16.3200  -28.3910  -30.9690 O.2    43  PHE43      -0.2715
     79  CB       -16.7400  -26.3510  -28.3470 C.3    43  PHE43       0.0574
     80  CG       -17.1150  -26.2820  -26.8870 C.ar   43  PHE43      -0.0200
     81  CD1      -18.1510  -25.4570  -26.4710 C.ar   43  PHE43      -0.0042
     82  CD2      -16.4750  -27.0760  -25.9460 C.ar   43  PHE43      -0.0042
     83  CE1      -18.5310  -25.3960  -25.1100 C.ar   43  PHE43      -0.0003
     84  CE2      -16.8620  -27.0450  -24.5820 C.ar   43  PHE43      -0.0003
     85  CZ       -17.8850  -26.1920  -24.1820 C.ar   43  PHE43      -0.0000
     86  N        -17.4570  -26.4800  -31.3170 N.am   44  SER44      -0.1936
     87  CA       -16.9160  -26.4310  -32.6520 C.3    44  SER44       0.2055
     88  C        -16.5980  -25.0050  -33.0520 C.2    44  SER44       0.2644
     89  O        -16.5950  -24.0930  -32.2110 O.2    44  SER44      -0.2714
     90  CB       -17.9000  -27.0490  -33.6350 C.3    44  SER44       0.2130
     91  OG       -17.2820  -27.1890  -34.9210 O.3    44  SER44      -0.2179
     92  N        -16.3400  -24.8210  -34.3450 N.am   45  THR45      -0.1936
     93  CA       -15.8850  -23.5290  -34.8310 C.3    45  THR45       0.2028
     94  C        -17.0990  -22.7100  -35.1730 C.2    45  THR45       0.2642
     95  O        -18.1580  -23.2700  -35.5160 O.2    45  THR45      -0.2714
     96  CB       -15.0780  -23.6870  -36.0840 C.3    45  THR45       0.1808
     97  OG1      -15.7830  -24.5910  -36.9620 O.3    45  THR45      -0.2208
     98  CG2      -13.6870  -24.2780  -35.7250 C.3    45  THR45       0.0379
     99  N        -16.9310  -21.3960  -35.1020 N.am   46  ALA46      -0.1963
    100  CA       -18.0220  -20.4750  -35.3870 C.3    46  ALA46       0.1728
    101  C        -18.0620  -20.0790  -36.8690 C.2    46  ALA46       0.2616
    102  O        -19.1090  -19.6260  -37.3620 O.2    46  ALA46      -0.2715
    103  CB       -17.8740  -19.2450  -34.5050 C.3    46  ALA46       0.0334
    104  N        -16.9560  -20.2450  -37.6070 N.am   47  GLU47      -0.1977
    105  CA       -16.9830  -19.8720  -39.0510 C.3    47  GLU47       0.1602
    106  C        -16.4420  -20.9910  -39.8990 C.2    47  GLU47       0.2287
    107  O        -15.6230  -21.7610  -39.4140 O.2    47  GLU47      -0.2864
    108  CB       -16.1400  -18.6090  -39.3070 C.3    47  GLU47       0.0415
    109  CG       -16.5710  -17.4010  -38.4430 C.3    47  GLU47       0.1163
    110  CD       -17.7670  -16.6510  -39.0200 C.2    47  GLU47       0.3649
    111  OE1      -18.3220  -17.0720  -40.0790 O.co2  47  GLU47      -0.2457
    112  OE2      -18.1620  -15.6300  -38.4070 O.co2  47  GLU47      -0.2457
    113  N        -12.2530  -21.8070  -40.1840 N.3    50  GLN50      -0.1231
    114  CA       -11.6240  -21.2010  -39.0040 C.3    50  GLN50       0.1698
    115  C        -10.4690  -22.1090  -38.5990 C.2    50  GLN50       0.2593
    116  O        -10.6290  -23.3500  -38.5180 O.2    50  GLN50      -0.2718
    117  CB       -12.6700  -21.0740  -37.9030 C.3    50  GLN50       0.0381
    118  CG       -12.1250  -20.5880  -36.5820 C.3    50  GLN50       0.0905
    119  CD       -13.2600  -20.3890  -35.6020 C.2    50  GLN50       0.2608
    120  OE1      -14.4270  -20.3190  -36.0060 O.2    50  GLN50      -0.2717
    121  NE2      -12.9370  -20.3280  -34.3180 N.am   50  GLN50      -0.0878
    122  N         -9.2880  -21.5320  -38.3660 N.am   51  SER51      -0.1938
    123  CA        -8.0980  -22.3850  -38.1590 C.3    51  SER51       0.2055
    124  C         -7.6980  -22.5300  -36.6990 C.2    51  SER51       0.2643
    125  O         -6.7660  -23.2980  -36.3840 O.2    51  SER51      -0.2714
    126  CB        -6.9010  -21.8230  -38.9490 C.3    51  SER51       0.2130
    127  OG        -6.6530  -20.5180  -38.4480 O.3    51  SER51      -0.2179
    128  N         -8.3740  -21.8110  -35.8080 N.am   52  ALA52      -0.1963
    129  CA        -8.0050  -21.8220  -34.3790 C.3    52  ALA52       0.1728
    130  C         -9.2110  -21.4990  -33.5630 C.2    52  ALA52       0.2616
    131  O        -10.1520  -20.8620  -34.0570 O.2    52  ALA52      -0.2715
    132  CB        -6.8360  -20.7940  -34.0500 C.3    52  ALA52       0.0334
    133  N         -9.2050  -21.9510  -32.3030 N.am   53  VAL53      -0.1963
    134  CA       -10.2070  -21.5110  -31.3410 C.3    53  VAL53       0.1727
    135  C         -9.4660  -21.0810  -30.0880 C.2    53  VAL53       0.2617
    136  O         -8.3970  -21.6290  -29.7570 O.2    53  VAL53      -0.2715
    137  CB       -11.2170  -22.6330  -30.9550 C.3    53  VAL53       0.0290
    138  CG1      -12.0770  -23.0480  -32.1900 C.3    53  VAL53       0.0023
    139  CG2      -10.4920  -23.9010  -30.3990 C.3    53  VAL53       0.0023
    140  N        -10.0460  -20.1130  -29.3860 N.am   54  THR54      -0.1937
    141  CA        -9.4870  -19.6540  -28.1040 C.3    54  THR54       0.2028
    142  C        -10.2740  -20.2880  -26.9910 C.2    54  THR54       0.2642
    143  O        -11.5270  -20.2720  -26.9950 O.2    54  THR54      -0.2714
    144  CB        -9.5500  -18.1170  -27.9910 C.3    54  THR54       0.1808
    145  OG1       -8.7960  -17.5590  -29.0650 O.3    54  THR54      -0.2208
    146  CG2       -8.9070  -17.6550  -26.6960 C.3    54  THR54       0.0379
    147  N         -9.5530  -20.8920  -26.0430 N.am   55  ILE55      -0.1977
    148  CA       -10.1850  -21.4920  -24.8850 C.3    55  ILE55       0.1596
    149  C         -9.8840  -20.5850  -23.7160 C.2    55  ILE55       0.2287
    150  O         -8.7350  -20.4980  -23.2500 O.2    55  ILE55      -0.2864
    151  CB        -9.5830  -22.8910  -24.6180 C.3    55  ILE55       0.0276
    152  CG1       -9.6260  -23.7200  -25.9230 C.3    55  ILE55       0.0022
    153  CG2      -10.2910  -23.5430  -23.4560 C.3    55  ILE55       0.0022
    154  CD1      -11.0650  -24.0090  -26.4340 C.3    55  ILE55       0.0001
    155  N         -4.7530  -21.0280  -27.1100 N.3    75  ASN75      -0.1240
    156  CA        -5.3890  -21.3350  -28.3800 C.3    75  ASN75       0.1653
    157  C         -5.1550  -22.7730  -28.7450 C.2    75  ASN75       0.2266
    158  O         -4.0840  -23.3150  -28.4570 O.2    75  ASN75      -0.2867
    159  CB        -4.8140  -20.4700  -29.4940 C.3    75  ASN75       0.1155
    160  CG        -5.3470  -19.0410  -29.4630 C.2    75  ASN75       0.2627
    161  OD1       -6.3510  -18.7480  -28.8280 O.2    75  ASN75      -0.2716
    162  ND2       -4.6910  -18.1610  -30.1900 N.am   75  ASN75      -0.0877
    163  N        -18.0440  -24.7950  -40.8560 N.3    84  ARG84      -0.1231
    164  CA       -18.3710  -24.5330  -39.4600 C.3    84  ARG84       0.1694
    165  C        -19.1170  -25.7350  -38.8830 C.2    84  ARG84       0.2592
    166  O        -19.9650  -26.3360  -39.5870 O.2    84  ARG84      -0.2718
    167  CB       -19.2980  -23.3460  -39.4690 C.3    84  ARG84       0.0321
    168  CG       -20.1040  -23.1610  -38.2270 C.3    84  ARG84       0.0489
    169  CD       -20.8670  -21.8620  -38.4260 C.3    84  ARG84       0.2205
    170  NE       -22.2380  -21.9160  -37.9350 N.pl3  84  ARG84      -0.0865
    171  CZ       -22.8700  -20.8700  -37.4130 C.cat  84  ARG84       0.5346
    172  NH1      -22.2290  -19.7110  -37.2980 N.pl3  84  ARG84       0.1354
    173  NH2      -24.1240  -20.9900  -37.0000 N.pl3  84  ARG84       0.1354
    174  N        -18.8200  -26.1050  -37.6390 N.am   85  GLY85      -0.1957
    175  CA       -19.5150  -27.1920  -36.9780 C.3    85  GLY85       0.1869
    176  C        -18.8830  -28.5600  -37.2490 C.2    85  GLY85       0.2309
    177  O        -19.2270  -29.5640  -36.6050 O.2    85  GLY85      -0.2863
    178  N        -14.4410  -31.0130  -34.0590 N.3    88  GLN88      -0.1231
    179  CA       -15.0300  -31.4670  -32.8240 C.3    88  GLN88       0.1698
    180  C        -14.0320  -31.2290  -31.7110 C.2    88  GLN88       0.2592
    181  O        -13.1430  -32.0830  -31.4360 O.2    88  GLN88      -0.2718
    182  CB       -15.3740  -32.9610  -32.9100 C.3    88  GLN88       0.0381
    183  CG       -16.4740  -33.2020  -33.9050 C.3    88  GLN88       0.0905
    184  CD       -16.9690  -34.6280  -33.9030 C.2    88  GLN88       0.2608
    185  OE1      -17.9450  -34.9280  -33.2280 O.2    88  GLN88      -0.2717
    186  NE2      -16.3390  -35.4980  -34.6960 N.am   88  GLN88      -0.0878
    187  N        -14.1410  -30.0530  -31.0970 N.am   89  ILE89      -0.1980
    188  CA       -13.1290  -29.6230  -30.1300 C.3    89  ILE89       0.1595
    189  C        -13.6020  -30.0580  -28.7740 C.2    89  ILE89       0.2287
    190  O        -14.4780  -29.4260  -28.1660 O.2    89  ILE89      -0.2864
    191  CB       -12.9480  -28.1240  -30.1210 C.3    89  ILE89       0.0276
    192  CG1      -12.6950  -27.5550  -31.5530 C.3    89  ILE89       0.0022
    193  CG2      -11.7530  -27.7680  -29.2290 C.3    89  ILE89       0.0022
    194  CD1      -11.6250  -28.3470  -32.3280 C.3    89  ILE89       0.0001
    195  N        -28.2870  -13.8470  -21.0050 N.3   147  GLU147     -0.1245
    196  CA       -28.0100  -15.2000  -21.4530 C.3   147  GLU147      0.1567
    197  C        -29.0640  -15.6010  -22.4640 C.2   147  GLU147      0.2260
    198  O        -28.7360  -16.1660  -23.5170 O.2   147  GLU147     -0.2867
    199  CB       -28.0310  -16.2180  -20.3200 C.3   147  GLU147      0.0388
    200  CG       -27.5220  -17.5820  -20.7820 C.3   147  GLU147      0.1160
    201  CD       -27.6120  -18.6340  -19.6780 C.2   147  GLU147      0.3649
    202  OE1      -26.8050  -19.5830  -19.6890 O.co2 147  GLU147     -0.2457
    203  OE2      -28.4740  -18.5090  -18.7920 O.co2 147  GLU147     -0.2457
    204  N        -28.4850  -16.5640  -26.3530 N.3   151  GLN151     -0.1245
    205  CA       -28.9010  -17.8910  -26.8310 C.3   151  GLN151      0.1566
    206  C        -29.7830  -17.7130  -28.0460 C.2   151  GLN151      0.2260
    207  O        -29.6780  -18.4770  -29.0130 O.2   151  GLN151     -0.2867
    208  CB       -29.6980  -18.6440  -25.7270 C.3   151  GLN151      0.0367
    209  CG       -28.8250  -19.2660  -24.7090 C.3   151  GLN151      0.0905
    210  CD       -29.5990  -19.7830  -23.5250 C.2   151  GLN151      0.2608
    211  OE1      -30.8210  -19.5280  -23.3450 O.2   151  GLN151     -0.2717
    212  NE2      -28.8910  -20.5040  -22.6810 N.am  151  GLN151     -0.0878
    213  N        -27.7880  -16.6170  -31.0420 N.3   154  ASN154     -0.1240
    214  CA       -27.0170  -17.7680  -31.5610 C.3   154  ASN154      0.1653
    215  C        -27.8870  -18.7680  -32.2870 C.2   154  ASN154      0.2266
    216  O        -27.4640  -19.3580  -33.2890 O.2   154  ASN154     -0.2867
    217  CB       -26.2250  -18.4660  -30.4210 C.3   154  ASN154      0.1155
    218  CG       -25.0830  -17.5950  -29.9130 C.2   154  ASN154      0.2627
    219  OD1      -24.6720  -16.6370  -30.5870 O.2   154  ASN154     -0.2716
    220  ND2      -24.5350  -17.9390  -28.7480 N.am  154  ASN154     -0.0877
@<TRIPOS>BOND
     1   163   164    1
     2   113   114    1
     3   111   110   ar
     4   106   107    2
     5   106   105    1
     6   166   165    2
     7   167   164    1
     8   167   168    1
     9   164   165    1
    10   108   105    1
    11   108   109    1
    12   105   104    1
    13   110   109    1
    14   110   112   ar
    15   114   115    1
    16   114   117    1
    17   126   127    1
    18   126   123    1
    19   165   174   am
    20   115   116    2
    21   115   122   am
    22   169   168    1
    23   169   170    1
    24   122   123    1
    25   123   124    1
    26   170   171    2
    27   117   118    1
    28   174   175    1
    29   104   101   am
    30   171   172    1
    31   171   173    1
    32   102   101    2
    33   176   175    1
    34   176   177    2
    35    97    96    1
    36   101   100    1
    37   124   125    2
    38   124   128   am
    39   118   119    1
    40    96    98    1
    41    96    93    1
    42   120   119    2
    43   128   129    1
    44   119   121   am
    45    95    94    2
    46   100    99    1
    47   100   103    1
    48    94    99   am
    49    94    93    1
    50    91    90    1
    51    93    92    1
    52   186   184   am
    53   129   132    1
    54   129   130    1
    55    92    88   am
    56   178   179    1
    57   131   130    2
    58   183   184    1
    59   183   182    1
    60   184   185    2
    61    90    87    1
    62   130   133   am
    63   216   215    2
    64    88    87    1
    65    88    89    2
    66   182   179    1
    67   179   180    1
    68    31    32    1
    69    31    30    1
    70    87    86    1
    71   194   192    1
    72   133   134    1
    73   215   214    1
    74   138   137    1
    75   180   181    2
    76   180   187   am
    77   214   213    1
    78   214   217    1
    79   192   191    1
    80   134   137    1
    81   134   135    1
    82    86    77   am
    83    30    29    1
    84   187   188    1
    85    78    77    2
    86   137   139    1
    87   219   218    2
    88    77    76    1
    89   217   218    1
    90   162   160   am
    91   188   191    1
    92   188   189    1
    93   191   193    1
    94   135   136    2
    95   135   140   am
    96    29    26    1
    97   218   220   am
    98    73    72    1
    99   159   160    1
   100   159   156    1
   101   160   161    2
   102   140   141    1
   103    76    75    1
   104    76    79    1
   105   145   144    1
   106   207   206    2
   107    26    27    1
   108    26    25    1
   109   189   190    2
   110   157   158    2
   111   157   156    1
   112    75    70   am
   113    72    74    1
   114    72    69    1
   115   156   155    1
   116    79    80    1
   117    33    27   am
   118    33    34    1
   119    27    28    2
   120   141   144    1
   121   141   142    1
   122   206   205    1
   123   144   146    1
   124    70    71    2
   125    70    69    1
   126    25    20   am
   127    34    35    1
   128    69    68    1
   129   143   142    2
   130   142   147   am
   131    80    81   ar
   132    80    82   ar
   133   205   204    1
   134   205   208    1
   135    20    21    2
   136    20    19    1
   137    81    83   ar
   138   154   152    1
   139    35    36    2
   140    68    61   am
   141   147   148    1
   142    19    22    1
   143    19    18    1
   144    82    84   ar
   145   152   151    1
   146    22    24    1
   147    22    23    1
   148   208   209    1
   149    83    85   ar
   150    12    11    2
   151    62    61    2
   152    61    60    1
   153   148   151    1
   154   148   149    1
   155   209   210    1
   156    18    11   am
   157   151   153    1
   158    84    85   ar
   159    17    15   ar
   160    11    10    1
   161     8     6    1
   162    14    15    1
   163    14    13    1
   164    42    41    1
   165    15    16   ar
   166   149   150    2
   167    60    63    1
   168    60    59    1
   169    37    38    1
   170   210   211    2
   171   210   212   am
   172   198   197    2
   173    63    64    1
   174    66    65    2
   175    57    56    1
   176    13    10    1
   177    41    38    1
   178    41    43    1
   179    10     9    1
   180     6     5    1
   181    38    39    1
   182    40    39    2
   183   197   196    1
   184    65    64    1
   185    65    67   am
   186    58    56    1
   187     9     3   am
   188    56    53    1
   189     5     7    1
   190     5     2    1
   191    39    44   am
   192     3     4    2
   193     3     2    1
   194   196   195    1
   195   196   199    1
   196     2     1    1
   197   200   199    1
   198   200   201    1
   199    53    52    1
   200    53    54    1
   201    52    46   am
   202    44    45    1
   203    46    45    1
   204    46    47    2
   205    45    48    1
   206   202   201   ar
   207   201   203   ar
   208    54    55    2
   209    48    49    1
   210    49    50    1
   211    50    51    1
