@<TRIPOS>MOLECULE
tmp/4r5mB01.pdb
 108 98 0 0 0
SMALL
GASTEIGER

@<TRIPOS>ATOM
      1  N        151.8410  -41.9540  -54.5420 N.3    12  VAL12      -0.1245
      2  CA       150.5530  -42.6320  -54.4090 C.3    12  VAL12       0.1561
      3  C        150.7670  -43.9300  -53.6470 C.2    12  VAL12       0.2260
      4  O        150.0280  -44.2330  -52.7160 O.2    12  VAL12      -0.2867
      5  CB       149.8970  -42.9010  -55.7800 C.3    12  VAL12       0.0252
      6  CG1      148.6860  -43.8200  -55.6440 C.3    12  VAL12       0.0019
      7  CG2      149.4820  -41.5910  -56.4350 C.3    12  VAL12       0.0019
      8  N        148.9890  -52.1580  -58.2810 N.3    70  THR70      -0.1203
      9  CA       150.0140  -51.3060  -58.8940 C.3    70  THR70       0.1994
     10  C        149.6770  -49.8060  -58.9070 C.2    70  THR70       0.2618
     11  O        148.6000  -49.4030  -59.3430 O.2    70  THR70      -0.2717
     12  CB       150.3660  -51.7550  -60.3330 C.3    70  THR70       0.1784
     13  OG1      151.1890  -50.7600  -60.9540 O.3    70  THR70      -0.2211
     14  CG2      149.1390  -51.9640  -61.1760 C.3    70  THR70       0.0376
     15  N        150.6250  -49.0010  -58.4190 N.am   71  CYS71      -0.1969
     16  CA       150.5780  -47.5460  -58.5300 C.3    71  CYS71       0.1712
     17  C        151.7470  -47.0440  -59.3850 C.2    71  CYS71       0.2296
     18  O        152.1570  -45.8950  -59.2470 O.2    71  CYS71      -0.2864
     19  CB       150.6730  -46.9060  -57.1350 C.3    71  CYS71       0.0983
     20  SG       149.4430  -47.5120  -55.9660 S.3    71  CYS71      -0.0798
     21  N        152.0910  -46.8280  -62.7940 N.3    73  GLY73      -0.1210
     22  CA       151.6620  -45.9060  -63.8420 C.3    73  GLY73       0.1956
     23  C        151.2690  -46.5760  -65.1400 C.2    73  GLY73       0.2612
     24  O        151.4610  -47.7810  -65.3170 O.2    73  GLY73      -0.2717
     25  N        150.7390  -45.7730  -66.0580 N.am   74  GLY74      -0.1956
     26  CA       150.1470  -46.2690  -67.2980 C.3    74  GLY74       0.1869
     27  C        151.1210  -46.9260  -68.2600 C.2    74  GLY74       0.2309
     28  O        150.7840  -47.9210  -68.9020 O.2    74  GLY74      -0.2863
     29  N        144.6060  -51.5400  -60.1340 N.3    95  ASP95      -0.1225
     30  CA       145.4510  -50.5300  -60.7810 C.3    95  ASP95       0.1805
     31  C        144.9140  -49.1010  -60.5800 C.2    95  ASP95       0.2598
     32  O        143.7230  -48.8620  -60.7290 O.2    95  ASP95      -0.2718
     33  CB       145.4900  -50.8450  -62.2820 C.3    95  ASP95       0.1424
     34  CG       146.6420  -50.1830  -63.0130 C.2    95  ASP95       0.3668
     35  OD1      147.3040  -49.2670  -62.4780 O.co2  95  ASP95      -0.2456
     36  OD2      146.8850  -50.5960  -64.1610 O.co2  95  ASP95      -0.2456
     37  N        145.7990  -48.1550  -60.2700 N.am   96  ALA96      -0.1966
     38  CA       145.4130  -46.7320  -60.2170 C.3    96  ALA96       0.1728
     39  C        145.4570  -46.0350  -61.5870 C.2    96  ALA96       0.2616
     40  O        144.8390  -44.9810  -61.7780 O.2    96  ALA96      -0.2715
     41  CB       146.2930  -45.9880  -59.2240 C.3    96  ALA96       0.0334
     42  N        146.1750  -46.6270  -62.5410 N.am   97  ALA97      -0.1963
     43  CA       146.4170  -46.0060  -63.8390 C.3    97  ALA97       0.1728
     44  C        145.1710  -45.9180  -64.7100 C.2    97  ALA97       0.2616
     45  O        144.2340  -46.6920  -64.5490 O.2    97  ALA97      -0.2715
     46  CB       147.5100  -46.7730  -64.5750 C.3    97  ALA97       0.0334
     47  N        145.1790  -44.9730  -65.6460 N.am   98  SER98      -0.1950
     48  CA       144.0540  -44.7650  -66.5660 C.3    98  SER98       0.1924
     49  C        143.9400  -45.8310  -67.6630 C.2    98  SER98       0.2314
     50  O        142.8550  -46.0370  -68.2160 O.2    98  SER98      -0.2863
     51  CB       144.1530  -43.3840  -67.2290 C.3    98  SER98       0.2116
     52  OG       145.3560  -43.2460  -67.9720 O.3    98  SER98      -0.2180
     53  N        140.8900  -48.3110  -67.6670 N.3   101  ARG101     -0.1245
     54  CA       139.5870  -47.8460  -67.1610 C.3   101  ARG101      0.1563
     55  C        138.4260  -48.1100  -68.1170 C.2   101  ARG101      0.2260
     56  O        137.3540  -48.5330  -67.6900 O.2   101  ARG101     -0.2867
     57  CB       139.6230  -46.3480  -66.8360 C.3   101  ARG101      0.0307
     58  CG       140.3380  -46.0070  -65.5420 C.3   101  ARG101      0.0489
     59  CD       140.3300  -44.5070  -65.2940 C.3   101  ARG101      0.2205
     60  NE       141.2870  -44.1560  -64.2540 N.pl3 101  ARG101     -0.0865
     61  CZ       141.9390  -43.0020  -64.1640 C.cat 101  ARG101      0.5346
     62  NH1      141.7470  -42.0260  -65.0440 N.pl3 101  ARG101      0.1354
     63  NH2      142.7940  -42.8260  -63.1720 N.pl3 101  ARG101      0.1354
     64  N        139.5090  -41.6160  -62.3350 N.3   133  ASN133     -0.1225
     65  CA       140.2720  -40.3740  -62.2560 C.3   133  ASN133      0.1785
     66  C        139.9630  -39.6790  -60.9310 C.2   133  ASN133      0.2597
     67  O        138.8580  -39.8260  -60.4010 O.2   133  ASN133     -0.2718
     68  CB       139.9540  -39.4530  -63.4230 C.3   133  ASN133      0.1169
     69  CG       141.0360  -38.4240  -63.6450 C.2   133  ASN133      0.2627
     70  OD1      142.2160  -38.7720  -63.7710 O.2   133  ASN133     -0.2716
     71  ND2      140.6500  -37.1530  -63.6920 N.am  133  ASN133     -0.0877
     72  N        140.9350  -38.9350  -60.4050 N.am  134  CYS134     -0.1970
     73  CA       140.7940  -38.3000  -59.1040 C.3   134  CYS134      0.1712
     74  C        139.5640  -37.3970  -59.0410 C.2   134  CYS134      0.2296
     75  O        138.7990  -37.4740  -58.0830 O.2   134  CYS134     -0.2864
     76  CB       142.0710  -37.5320  -58.7100 C.3   134  CYS134      0.0983
     77  SG       142.8680  -36.5610  -60.0230 S.3   134  CYS134     -0.0798
     78  N        146.3860  -31.8080  -68.9000 N.3   230  ASP230     -0.1239
     79  CA       146.5090  -32.9800  -69.7930 C.3   230  ASP230      0.1674
     80  C        146.3530  -32.5980  -71.2740 C.2   230  ASP230      0.2266
     81  O        146.1620  -31.4270  -71.6090 O.2   230  ASP230     -0.2867
     82  CB       145.5260  -34.1010  -69.3950 C.3   230  ASP230      0.1410
     83  CG       146.1060  -35.5070  -69.5990 C.2   230  ASP230      0.3668
     84  OD1      146.9480  -35.7020  -70.5080 O.co2 230  ASP230     -0.2456
     85  OD2      145.7010  -36.4230  -68.8590 O.co2 230  ASP230     -0.2456
     86  N        137.5390  -37.0590  -69.2840 N.3   243  LYS243     -0.1245
     87  CA       137.4970  -38.2290  -68.3920 C.3   243  LYS243      0.1561
     88  C        136.2270  -38.2950  -67.5360 C.2   243  LYS243      0.2260
     89  O        135.6660  -39.3750  -67.3400 O.2   243  LYS243     -0.2867
     90  CB       138.7360  -38.2810  -67.4850 C.3   243  LYS243      0.0271
     91  CG       139.9960  -38.8280  -68.1480 C.3   243  LYS243      0.0035
     92  CD       141.0670  -39.1230  -67.1030 C.3   243  LYS243      0.0206
     93  CE       142.4880  -39.0310  -67.6390 C.3   243  LYS243      0.1093
     94  NZ       143.0120  -37.6340  -67.5340 N.3   243  LYS243     -0.1314
     95  N        143.0620  -35.5740  -52.9520 N.3   350  GLN350     -0.1245
     96  CA       143.3860  -36.2340  -54.2140 C.3   350  GLN350      0.1566
     97  C        144.0760  -37.5970  -54.0460 C.2   350  GLN350      0.2260
     98  O        143.9190  -38.4740  -54.8930 O.2   350  GLN350     -0.2867
     99  CB       144.2680  -35.3060  -55.0810 C.3   350  GLN350      0.0367
    100  CG       144.6560  -35.8830  -56.4370 C.3   350  GLN350      0.0905
    101  CD       145.9880  -36.6260  -56.4360 C.2   350  GLN350      0.2608
    102  OE1      146.9160  -36.2730  -55.7150 O.2   350  GLN350     -0.2717
    103  NE2      146.0900  -37.6380  -57.2660 N.am  350  GLN350     -0.0878
    104  N        142.9030  -41.5840  -55.2670 N.3   355  ALA355     -0.1245
    105  CA       143.9510  -42.4950  -55.7520 C.3   355  ALA355      0.1562
    106  C        144.0870  -43.8010  -54.9600 C.2   355  ALA355      0.2260
    107  O        143.7060  -44.8510  -55.4460 O.2   355  ALA355     -0.2867
    108  CB       145.2880  -41.7700  -55.8270 C.3   355  ALA355      0.0290
@<TRIPOS>BOND
     1    81    80    2
     2    80    79    1
     3    84    83   ar
     4    79    82    1
     5    79    78    1
     6    83    82    1
     7    83    85   ar
     8    86    87    1
     9    28    27    2
    10    87    88    1
    11    87    90    1
    12    27    26    1
    13    50    49    2
    14    91    90    1
    15    91    92    1
    16    55    56    2
    17    55    54    1
    18    52    51    1
    19    53    54    1
    20    49    48    1
    21    93    94    1
    22    93    92    1
    23    88    89    2
    24    26    25    1
    25    51    48    1
    26    54    57    1
    27    57    58    1
    28    48    47    1
    29    25    23   am
    30    47    44   am
    31    58    59    1
    32    24    23    2
    33    59    60    1
    34    23    22    1
    35    62    61    1
    36    44    45    2
    37    44    43    1
    38    46    43    1
    39    60    61    2
    40    61    63    1
    41    36    34   ar
    42    22    21    1
    43    43    42    1
    44    70    69    2
    45    71    69   am
    46    69    68    1
    47    68    65    1
    48    34    35   ar
    49    34    33    1
    50    42    39   am
    51    64    65    1
    52    33    30    1
    53    65    66    1
    54    40    39    2
    55    39    38    1
    56    14    12    1
    57    13    12    1
    58    66    72   am
    59    66    67    2
    60    30    31    1
    61    30    29    1
    62    32    31    2
    63    31    37   am
    64    72    73    1
    65    12     9    1
    66    37    38    1
    67    38    41    1
    68    77    76    1
    69    17    18    2
    70    17    16    1
    71    11    10    2
    72    73    74    1
    73    73    76    1
    74    74    75    2
    75    10     9    1
    76    10    15   am
    77     9     8    1
    78    16    15    1
    79    16    19    1
    80   103   101   am
    81    19    20    1
    82   100   101    1
    83   100    99    1
    84   101   102    2
    85     7     5    1
    86   108   105    1
    87     5     6    1
    88     5     2    1
    89   105   104    1
    90   105   106    1
    91   107   106    2
    92    99    96    1
    93    98    97    2
    94     1     2    1
    95     2     3    1
    96    96    97    1
    97    96    95    1
    98     3     4    2
