@<TRIPOS>MOLECULE
tmp/4r5nA00.pdb
 165 161 0 0 0
SMALL
GASTEIGER

@<TRIPOS>ATOM
      1  N         32.1910   23.9380   12.8800 N.3    13  GLY13      -0.1210
      2  CA        31.7070   23.5400   11.5620 C.3    13  GLY13       0.1956
      3  C         31.6750   22.0440   11.3050 C.2    13  GLY13       0.2612
      4  O         31.2950   21.6100   10.2170 O.2    13  GLY13      -0.2717
      5  N         32.0720   21.2540   12.3030 N.am   14  GLN14      -0.1965
      6  CA        32.2260   19.8050   12.1110 C.3    14  GLN14       0.1733
      7  C         31.3190   18.9550   13.0160 C.2    14  GLN14       0.2616
      8  O         31.4170   17.7250   13.0200 O.2    14  GLN14      -0.2715
      9  CB        33.7060   19.3990   12.2300 C.3    14  GLN14       0.0408
     10  CG        34.6170   20.1150   11.2200 C.3    14  GLN14       0.0908
     11  CD        36.0090   19.5060   11.1130 C.2    14  GLN14       0.2608
     12  OE1       36.5860   19.0660   12.1040 O.2    14  GLN14      -0.2717
     13  NE2       36.5640   19.5040    9.9030 N.am   14  GLN14      -0.0878
     14  N         30.4290   19.6240   13.7480 N.am   15  GLY15      -0.1955
     15  CA        29.4010   18.9700   14.5680 C.3    15  GLY15       0.1869
     16  C         29.8070   18.8300   16.0260 C.2    15  GLY15       0.2309
     17  O         30.9970   18.7290   16.3400 O.2    15  GLY15      -0.2863
     18  N         28.4220   12.0610   17.3200 N.3    32  LEU32      -0.1245
     19  CA        27.7770   13.2740   16.8130 C.3    32  LEU32       0.1561
     20  C         26.3360   13.3680   17.3020 C.2    32  LEU32       0.2260
     21  O         25.5590   12.4280   17.1210 O.2    32  LEU32      -0.2867
     22  CB        27.8010   13.2790   15.2740 C.3    32  LEU32       0.0270
     23  CG        27.0890   14.4230   14.5340 C.3    32  LEU32       0.0019
     24  CD1       27.8420   15.7380   14.6770 C.3    32  LEU32       0.0001
     25  CD2       26.9210   14.0690   13.0590 C.3    32  LEU32       0.0001
     26  N         22.8200   14.5860   16.7690 N.3    34  ASP34      -0.1239
     27  CA        22.1170   14.9610   15.5420 C.3    34  ASP34       0.1674
     28  C         20.5940   14.9430   15.6730 C.2    34  ASP34       0.2266
     29  O         19.9710   13.8960   15.5530 O.2    34  ASP34      -0.2867
     30  CB        22.5510   14.0440   14.3870 C.3    34  ASP34       0.1410
     31  CG        21.9790   14.4780   13.0420 C.2    34  ASP34       0.3668
     32  OD1       21.4080   15.5920   12.9480 O.co2  34  ASP34      -0.2456
     33  OD2       22.1170   13.7060   12.0670 O.co2  34  ASP34      -0.2456
     34  N         18.6540   16.0130   13.5220 N.3    36  GLY36      -0.1210
     35  CA        18.1280   15.9020   12.1550 C.3    36  GLY36       0.1956
     36  C         18.0750   14.5020   11.5570 C.2    36  GLY36       0.2612
     37  O         17.8430   14.3600   10.3540 O.2    36  GLY36      -0.2717
     38  N         18.3050   13.4770   12.3780 N.am   37  SER37      -0.1952
     39  CA        18.2720   12.0740   11.9140 C.3    37  SER37       0.1924
     40  C         17.8960   11.1370   13.0540 C.2    37  SER37       0.2314
     41  O         17.7870   11.5750   14.2000 O.2    37  SER37      -0.2863
     42  CB        19.6190   11.6590   11.3150 C.3    37  SER37       0.2116
     43  OG        20.5860   11.4800   12.3350 O.3    37  SER37      -0.2180
     44  N         22.3020    3.6210    3.9260 N.3    71  VAL71      -0.1231
     45  CA        21.7800    4.9740    4.1290 C.3    71  VAL71       0.1678
     46  C         22.4580    5.9620    3.1870 C.2    71  VAL71       0.2434
     47  O         23.5300    6.4970    3.4970 O.2    71  VAL71      -0.2733
     48  CB        21.9230    5.4300    5.6030 C.3    71  VAL71       0.0265
     49  CG1       21.3180    6.8170    5.8050 C.3    71  VAL71       0.0020
     50  CG2       21.2530    4.4310    6.5330 C.3    71  VAL71       0.0020
     51  N         21.8410    6.1910    2.0150 N.am   72  PRO72      -0.2718
     52  CA        22.3610    7.1570    1.0590 C.3    72  PRO72       0.1535
     53  C         21.8700    8.5740    1.3680 C.2    72  PRO72       0.2598
     54  O         20.8180    8.7570    1.9860 O.2    72  PRO72      -0.2715
     55  CB        21.7610    6.6750   -0.2670 C.3    72  PRO72       0.0310
     56  CG        20.4430    6.1090    0.1290 C.3    72  PRO72       0.0237
     57  CD        20.6610    5.4770    1.4880 C.3    72  PRO72       0.0939
     58  N         22.6430    9.5590    0.9330 N.am   73  TYR73      -0.1974
     59  CA        22.2650   10.9590    1.0370 C.3    73  TYR73       0.1639
     60  C         23.0310   11.7400   -0.0310 C.2    73  TYR73       0.2290
     61  O         23.8230   11.1640   -0.7810 O.2    73  TYR73      -0.2864
     62  CB        22.5570   11.4930    2.4530 C.3    73  TYR73       0.0560
     63  CG        23.9430   11.1570    2.9500 C.ar   73  TYR73      -0.0198
     64  CD1       25.0270   11.9800    2.6440 C.ar   73  TYR73      -0.0009
     65  CD2       24.1760   10.0100    3.7160 C.ar   73  TYR73      -0.0009
     66  CE1       26.3040   11.6810    3.0900 C.ar   73  TYR73       0.0417
     67  CE2       25.4520    9.7020    4.1690 C.ar   73  TYR73       0.0417
     68  CZ        26.5090   10.5390    3.8430 C.ar   73  TYR73       0.1957
     69  OH        27.7760   10.2500    4.2710 O.3    73  TYR73      -0.2866
     70  N         26.4140    5.8660    4.2640 N.3    78  TRP78      -0.1241
     71  CA        26.9890    4.9380    5.2240 C.3    78  TRP78       0.1605
     72  C         26.1830    3.6490    5.1690 C.2    78  TRP78       0.2264
     73  O         24.9930    3.6700    4.8560 O.2    78  TRP78      -0.2867
     74  CB        27.0940    5.5320    6.6420 C.3    78  TRP78       0.0550
     75  CG        25.8000    5.8340    7.3910 C.ar   78  TRP78       0.0003
     76  CD1       25.2360    7.0670    7.5870 C.ar   78  TRP78       0.0946
     77  CD2       24.9660    4.8980    8.0930 C.ar   78  TRP78       0.0152
     78  NE1       24.0900    6.9500    8.3440 N.ar   78  TRP78      -0.2442
     79  CE2       23.9010    5.6310    8.6630 C.ar   78  TRP78       0.0810
     80  CE3       25.0040    3.5060    8.2780 C.ar   78  TRP78       0.0012
     81  CZ2       22.8890    5.0240    9.4170 C.ar   78  TRP78       0.0191
     82  CZ3       23.9870    2.9000    9.0200 C.ar   78  TRP78       0.0001
     83  CH2       22.9470    3.6630    9.5840 C.ar   78  TRP78       0.0015
     84  N         32.2020    9.6850    2.2220 N.3   109  LYS109     -0.1231
     85  CA        31.9640   11.0720    2.6450 C.3   109  LYS109      0.1693
     86  C         30.9670   11.1590    3.8160 C.2   109  LYS109      0.2592
     87  O         30.0140   11.9470    3.8040 O.2   109  LYS109     -0.2718
     88  CB        31.5260   11.9330    1.4510 C.3   109  LYS109      0.0285
     89  CG        32.6450   12.1550    0.4360 C.3   109  LYS109      0.0035
     90  CD        32.1400   12.6840   -0.9000 C.3   109  LYS109      0.0206
     91  CE        31.7630   11.5620   -1.8640 C.3   109  LYS109      0.1093
     92  NZ        32.9210   10.7220   -2.2880 N.3   109  LYS109     -0.1314
     93  N         31.1950   10.3090    4.8130 N.am  110  PHE110     -0.1976
     94  CA        30.4500   10.3440    6.0560 C.3   110  PHE110      0.1639
     95  C         31.3360   10.9140    7.1580 C.2   110  PHE110      0.2290
     96  O         31.0790   12.0040    7.6630 O.2   110  PHE110     -0.2864
     97  CB        29.9200    8.9520    6.4210 C.3   110  PHE110      0.0560
     98  CG        29.1730    8.9130    7.7280 C.ar  110  PHE110     -0.0200
     99  CD1       27.9530    9.5620    7.8710 C.ar  110  PHE110     -0.0042
    100  CD2       29.7080    8.2470    8.8230 C.ar  110  PHE110     -0.0042
    101  CE1       27.2720    9.5330    9.0790 C.ar  110  PHE110     -0.0003
    102  CE2       29.0300    8.2050   10.0300 C.ar  110  PHE110     -0.0003
    103  CZ        27.8100    8.8510   10.1600 C.ar  110  PHE110     -0.0000
    104  N         34.4820   12.7660    8.9540 N.3   112  ILE112     -0.1245
    105  CA        35.1560   14.0250    8.6630 C.3   112  ILE112      0.1561
    106  C         36.5210   14.0030    9.3350 C.2   112  ILE112      0.2260
    107  O         36.6130   13.8390   10.5510 O.2   112  ILE112     -0.2867
    108  CB        34.3260   15.2380    9.1620 C.3   112  ILE112      0.0252
    109  CG1       33.0170   15.3620    8.3660 C.3   112  ILE112      0.0019
    110  CG2       35.1360   16.5320    9.0810 C.3   112  ILE112      0.0019
    111  CD1       32.0610   16.4170    8.8900 C.3   112  ILE112      0.0001
    112  N         34.8280   12.6500   15.9560 N.3   117  TRP117     -0.1241
    113  CA        33.7080   11.7320   16.2210 C.3   117  TRP117      0.1605
    114  C         33.7430   10.4760   15.3490 C.2   117  TRP117      0.2264
    115  O         34.2570   10.4940   14.2270 O.2   117  TRP117     -0.2867
    116  CB        32.3240   12.4330   16.2130 C.3   117  TRP117      0.0550
    117  CG        31.9680   13.2510   14.9900 C.ar  117  TRP117      0.0003
    118  CD1       32.0460   14.6080   14.8710 C.ar  117  TRP117      0.0946
    119  CD2       31.4340   12.7710   13.7450 C.ar  117  TRP117      0.0152
    120  NE1       31.6120   15.0070   13.6270 N.ar  117  TRP117     -0.2442
    121  CE2       31.2300   13.9020   12.9150 C.ar  117  TRP117      0.0810
    122  CE3       31.1190   11.5020   13.2450 C.ar  117  TRP117      0.0012
    123  CZ2       30.7320   13.7990   11.6070 C.ar  117  TRP117      0.0191
    124  CZ3       30.6190   11.4000   11.9420 C.ar  117  TRP117      0.0001
    125  CH2       30.4280   12.5460   11.1420 C.ar  117  TRP117      0.0015
    126  N         27.1930    8.5290   15.0250 N.3   120  ILE120     -0.1245
    127  CA        26.1330    9.5240   14.9790 C.3   120  ILE120      0.1561
    128  C         24.9730    9.0740   15.8640 C.2   120  ILE120      0.2260
    129  O         24.5900    7.8930   15.8670 O.2   120  ILE120     -0.2867
    130  CB        25.6670    9.7770   13.5140 C.3   120  ILE120      0.0252
    131  CG1       24.6470   10.9270   13.4430 C.3   120  ILE120      0.0019
    132  CG2       25.1450    8.4920   12.8660 C.3   120  ILE120      0.0019
    133  CD1       24.3330   11.3800   12.0230 C.3   120  ILE120      0.0001
    134  N         17.7650   21.5010   13.7150 N.3   223  ASP223     -0.1225
    135  CA        18.7470   20.4640   13.3410 C.3   223  ASP223      0.1805
    136  C         20.1680   20.7380   13.8380 C.2   223  ASP223      0.2598
    137  O         20.9160   21.4910   13.2110 O.2   223  ASP223     -0.2718
    138  CB        18.7590   20.2680   11.8130 C.3   223  ASP223      0.1424
    139  CG        19.6400   19.1150   11.3730 C.2   223  ASP223      0.3668
    140  OD1       20.0800   18.3300   12.2440 O.co2 223  ASP223     -0.2456
    141  OD2       19.8920   18.9850   10.1470 O.co2 223  ASP223     -0.2456
    142  N         20.5460   20.0890   14.9380 N.am  224  SER224     -0.1938
    143  CA        21.8990   20.2260   15.4940 C.3   224  SER224      0.2055
    144  C         22.9640   19.6430   14.5610 C.2   224  SER224      0.2644
    145  O         24.1480   19.9310   14.7120 O.2   224  SER224     -0.2714
    146  CB        21.9860   19.5530   16.8640 C.3   224  SER224      0.2130
    147  OG        21.8340   18.1430   16.7570 O.3   224  SER224     -0.2179
    148  N         22.5240   18.8350   13.5960 N.am  225  GLY225     -0.1939
    149  CA        23.4200   18.1900   12.6390 C.3   225  GLY225      0.2014
    150  C         23.6790   18.9760   11.3610 C.2   225  GLY225      0.2640
    151  O         24.2570   18.4520   10.4010 O.2   225  GLY225     -0.2714
    152  N         23.2540   20.2330   11.3430 N.am  226  THR226     -0.1936
    153  CA        23.5180   21.1260   10.2180 C.3   226  THR226      0.2028
    154  C         24.2070   22.3500   10.7820 C.2   226  THR226      0.2642
    155  O         23.7320   22.9150   11.7650 O.2   226  THR226     -0.2714
    156  CB        22.2140   21.5630    9.5140 C.3   226  THR226      0.1808
    157  OG1       21.6320   20.4380    8.8510 O.3   226  THR226     -0.2208
    158  CG2       22.4780   22.6810    8.4920 C.3   226  THR226      0.0379
    159  N         25.3290   22.7510   10.1840 N.am  227  THR227     -0.1950
    160  CA        26.0700   23.9180   10.6830 C.3   227  THR227      0.1897
    161  C         25.3060   25.2220   10.4630 C.2   227  THR227      0.2313
    162  O         25.1960   26.0580   11.3720 O.2   227  THR227     -0.2863
    163  CB        27.4590   24.0520   10.0080 C.3   227  THR227      0.1794
    164  OG1       28.2430   22.8850   10.2740 O.3   227  THR227     -0.2208
    165  CG2       28.2020   25.2860   10.5300 C.3   227  THR227      0.0378
@<TRIPOS>BOND
     1    92    91    1
     2    91    90    1
     3    90    89    1
     4    61    60    2
     5    55    56    1
     6    55    52    1
     7    60    59    1
     8    56    57    1
     9    89    88    1
    10    58    59    1
    11    58    53   am
    12    59    62    1
    13    52    53    1
    14    52    51    1
    15    53    54    2
    16    88    85    1
    17    57    51    1
    18    51    46   am
    19    84    85    1
    20    62    63    1
    21    64    63   ar
    22    64    66   ar
    23    85    86    1
    24    63    65   ar
    25    66    68   ar
    26    46    47    2
    27    46    45    1
    28    65    67   ar
    29    87    86    2
    30    86    93   am
    31    68    67   ar
    32    68    69    1
    33    44    45    1
    34    45    48    1
    35    70    71    1
    36    93    94    1
    37    73    72    2
    38    72    71    1
    39    71    74    1
    40    48    49    1
    41    48    50    1
    42    94    97    1
    43    94    95    1
    44    97    98    1
    45    74    75    1
    46    95    96    2
    47    75    76   ar
    48    75    77   ar
    49    76    78   ar
    50    98    99   ar
    51    98   100   ar
    52    99   101   ar
    53    77    80   ar
    54    77    79   ar
    55    80    82   ar
    56    78    79   ar
    57   109   111    1
    58   109   108    1
    59   158   156    1
    60    79    81   ar
    61   105   104    1
    62   105   108    1
    63   105   106    1
    64   100   102   ar
    65   157   156    1
    66    82    83   ar
    67   101   103   ar
    68   110   108    1
    69   106   107    2
    70    81    83   ar
    71   156   153    1
    72    13    11   am
    73   163   164    1
    74   163   165    1
    75   163   160    1
    76   102   103   ar
    77   141   139   ar
    78   159   160    1
    79   159   154   am
    80     4     3    2
    81   153   154    1
    82   153   152    1
    83    37    36    2
    84   151   150    2
    85   161   160    1
    86   161   162    2
    87   154   155    2
    88    11    10    1
    89    11    12    2
    90   125   123   ar
    91   125   124   ar
    92    10     9    1
    93     3     2    1
    94     3     5   am
    95    42    39    1
    96    42    43    1
    97   152   150   am
    98   150   149    1
    99   139   138    1
   100   139   140   ar
   101    36    35    1
   102    36    38   am
   103     2     1    1
   104   123   121   ar
   105   138   135    1
   106    39    38    1
   107    39    40    1
   108   124   122   ar
   109   133   131    1
   110    33    31   ar
   111     6     9    1
   112     6     5    1
   113     6     7    1
   114    35    34    1
   115   149   148    1
   116   132   130    1
   117   121   120   ar
   118   121   119   ar
   119    32    31   ar
   120     7     8    2
   121     7    14   am
   122    31    30    1
   123    40    41    2
   124    25    23    1
   125   137   136    2
   126   122   119   ar
   127   135   134    1
   128   135   136    1
   129   131   130    1
   130   130   127    1
   131   148   144   am
   132   120   118   ar
   133   119   117   ar
   134    14    15    1
   135   136   142   am
   136   115   114    2
   137    30    27    1
   138    23    24    1
   139    23    22    1
   140   144   145    2
   141   144   143    1
   142    15    16    1
   143   118   117   ar
   144   142   143    1
   145   127   126    1
   146   127   128    1
   147   117   116    1
   148    22    19    1
   149   114   113    1
   150   143   146    1
   151    27    28    1
   152    27    26    1
   153    29    28    2
   154   128   129    2
   155   112   113    1
   156    16    17    2
   157   116   113    1
   158   147   146    1
   159    19    20    1
   160    19    18    1
   161    21    20    2
