@<TRIPOS>MOLECULE
tmp/4r5oC01.pdb
 80 75 0 0 0
SMALL
GASTEIGER

@<TRIPOS>ATOM
      1  N         47.2120   95.9550   58.0490 N.3   259  ASP259     -0.1239
      2  CA        46.3470   96.5950   57.0470 C.3   259  ASP259      0.1674
      3  C         46.0410   95.5920   55.9150 C.2   259  ASP259      0.2266
      4  O         46.5830   95.7070   54.8120 O.2   259  ASP259     -0.2867
      5  CB        46.9920   97.8840   56.4940 C.3   259  ASP259      0.1410
      6  CG        46.1170   98.7630   55.5960 C.2   259  ASP259      0.3668
      7  OD1       44.8540   98.5920   55.6120 O.co2 259  ASP259     -0.2456
      8  OD2       46.6780   99.6400   54.9110 O.co2 259  ASP259     -0.2456
      9  N         42.3880   93.9460   54.8110 N.3   261  ILE261     -0.1245
     10  CA        40.9310   93.8240   54.9230 C.3   261  ILE261      0.1561
     11  C         40.5100   92.5080   54.3450 C.2   261  ILE261      0.2260
     12  O         40.7770   92.2300   53.1720 O.2   261  ILE261     -0.2867
     13  CB        40.1480   94.9940   54.2310 C.3   261  ILE261      0.0252
     14  CG1       40.7260   96.4290   54.4710 C.3   261  ILE261      0.0019
     15  CG2       38.6440   94.9010   54.4530 C.3   261  ILE261      0.0019
     16  CD1       40.8450   96.8950   55.8790 C.3   261  ILE261      0.0001
     17  N         43.6420   90.0250   50.3270 N.3   280  GLU280     -0.1231
     18  CA        42.8910   91.1620   50.8250 C.3   280  GLU280      0.1699
     19  C         41.7320   91.3480   49.8970 C.2   280  GLU280      0.2593
     20  O         41.8780   91.1950   48.6730 O.2   280  GLU280     -0.2718
     21  CB        43.7890   92.4100   50.9210 C.3   280  GLU280      0.0402
     22  CG        43.0730   93.6330   51.4470 C.3   280  GLU280      0.1161
     23  CD        43.9450   94.8480   51.5740 C.2   280  GLU280      0.3649
     24  OE1       44.7080   95.1310   50.6220 O.co2 280  GLU280     -0.2457
     25  OE2       43.7980   95.5670   52.5880 O.co2 280  GLU280     -0.2457
     26  N         40.5760   91.6560   50.4630 N.am  281  SER281     -0.1938
     27  CA        39.3610   91.8470   49.6790 C.3   281  SER281      0.2055
     28  C         39.3770   93.2680   49.0770 C.2   281  SER281      0.2643
     29  O         39.6850   94.2320   49.7670 O.2   281  SER281     -0.2714
     30  CB        38.1360   91.5780   50.5480 C.3   281  SER281      0.2130
     31  OG        38.1340   90.2140   50.9940 O.3   281  SER281     -0.2179
     32  N         39.2150   93.3510   47.7520 N.am  282  ALA282     -0.1963
     33  CA        39.1910   94.5810   46.9460 C.3   282  ALA282      0.1728
     34  C         37.8740   94.6570   46.1540 C.2   282  ALA282      0.2616
     35  O         37.1840   93.6360   46.0270 O.2   282  ALA282     -0.2715
     36  CB        40.3970   94.6420   46.0130 C.3   282  ALA282      0.0334
     37  N         37.5030   95.8660   45.6600 N.am  283  ASP283     -0.1957
     38  CA        36.2210   96.0940   44.9700 C.3   283  ASP283      0.1840
     39  C         36.0820   95.2570   43.6840 C.2   283  ASP283      0.2622
     40  O         35.0850   94.5320   43.5290 O.2   283  ASP283     -0.2715
     41  CB        36.0420   97.5860   44.6170 C.3   283  ASP283      0.1450
     42  CG        35.8850   98.5410   45.7990 C.2   283  ASP283      0.3671
     43  OD1       35.3450   98.1070   46.8550 O.co2 283  ASP283     -0.2456
     44  OD2       36.2170   99.7500   45.6390 O.co2 283  ASP283     -0.2456
     45  N         37.0890   95.3330   42.7940 N.am  284  ASN284     -0.1972
     46  CA        37.0730   94.6870   41.4810 C.3   284  ASN284      0.1688
     47  C         38.1100   93.5400   41.3900 C.2   284  ASN284      0.2292
     48  O         38.6900   93.2890   40.3320 O.2   284  ASN284     -0.2864
     49  CB        37.3450   95.7580   40.3980 C.3   284  ASN284      0.1181
     50  CG        38.5000   96.7150   40.7000 C.2   284  ASN284      0.2629
     51  OD1       39.1360   96.6810   41.7770 O.2   284  ASN284     -0.2716
     52  ND2       38.7520   97.6380   39.7730 N.am  284  ASN284     -0.0877
     53  N         43.7230   91.6260   46.4390 N.3   287  ASN287     -0.1240
     54  CA        45.1570   91.8870   46.4950 C.3   287  ASN287      0.1653
     55  C         45.8680   90.7390   47.0900 C.2   287  ASN287      0.2266
     56  O         45.4190   90.1910   48.1010 O.2   287  ASN287     -0.2867
     57  CB        45.4780   93.1280   47.2980 C.3   287  ASN287      0.1155
     58  CG        44.8460   94.3940   46.8350 C.2   287  ASN287      0.2627
     59  OD1       44.8800   94.7570   45.6600 O.2   287  ASN287     -0.2716
     60  ND2       44.3470   95.1380   47.7900 N.am  287  ASN287     -0.0877
     61  N         51.7570   94.7020   48.2140 N.3   299  LYS299     -0.1245
     62  CA        50.4900   94.2670   47.6380 C.3   299  LYS299      0.1561
     63  C         50.5120   94.3390   46.1020 C.2   299  LYS299      0.2260
     64  O         50.9440   95.3280   45.5160 O.2   299  LYS299     -0.2867
     65  CB        49.3250   95.1050   48.1770 C.3   299  LYS299      0.0271
     66  CG        49.1140   94.9770   49.6770 C.3   299  LYS299      0.0035
     67  CD        47.9410   95.7840   50.1680 C.3   299  LYS299      0.0206
     68  CE        47.8190   95.6910   51.6570 C.3   299  LYS299      0.1093
     69  NZ        46.6260   96.4500   52.1370 N.3   299  LYS299     -0.1314
     70  N         47.8230   93.6210   42.7880 N.3   301  PHE301     -0.1241
     71  CA        46.4070   93.4570   42.4330 C.3   301  PHE301      0.1605
     72  C         46.2120   92.3330   41.3970 C.2   301  PHE301      0.2264
     73  O         46.9150   92.2500   40.3790 O.2   301  PHE301     -0.2867
     74  CB        45.8090   94.7640   41.9050 C.3   301  PHE301      0.0534
     75  CG        44.3790   94.6900   41.4140 C.ar  301  PHE301     -0.0203
     76  CD1       43.3120   94.6870   42.3110 C.ar  301  PHE301     -0.0042
     77  CD2       44.0950   94.6820   40.0490 C.ar  301  PHE301     -0.0042
     78  CE1       41.9900   94.6200   41.8510 C.ar  301  PHE301     -0.0003
     79  CE2       42.7780   94.6130   39.5940 C.ar  301  PHE301     -0.0003
     80  CZ        41.7340   94.5890   40.5000 C.ar  301  PHE301     -0.0000
@<TRIPOS>BOND
     1    79    77   ar
     2    79    80   ar
     3    52    50   am
     4    77    75   ar
     5    48    47    2
     6    73    72    2
     7    49    50    1
     8    49    46    1
     9    80    78   ar
    10    50    51    2
    11    47    46    1
    12    72    71    1
    13    75    74    1
    14    75    76   ar
    15    46    45    1
    16    78    76   ar
    17    74    71    1
    18    71    70    1
    19    45    39   am
    20    40    39    2
    21    39    38    1
    22    41    38    1
    23    41    42    1
    24    38    37    1
    25    64    63    2
    26    44    42   ar
    27    59    58    2
    28    37    34   am
    29    42    43   ar
    30    36    33    1
    31    35    34    2
    32    63    62    1
    33    34    33    1
    34    53    54    1
    35    54    55    1
    36    54    57    1
    37    58    57    1
    38    58    60   am
    39    33    32    1
    40    55    56    2
    41    62    65    1
    42    62    61    1
    43    32    28   am
    44    65    66    1
    45    20    19    2
    46    28    27    1
    47    28    29    2
    48    66    67    1
    49    27    26    1
    50    27    30    1
    51    19    26   am
    52    19    18    1
    53    67    68    1
    54    17    18    1
    55    30    31    1
    56    24    23   ar
    57    18    21    1
    58    21    22    1
    59    22    23    1
    60    23    25   ar
    61    68    69    1
    62    12    11    2
    63    13    15    1
    64    13    14    1
    65    13    10    1
    66    11    10    1
    67    14    16    1
    68     9    10    1
    69     4     3    2
    70     8     6   ar
    71     6     7   ar
    72     6     5    1
    73     3     2    1
    74     5     2    1
    75     2     1    1
