@<TRIPOS>MOLECULE
tmp/4r5oD00.pdb
 78 74 0 0 0
SMALL
GASTEIGER

@<TRIPOS>ATOM
      1  N         -0.7160  123.1210   35.3330 N.3    25  SER25      -0.1217
      2  CA         0.0540  123.0450   34.0900 C.3    25  SER25       0.1889
      3  C         -0.8900  122.8220   32.8930 C.2    25  SER25       0.2288
      4  O         -1.7910  121.9830   32.9590 O.2    25  SER25      -0.2866
      5  CB         1.1000  121.9380   34.1730 C.3    25  SER25       0.2089
      6  OG         1.8940  121.8750   32.9960 O.3    25  SER25      -0.2183
      7  N         10.3420  130.6130   29.9900 N.3    53  ASN53      -0.1240
      8  CA        11.5910  129.9460   30.3280 C.3    53  ASN53       0.1653
      9  C         12.6030  130.9650   30.9010 C.2    53  ASN53       0.2266
     10  O         13.7770  130.9670   30.5320 O.2    53  ASN53      -0.2867
     11  CB        12.1510  129.2140   29.1200 C.3    53  ASN53       0.1155
     12  CG        11.3120  128.0350   28.7240 C.2    53  ASN53       0.2627
     13  OD1       10.8830  127.2320   29.5770 O.2    53  ASN53      -0.2716
     14  ND2       11.0980  127.8840   27.4170 N.am   53  ASN53      -0.0877
     15  N          7.4050  123.0700   25.1920 N.3    72  ARG72      -0.1231
     16  CA         7.3590  122.9140   26.6330 C.3    72  ARG72       0.1694
     17  C          7.9620  124.1780   27.1580 C.2    72  ARG72       0.2592
     18  O          8.9640  124.6350   26.6000 O.2    72  ARG72      -0.2718
     19  CB         8.0270  121.6300   27.1630 C.3    72  ARG72       0.0321
     20  CG         9.5290  121.5650   26.9110 C.3    72  ARG72       0.0489
     21  CD        10.2510  120.5550   27.7670 C.3    72  ARG72       0.2205
     22  NE        11.6620  120.5080   27.3920 N.pl3  72  ARG72      -0.0865
     23  CZ        12.5890  119.7730   27.9950 C.cat  72  ARG72       0.5346
     24  NH1       12.2780  119.0360   29.0530 N.pl3  72  ARG72       0.1354
     25  NH2       13.8400  119.7850   27.5580 N.pl3  72  ARG72       0.1354
     26  N          7.3230  124.8160   28.1290 N.am   73  ALA73      -0.1966
     27  CA         7.8230  126.0730   28.6730 C.3    73  ALA73       0.1728
     28  C          7.3160  126.3150   30.0780 C.2    73  ALA73       0.2616
     29  O          6.2340  125.8610   30.4310 O.2    73  ALA73      -0.2715
     30  CB         7.4190  127.2520   27.7840 C.3    73  ALA73       0.0334
     31  N          8.1350  127.0090   30.8820 N.am   74  ASP74      -0.1971
     32  CA         7.8120  127.5060   32.2110 C.3    74  ASP74       0.1709
     33  C          7.3240  128.9220   32.0330 C.2    74  ASP74       0.2293
     34  O          7.8800  129.6480   31.2020 O.2    74  ASP74      -0.2864
     35  CB         9.0030  127.4060   33.1690 C.3    74  ASP74       0.1436
     36  CG         9.3370  126.0120   33.6460 C.2    74  ASP74       0.3671
     37  OD1        8.4210  125.3250   34.1820 O.co2  74  ASP74      -0.2456
     38  OD2       10.5360  125.6530   33.6200 O.co2  74  ASP74      -0.2456
     39  N          3.2040  126.1910   33.8980 N.3    90  SER90      -0.1202
     40  CA         3.9660  125.6190   32.8020 C.3    90  SER90       0.2020
     41  C          2.9980  125.1870   31.7160 C.2    90  SER90       0.2619
     42  O          1.8500  124.8470   32.0100 O.2    90  SER90      -0.2717
     43  CB         4.8500  124.4680   33.2690 C.3    90  SER90       0.2103
     44  OG         4.0870  123.3740   33.7410 O.3    90  SER90      -0.2182
     45  N          3.4220  125.2710   30.4610 N.am   91  PHE91      -0.1961
     46  CA         2.5740  124.8630   29.3550 C.3    91  PHE91       0.1771
     47  C          3.3910  123.9970   28.4050 C.2    91  PHE91       0.2620
     48  O          4.6190  124.0790   28.3490 O.2    91  PHE91      -0.2715
     49  CB         1.9240  126.0560   28.6260 C.3    91  PHE91       0.0574
     50  CG         2.8340  127.0050   27.8910 C.ar   91  PHE91      -0.0200
     51  CD1        3.2850  126.7070   26.6130 C.ar   91  PHE91      -0.0042
     52  CD2        3.1480  128.2480   28.4280 C.ar   91  PHE91      -0.0042
     53  CE1        4.1100  127.5900   25.9310 C.ar   91  PHE91      -0.0003
     54  CE2        3.9340  129.1620   27.7140 C.ar   91  PHE91      -0.0003
     55  CZ         4.4160  128.8230   26.4820 C.ar   91  PHE91      -0.0000
     56  N          2.6970  123.1230   27.7070 N.am   92  SER92      -0.1950
     57  CA         3.2820  122.2050   26.7420 C.3    92  SER92       0.1924
     58  C          2.2430  121.8470   25.7010 C.2    92  SER92       0.2314
     59  O          1.0440  122.0230   25.9350 O.2    92  SER92      -0.2863
     60  CB         3.8270  120.9580   27.4340 C.3    92  SER92       0.2116
     61  OG         2.7890  120.2630   28.1030 O.3    92  SER92      -0.2180
     62  N         13.9640  125.3010   25.3640 N.3   129  ALA129     -0.1245
     63  CA        14.0270  126.7000   25.7940 C.3   129  ALA129      0.1562
     64  C         14.9390  127.5660   24.9060 C.2   129  ALA129      0.2260
     65  O         15.7770  128.3070   25.4190 O.2   129  ALA129     -0.2867
     66  CB        14.5260  126.7530   27.2290 C.3   129  ALA129      0.0290
     67  N         14.3120  115.9820   23.6460 N.3   173  TYR173     -0.1241
     68  CA        14.8570  116.8180   24.7150 C.3   173  TYR173      0.1605
     69  C         16.3580  116.7060   24.7660 C.2   173  TYR173      0.2264
     70  O         16.9100  115.6030   24.7120 O.2   173  TYR173     -0.2867
     71  CB        14.2970  116.5220   26.1290 C.3   173  TYR173      0.0534
     72  CG        12.8010  116.6570   26.3450 C.ar  173  TYR173     -0.0201
     73  CD1       12.0150  117.4410   25.4980 C.ar  173  TYR173     -0.0009
     74  CD2       12.1800  116.0530   27.4350 C.ar  173  TYR173     -0.0009
     75  CE1       10.6410  117.5380   25.6770 C.ar  173  TYR173      0.0417
     76  CE2       10.8080  116.1700   27.6420 C.ar  173  TYR173      0.0417
     77  CZ        10.0410  116.9160   26.7630 C.ar  173  TYR173      0.1957
     78  OH         8.6810  117.0120   26.9620 O.3   173  TYR173     -0.2866
@<TRIPOS>BOND
     1    67    68    1
     2    70    69    2
     3    68    69    1
     4    68    71    1
     5    64    65    2
     6    64    63    1
     7    15    16    1
     8    62    63    1
     9    73    75   ar
    10    73    72   ar
    11    75    77   ar
    12    58    59    2
    13    58    57    1
    14    63    66    1
    15    53    55   ar
    16    53    51   ar
    17    71    72    1
    18    72    74   ar
    19    55    54   ar
    20    18    17    2
    21    51    50   ar
    22    16    17    1
    23    16    19    1
    24    57    60    1
    25    57    56    1
    26    77    78    1
    27    77    76   ar
    28    20    19    1
    29    20    21    1
    30    17    26   am
    31    22    21    1
    32    22    23    2
    33    14    12   am
    34    60    61    1
    35    74    76   ar
    36    25    23    1
    37    56    47   am
    38    54    52   ar
    39    30    27    1
    40    50    52   ar
    41    50    49    1
    42    23    24    1
    43    26    27    1
    44    48    47    2
    45    47    46    1
    46    49    46    1
    47    27    28    1
    48    12    11    1
    49    12    13    2
    50    11     8    1
    51    46    45    1
    52     7     8    1
    53    28    29    2
    54    28    31   am
    55     8     9    1
    56    45    41   am
    57    10     9    2
    58    31    32    1
    59    34    33    2
    60    41    42    2
    61    41    40    1
    62    33    32    1
    63    32    35    1
    64    40    43    1
    65    40    39    1
    66     3     4    2
    67     3     2    1
    68     6     5    1
    69    35    36    1
    70    43    44    1
    71    38    36   ar
    72    36    37   ar
    73     2     5    1
    74     2     1    1
