@<TRIPOS>MOLECULE
tmp/4r5oC00.pdb
 110 107 0 0 0
SMALL
GASTEIGER

@<TRIPOS>ATOM
      1  N         48.7380   40.8540   51.8560 N.3    20  GLU20      -0.1231
      2  CA        48.7690   41.9310   50.8760 C.3    20  GLU20       0.1699
      3  C         47.3620   42.4090   50.5680 C.2    20  GLU20       0.2592
      4  O         46.4030   41.6560   50.7110 O.2    20  GLU20      -0.2718
      5  CB        49.4640   41.4950   49.5750 C.3    20  GLU20       0.0402
      6  CG        50.8980   41.0260   49.7200 C.3    20  GLU20       0.1161
      7  CD        51.9420   42.0210   50.1870 C.2    20  GLU20       0.3649
      8  OE1       51.7840   43.2470   49.9590 O.co2  20  GLU20      -0.2457
      9  OE2       52.9700   41.5480   50.7230 O.co2  20  GLU20      -0.2457
     10  N         47.2340   43.6600   50.1070 N.am   21  LEU21      -0.1980
     11  CA        45.9410   44.1720   49.6490 C.3    21  LEU21       0.1596
     12  C         45.5310   43.3150   48.4480 C.2    21  LEU21       0.2287
     13  O         46.3810   42.9770   47.6110 O.2    21  LEU21      -0.2864
     14  CB        46.0210   45.6830   49.3280 C.3    21  LEU21       0.0297
     15  CG        46.2280   46.6130   50.5280 C.3    21  LEU21       0.0022
     16  CD1       46.7140   47.9590   50.1000 C.3    21  LEU21       0.0001
     17  CD2       44.9680   46.7230   51.3580 C.3    21  LEU21       0.0001
     18  N         43.3280   48.8630   53.6440 N.3    61  PRO61      -0.2116
     19  CA        44.3210   48.8910   54.7370 C.3    61  PRO61       0.1372
     20  C         43.6290   48.5940   56.0520 C.2    61  PRO61       0.2244
     21  O         42.5700   49.1730   56.3020 O.2    61  PRO61      -0.2868
     22  CB        44.8920   50.3160   54.6740 C.3    61  PRO61       0.0268
     23  CG        44.6760   50.7230   53.2770 C.3    61  PRO61       0.0207
     24  CD        43.3590   50.1280   52.8780 C.3    61  PRO61       0.0892
     25  N         49.6300   44.5780   54.5030 N.3    85  ASN85      -0.1225
     26  CA        50.9610   45.0880   54.2010 C.3    85  ASN85       0.1785
     27  C         50.7850   46.2400   53.1930 C.2    85  ASN85       0.2597
     28  O         50.8240   46.0210   51.9800 O.2    85  ASN85      -0.2718
     29  CB        51.8870   43.9680   53.6910 C.3    85  ASN85       0.1169
     30  CG        53.2790   44.4390   53.3340 C.2    85  ASN85       0.2627
     31  OD1       53.8340   45.3690   53.9340 O.2    85  ASN85      -0.2716
     32  ND2       53.8780   43.8240   52.3340 N.am   85  ASN85      -0.0877
     33  N         50.4800   47.4400   53.6980 N.am   86  HIS86      -0.1961
     34  CA        50.2310   48.6060   52.8470 C.3    86  HIS86       0.1787
     35  C         51.2930   49.7110   53.1050 C.2    86  HIS86       0.2620
     36  O         51.9810   49.6810   54.1140 O.2    86  HIS86      -0.2715
     37  CB        48.8030   49.1500   53.0710 C.3    86  HIS86       0.0785
     38  CG        48.5530   49.6320   54.4570 C.ar   86  HIS86       0.0821
     39  ND1       48.1520   48.7740   55.4480 N.ar   86  HIS86      -0.2267
     40  CD2       48.6680   50.8710   54.9740 C.ar   86  HIS86       0.1154
     41  CE1       48.0210   49.5140   56.5330 C.ar   86  HIS86       0.1986
     42  NE2       48.3200   50.7810   56.2940 N.ar   86  HIS86      -0.2212
     43  N         51.4190   50.6690   52.1720 N.am   87  ASN87      -0.1958
     44  CA        52.3540   51.7830   52.2160 C.3    87  ASN87       0.1819
     45  C         51.6010   53.0790   51.9030 C.2    87  ASN87       0.2621
     46  O         51.2100   53.3300   50.7560 O.2    87  ASN87      -0.2715
     47  CB        53.5020   51.5320   51.2290 C.3    87  ASN87       0.1195
     48  CG        54.6470   52.5020   51.2670 C.2    87  ASN87       0.2630
     49  OD1       54.6770   53.4680   52.0270 O.2    87  ASN87      -0.2716
     50  ND2       55.6430   52.2420   50.4510 N.am   87  ASN87      -0.0877
     51  N         51.3770   53.8960   52.9360 N.am   88  PHE88      -0.1974
     52  CA        50.6230   55.1290   52.7740 C.3    88  PHE88       0.1639
     53  C         51.4860   56.2720   52.1510 C.2    88  PHE88       0.2290
     54  O         50.9960   57.3970   52.0170 O.2    88  PHE88      -0.2864
     55  CB        50.0160   55.5850   54.1020 C.3    88  PHE88       0.0560
     56  CG        48.7660   54.8440   54.5190 C.ar   88  PHE88      -0.0200
     57  CD1       47.7810   54.5250   53.5860 C.ar   88  PHE88      -0.0042
     58  CD2       48.4970   54.6080   55.8610 C.ar   88  PHE88      -0.0042
     59  CE1       46.6010   53.8900   53.9740 C.ar   88  PHE88      -0.0003
     60  CE2       47.2970   54.0130   56.2540 C.ar   88  PHE88      -0.0003
     61  CZ        46.3540   53.6680   55.3100 C.ar   88  PHE88      -0.0000
     62  N         52.5780   55.8280   48.9980 N.3    90  LYS90      -0.1245
     63  CA        52.2420   55.5720   47.5920 C.3    90  LYS90       0.1561
     64  C         50.9240   56.2740   47.1730 C.2    90  LYS90       0.2260
     65  O         50.1650   55.7520   46.3520 O.2    90  LYS90      -0.2867
     66  CB        52.1490   54.0540   47.3550 C.3    90  LYS90       0.0271
     67  CG        53.4410   53.3350   47.6290 C.3    90  LYS90       0.0035
     68  CD        54.5520   53.8880   46.7660 C.3    90  LYS90       0.0206
     69  CE        55.8660   53.2590   47.1280 C.3    90  LYS90       0.1093
     70  NZ        56.7450   53.3490   45.9640 N.3    90  LYS90      -0.1314
     71  N         42.0420   56.8160   51.5470 N.3   102  PHE102     -0.1241
     72  CA        43.3430   56.8710   50.8610 C.3   102  PHE102      0.1605
     73  C         43.2040   56.5710   49.3650 C.2   102  PHE102      0.2264
     74  O         42.4000   55.7270   48.9610 O.2   102  PHE102     -0.2867
     75  CB        44.3610   55.8940   51.4820 C.3   102  PHE102      0.0534
     76  CG        45.7830   55.9690   50.9390 C.ar  102  PHE102     -0.0203
     77  CD1       46.6340   57.0120   51.3010 C.ar  102  PHE102     -0.0042
     78  CD2       46.2870   54.9640   50.1140 C.ar  102  PHE102     -0.0042
     79  CE1       47.9420   57.0760   50.8080 C.ar  102  PHE102     -0.0003
     80  CE2       47.6040   55.0170   49.6390 C.ar  102  PHE102     -0.0003
     81  CZ        48.4190   56.0710   49.9850 C.ar  102  PHE102     -0.0000
     82  N         45.7810   55.5630   46.2180 N.3   104  ASP104     -0.1239
     83  CA        47.0770   55.0870   45.7620 C.3   104  ASP104      0.1674
     84  C         47.2710   55.5600   44.3140 C.2   104  ASP104      0.2266
     85  O         46.5690   55.1100   43.4070 O.2   104  ASP104     -0.2867
     86  CB        47.1780   53.5480   45.9210 C.3   104  ASP104      0.1410
     87  CG        48.5590   52.9770   45.6260 C.2   104  ASP104      0.3668
     88  OD1       49.1430   53.3400   44.5870 O.co2 104  ASP104     -0.2456
     89  OD2       49.0090   52.0890   46.3750 O.co2 104  ASP104     -0.2456
     90  N         48.4560   52.4210   41.9090 N.3   107  LYS107     -0.1245
     91  CA        47.3880   51.4680   41.6170 C.3   107  LYS107      0.1561
     92  C         46.1510   52.1580   40.9940 C.2   107  LYS107      0.2260
     93  O         45.2900   51.4690   40.4500 O.2   107  LYS107     -0.2867
     94  CB        46.9510   50.7330   42.9120 C.3   107  LYS107      0.0271
     95  CG        48.0400   50.0220   43.6860 C.3   107  LYS107      0.0035
     96  CD        47.4780   49.2930   44.8910 C.3   107  LYS107      0.0206
     97  CE        48.5550   48.5440   45.6200 C.3   107  LYS107      0.1093
     98  NZ        48.0120   47.6430   46.6720 N.3   107  LYS107     -0.1314
     99  N         40.7030   53.7430   48.6820 N.3   111  TYR111     -0.1241
    100  CA        40.2960   52.9460   49.8360 C.3   111  TYR111      0.1605
    101  C         39.4910   53.8260   50.8060 C.2   111  TYR111      0.2264
    102  O         40.0420   54.7390   51.4250 O.2   111  TYR111     -0.2867
    103  CB        41.5330   52.3250   50.5210 C.3   111  TYR111      0.0534
    104  CG        42.3910   51.4990   49.5860 C.ar  111  TYR111     -0.0201
    105  CD1       42.0380   50.1930   49.2520 C.ar  111  TYR111     -0.0009
    106  CD2       43.5670   52.0130   49.0500 C.ar  111  TYR111     -0.0009
    107  CE1       42.8140   49.4340   48.3750 C.ar  111  TYR111      0.0417
    108  CE2       44.3500   51.2640   48.1720 C.ar  111  TYR111      0.0417
    109  CZ        43.9780   49.9670   47.8510 C.ar  111  TYR111      0.1957
    110  OH        44.7480   49.2180   46.9960 O.3   111  TYR111     -0.2866
@<TRIPOS>BOND
     1    93    92    2
     2    92    91    1
     3    91    90    1
     4    91    94    1
     5    94    95    1
     6    85    84    2
     7    95    96    1
     8    84    83    1
     9    88    87   ar
    10    96    97    1
    11    97    98    1
    12    87    86    1
    13    87    89   ar
    14    83    86    1
    15    83    82    1
    16    70    69    1
    17    65    64    2
    18    68    69    1
    19    68    67    1
    20   110   109    1
    21    64    63    1
    22    66    63    1
    23    66    67    1
    24    63    62    1
    25    13    12    2
    26   109   108   ar
    27   109   107   ar
    28   108   106   ar
    29   107   105   ar
    30    12    11    1
    31    99   100    1
    32    74    73    2
    33   106   104   ar
    34   105   104   ar
    35    14    11    1
    36    14    15    1
    37    73    72    1
    38     5     6    1
    39     5     2    1
    40   104   103    1
    41    80    81   ar
    42    80    78   ar
    43    11    10    1
    44     6     7    1
    45   100   103    1
    46   100   101    1
    47     8     7   ar
    48    81    79   ar
    49    16    15    1
    50    10     3   am
    51    78    76   ar
    52     7     9   ar
    53    50    48   am
    54    15    17    1
    55     3     4    2
    56     3     2    1
    57    46    45    2
    58   101   102    2
    59    79    77   ar
    60    72    75    1
    61    72    71    1
    62     2     1    1
    63    76    77   ar
    64    76    75    1
    65    47    48    1
    66    47    44    1
    67    48    49    2
    68    45    44    1
    69    45    51   am
    70    28    27    2
    71    54    53    2
    72    53    52    1
    73    43    44    1
    74    43    35   am
    75    32    30   am
    76    52    51    1
    77    52    55    1
    78    34    37    1
    79    34    35    1
    80    34    33    1
    81    24    23    1
    82    24    18    1
    83    37    38    1
    84    35    36    2
    85    27    33   am
    86    27    26    1
    87    23    22    1
    88    30    29    1
    89    30    31    2
    90    57    59   ar
    91    57    56   ar
    92    18    19    1
    93    29    26    1
    94    59    61   ar
    95    55    56    1
    96    26    25    1
    97    38    40   ar
    98    38    39   ar
    99    56    58   ar
   100    22    19    1
   101    19    20    1
   102    40    42   ar
   103    61    60   ar
   104    39    41   ar
   105    58    60   ar
   106    20    21    2
   107    42    41   ar
