@<TRIPOS>MOLECULE
tmp/4r5oA02.pdb
 110 104 0 0 0
SMALL
GASTEIGER

@<TRIPOS>ATOM
      1  N         29.4110   18.3690   27.9480 N.3   141  SER141     -0.1217
      2  CA        30.6130   17.9680   28.6690 C.3   141  SER141      0.1889
      3  C         31.8520   18.6670   28.0850 C.2   141  SER141      0.2288
      4  O         31.9170   18.9820   26.8980 O.2   141  SER141     -0.2866
      5  CB        30.7930   16.4560   28.6350 C.3   141  SER141      0.2089
      6  OG        31.0010   15.9660   27.3240 O.3   141  SER141     -0.2183
      7  N         35.8510   18.0230   27.9640 N.3   143  ASN143     -0.1240
      8  CA        36.8930   17.0160   28.1020 C.3   143  ASN143      0.1653
      9  C         38.1840   17.6600   27.6070 C.2   143  ASN143      0.2266
     10  O         38.2820   18.0090   26.4300 O.2   143  ASN143     -0.2867
     11  CB        36.4670   15.7410   27.3210 C.3   143  ASN143      0.1155
     12  CG        34.9960   15.3520   27.5870 C.2   143  ASN143      0.2627
     13  OD1       34.6780   14.7210   28.6060 O.2   143  ASN143     -0.2716
     14  ND2       34.0500   15.7960   26.7190 N.am  143  ASN143     -0.0877
     15  N         32.5230   12.7200   23.4160 N.3   186  SER186     -0.1217
     16  CA        33.0720   13.1250   24.7090 C.3   186  SER186      0.1889
     17  C         34.3920   12.3880   25.0770 C.2   186  SER186      0.2288
     18  O         34.8880   12.5680   26.1970 O.2   186  SER186     -0.2866
     19  CB        32.0420   12.8720   25.8050 C.3   186  SER186      0.2089
     20  OG        31.7090   11.5000   25.8980 O.3   186  SER186     -0.2183
     21  N         35.9830    6.8260   27.4860 N.3   225  TYR225     -0.1227
     22  CA        35.6750    7.7480   28.5980 C.3   225  TYR225      0.1736
     23  C         36.9600    8.1650   29.2410 C.2   225  TYR225      0.2595
     24  O         37.0920    9.3120   29.6290 O.2   225  TYR225     -0.2718
     25  CB        34.7080    7.1160   29.6140 C.3   225  TYR225      0.0548
     26  CG        33.3700    6.7960   28.9810 C.ar  225  TYR225     -0.0200
     27  CD1       32.4880    7.8120   28.6180 C.ar  225  TYR225     -0.0009
     28  CD2       33.0120    5.4840   28.6870 C.ar  225  TYR225     -0.0009
     29  CE1       31.2750    7.5280   27.9950 C.ar  225  TYR225      0.0417
     30  CE2       31.7980    5.1910   28.0720 C.ar  225  TYR225      0.0417
     31  CZ        30.9290    6.2170   27.7400 C.ar  225  TYR225      0.1957
     32  OH        29.7370    5.9520   27.1230 O.3   225  TYR225     -0.2866
     33  N         37.9440    7.2520   29.2600 N.am  226  ASN226     -0.1974
     34  CA        39.3040    7.4490   29.7480 C.3   226  ASN226      0.1688
     35  C         40.2350    6.6370   28.9270 C.2   226  ASN226      0.2292
     36  O         39.8780    5.5340   28.5090 O.2   226  ASN226     -0.2864
     37  CB        39.4450    7.0880   31.2310 C.3   226  ASN226      0.1181
     38  CG        38.5420    7.8580   32.1260 C.2   226  ASN226      0.2629
     39  OD1       38.8060    9.0050   32.4760 O.2   226  ASN226     -0.2716
     40  ND2       37.3990    7.2700   32.3990 N.am  226  ASN226     -0.0877
     41  N         33.1430    4.1390   34.8580 N.3   275  LYS275     -0.1245
     42  CA        34.1960    5.0210   34.3920 C.3   275  LYS275      0.1561
     43  C         35.3070    5.0600   35.3810 C.2   275  LYS275      0.2260
     44  O         35.0690    5.3680   36.5570 O.2   275  LYS275     -0.2867
     45  CB        33.6890    6.4440   34.1480 C.3   275  LYS275      0.0271
     46  CG        32.6370    6.5920   33.1060 C.3   275  LYS275      0.0035
     47  CD        32.3890    8.0390   32.8990 C.3   275  LYS275      0.0206
     48  CE        31.2860    8.2470   31.9090 C.3   275  LYS275      0.1093
     49  NZ        31.1490    9.6790   31.5600 N.3   275  LYS275     -0.1314
     50  N         39.8090    5.9920   35.2180 N.3   277  ASN277     -0.1240
     51  CA        40.9340    6.4350   34.4240 C.3   277  ASN277      0.1653
     52  C         42.1540    5.5210   34.6110 C.2   277  ASN277      0.2266
     53  O         42.1130    4.5480   35.3520 O.2   277  ASN277     -0.2867
     54  CB        41.2850    7.8910   34.8020 C.3   277  ASN277      0.1155
     55  CG        41.7350    8.1220   36.2040 C.2   277  ASN277      0.2627
     56  OD1       41.2980    7.4620   37.1550 O.2   277  ASN277     -0.2716
     57  ND2       42.6050    9.1060   36.3600 N.am  277  ASN277     -0.0877
     58  N         25.9830    8.4560   31.6070 N.3   322  HIS322     -0.1226
     59  CA        26.9880    8.5200   30.5270 C.3   322  HIS322      0.1752
     60  C         27.7290    9.8550   30.5620 C.2   322  HIS322      0.2597
     61  O         28.8740    9.9500   30.1000 O.2   322  HIS322     -0.2718
     62  CB        26.2860    8.3330   29.1510 C.3   322  HIS322      0.0759
     63  CG        27.0510    8.8730   27.9630 C.ar  322  HIS322      0.0818
     64  ND1       28.0410    8.1330   27.3330 N.ar  322  HIS322     -0.2268
     65  CD2       26.9610   10.0790   27.3450 C.ar  322  HIS322      0.1154
     66  CE1       28.5210    8.9110   26.3680 C.ar  322  HIS322      0.1986
     67  NE2       27.9040   10.0910   26.3350 N.ar  322  HIS322     -0.2212
     68  N         27.0350   10.8930   31.0860 N.am  323  SER323     -0.1938
     69  CA        27.4660   12.2850   31.1420 C.3   323  SER323      0.2055
     70  C         28.2240   12.6200   32.4150 C.2   323  SER323      0.2644
     71  O         28.9760   13.6080   32.4340 O.2   323  SER323     -0.2714
     72  CB        26.2450   13.1940   31.0410 C.3   323  SER323      0.2130
     73  OG        25.2640   12.8520   32.0100 O.3   323  SER323     -0.2179
     74  N         28.0090   11.8270   33.4720 N.am  324  SER324     -0.1936
     75  CA        28.6500   12.0570   34.7610 C.3   324  SER324      0.2040
     76  C         30.1620   11.8500   34.6160 C.2   324  SER324      0.2485
     77  O         30.5750   10.9190   33.9270 O.2   324  SER324     -0.2729
     78  CB        28.0480   11.1640   35.8380 C.3   324  SER324      0.2129
     79  OG        27.9810    9.8130   35.4150 O.3   324  SER324     -0.2179
     80  N         31.0040   12.7810   35.1240 N.am  325  PRO325     -0.2715
     81  CA        32.4510   12.6460   34.8900 C.3   325  PRO325      0.1536
     82  C         33.0590   11.4710   35.6550 C.2   325  PRO325      0.2599
     83  O         32.3890   10.7960   36.4390 O.2   325  PRO325     -0.2715
     84  CB        33.0380   13.9840   35.3740 C.3   325  PRO325      0.0310
     85  CG        32.0070   14.6150   36.1850 C.3   325  PRO325      0.0237
     86  CD        30.6780   13.9970   35.9000 C.3   325  PRO325      0.0939
     87  N         34.3270   11.1680   35.3210 N.am  326  THR326     -0.1951
     88  CA        35.1010   10.1010   35.9340 C.3   326  THR326      0.1897
     89  C         35.6120   10.6310   37.2540 C.2   326  THR326      0.2313
     90  O         36.2010   11.7220   37.2990 O.2   326  THR326     -0.2863
     91  CB        36.2090    9.6430   34.9850 C.3   326  THR326      0.1794
     92  OG1       35.6270    9.1870   33.7720 O.3   326  THR326     -0.2208
     93  CG2       37.0980    8.5860   35.5770 C.3   326  THR326      0.0378
     94  N         38.1380   10.2490   38.8360 N.3   328  GLY328     -0.1225
     95  CA        39.4850    9.7780   38.5820 C.3   328  GLY328      0.1811
     96  C         40.4930    9.8730   39.6940 C.2   328  GLY328      0.2280
     97  O         40.4200   10.7570   40.5500 O.2   328  GLY328     -0.2866
     98  N         37.2100   14.3930   39.0030 N.3   373  PRO373     -0.2116
     99  CA        38.4700   13.6630   39.2210 C.3   373  PRO373      0.1372
    100  C         39.4150   14.3990   40.1660 C.2   373  PRO373      0.2244
    101  O         39.3950   15.6290   40.2200 O.2   373  PRO373     -0.2868
    102  CB        39.0750   13.5760   37.8210 C.3   373  PRO373      0.0268
    103  CG        38.4630   14.6270   37.0680 C.3   373  PRO373      0.0207
    104  CD        37.0780   14.7930   37.5890 C.3   373  PRO373      0.0892
    105  N         34.5620   20.6520   36.6660 N.3   418  SER418     -0.1217
    106  CA        34.7240   19.3390   36.0300 C.3   418  SER418      0.1889
    107  C         36.1820   18.8800   35.9700 C.2   418  SER418      0.2288
    108  O         36.4410   17.6680   35.8760 O.2   418  SER418     -0.2866
    109  CB        34.1610   19.3710   34.6130 C.3   418  SER418      0.2089
    110  OG        34.7440   20.4010   33.8320 O.3   418  SER418     -0.2183
@<TRIPOS>BOND
     1    15    16    1
     2    16    17    1
     3    16    19    1
     4    17    18    2
     5    19    20    1
     6    67    66   ar
     7    67    65   ar
     8    66    64   ar
     9    10     9    2
    10    14    12   am
    11     4     3    2
    12    32    31    1
    13    11    12    1
    14    11     8    1
    15     6     5    1
    16    64    63   ar
    17    65    63   ar
    18    21    22    1
    19    12    13    2
    20     9     8    1
    21    31    29   ar
    22    31    30   ar
    23     1     2    1
    24    63    62    1
    25     7     8    1
    26    29    27   ar
    27    30    28   ar
    28     3     2    1
    29    36    35    2
    30    22    23    1
    31    22    25    1
    32    27    26   ar
    33     5     2    1
    34    28    26   ar
    35    35    34    1
    36    26    25    1
    37    62    59    1
    38    23    33   am
    39    23    24    2
    40    33    34    1
    41    34    37    1
    42    61    60    2
    43    59    60    1
    44    59    58    1
    45    60    68   am
    46    72    69    1
    47    72    73    1
    48    68    69    1
    49    69    70    1
    50    37    38    1
    51    49    48    1
    52    48    47    1
    53    38    40   am
    54    38    39    2
    55    70    71    2
    56    70    74   am
    57    47    46    1
    58    46    45    1
    59    74    75    1
    60    92    91    1
    61   110   109    1
    62    77    76    2
    63    45    42    1
    64    42    41    1
    65    42    43    1
    66    51    52    1
    67    51    54    1
    68    51    50    1
    69    52    53    2
    70   109   106    1
    71    76    75    1
    72    76    80   am
    73    75    78    1
    74    54    55    1
    75    81    80    1
    76    81    84    1
    77    81    82    1
    78    91    93    1
    79    91    88    1
    80    80    86    1
    81    87    82   am
    82    87    88    1
    83    84    85    1
    84    43    44    2
    85    79    78    1
    86    82    83    2
    87   108   107    2
    88    86    85    1
    89    88    89    1
    90   107   106    1
    91   106   105    1
    92    55    57   am
    93    55    56    2
    94   103   104    1
    95   103   102    1
    96    89    90    2
    97   104    98    1
    98   102    99    1
    99    95    94    1
   100    95    96    1
   101    98    99    1
   102    99   100    1
   103    96    97    2
   104   100   101    2
