@<TRIPOS>MOLECULE
tmp/4r5oB00.pdb
 95 90 0 0 0
SMALL
GASTEIGER

@<TRIPOS>ATOM
      1  N         51.3220  149.0420   21.9640 N.3    16  SER16      -0.1217
      2  CA        51.0210  148.4200   23.2520 C.3    16  SER16       0.1889
      3  C         51.7630  149.1510   24.3840 C.2    16  SER16       0.2288
      4  O         52.9610  149.4520   24.2700 O.2    16  SER16      -0.2866
      5  CB        51.3900  146.9440   23.2240 C.3    16  SER16       0.2089
      6  OG        51.0050  146.3070   24.4300 O.3    16  SER16      -0.2183
      7  N         39.1120  144.1100   27.6210 N.3    44  ASN44      -0.1240
      8  CA        38.9820  142.6780   27.3250 C.3    44  ASN44       0.1653
      9  C         37.5550  142.3810   26.7700 C.2    44  ASN44       0.2266
     10  O         36.9030  141.4190   27.1780 O.2    44  ASN44      -0.2867
     11  CB        39.3010  141.8340   28.5570 C.3    44  ASN44       0.1155
     12  CG        40.7360  141.8940   28.9510 C.2    44  ASN44       0.2627
     13  OD1       41.6340  141.8620   28.1080 O.2    44  ASN44      -0.2716
     14  ND2       40.9710  141.9400   30.2460 N.am   44  ASN44      -0.0877
     15  N         47.1590  142.6870   32.5160 N.3    63  ARG63      -0.1231
     16  CA        47.2940  142.6940   31.0540 C.3    63  ARG63       0.1694
     17  C         45.8890  142.7510   30.5010 C.2    63  ARG63       0.2592
     18  O         45.0090  142.1100   31.0500 O.2    63  ARG63      -0.2718
     19  CB        48.1140  141.5100   30.4960 C.3    63  ARG63       0.0321
     20  CG        47.4460  140.1950   30.6960 C.3    63  ARG63       0.0489
     21  CD        48.0660  139.0560   29.9470 C.3    63  ARG63       0.2205
     22  NE        47.3510  137.8360   30.3220 N.pl3  63  ARG63      -0.0865
     23  CZ        47.3600  136.7070   29.6400 C.cat  63  ARG63       0.5346
     24  NH1       47.9830  136.6350   28.4670 N.pl3  63  ARG63       0.1354
     25  NH2       46.6890  135.6580   30.0850 N.pl3  63  ARG63       0.1354
     26  N         45.6500  143.5540   29.4780 N.am   64  ALA64      -0.1966
     27  CA        44.3190  143.7630   28.9120 C.3    64  ALA64       0.1728
     28  C         44.3700  144.2910   27.5030 C.2    64  ALA64       0.2616
     29  O         45.3230  144.9630   27.1300 O.2    64  ALA64      -0.2715
     30  CB        43.5400  144.7600   29.7740 C.3    64  ALA64       0.0334
     31  N         43.3210  143.9750   26.7240 N.am   65  ASP65      -0.1971
     32  CA        43.0630  144.4840   25.3690 C.3    65  ASP65       0.1709
     33  C         42.1580  145.6620   25.5230 C.2    65  ASP65       0.2293
     34  O         41.2920  145.6220   26.3850 O.2    65  ASP65      -0.2864
     35  CB        42.4850  143.4110   24.4280 C.3    65  ASP65       0.1436
     36  CG        43.4700  142.3400   23.9730 C.2    65  ASP65       0.3671
     37  OD1       44.5360  142.7020   23.4340 O.co2  65  ASP65      -0.2456
     38  OD2       43.1150  141.1440   24.0320 O.co2  65  ASP65      -0.2456
     39  N         46.6070  147.6100   23.5860 N.3    81  SER81      -0.1202
     40  CA        46.6660  146.7290   24.7330 C.3    81  SER81       0.2020
     41  C         47.5640  147.3740   25.7730 C.2    81  SER81       0.2619
     42  O         48.3650  148.2660   25.4520 O.2    81  SER81      -0.2717
     43  CB        47.1420  145.3300   24.3410 C.3    81  SER81       0.2103
     44  OG        48.4240  145.3870   23.7400 O.3    81  SER81      -0.2182
     45  N         47.3760  146.9890   27.0200 N.am   82  PHE82      -0.1961
     46  CA        48.2050  147.5010   28.0920 C.3    82  PHE82       0.1771
     47  C         48.4960  146.3860   29.0670 C.2    82  PHE82       0.2620
     48  O         47.7710  145.4020   29.1360 O.2    82  PHE82      -0.2715
     49  CB        47.5830  148.7160   28.7960 C.3    82  PHE82       0.0574
     50  CG        46.3020  148.4810   29.5560 C.ar   82  PHE82      -0.0200
     51  CD1       45.0650  148.6130   28.9270 C.ar   82  PHE82      -0.0042
     52  CD2       46.3280  148.2010   30.9220 C.ar   82  PHE82      -0.0042
     53  CE1       43.8770  148.4580   29.6460 C.ar   82  PHE82      -0.0003
     54  CE2       45.1460  148.0340   31.6320 C.ar   82  PHE82      -0.0003
     55  CZ        43.9260  148.1720   30.9930 C.ar   82  PHE82      -0.0000
     56  N         49.6340  146.5100   29.7390 N.am   83  SER83      -0.1950
     57  CA        50.1090  145.5580   30.7260 C.3    83  SER83       0.1924
     58  C         51.0010  146.2850   31.7140 C.2    83  SER83       0.2314
     59  O         51.4890  147.3770   31.4050 O.2    83  SER83      -0.2863
     60  CB        50.8420  144.3970   30.0540 C.3    83  SER83       0.2116
     61  OG        51.9900  144.8530   29.3600 O.3    83  SER83      -0.2180
     62  N         44.2940  137.2810   33.6500 N.3   119  ASN119     -0.1225
     63  CA        43.5600  136.3190   32.8470 C.3   119  ASN119      0.1785
     64  C         42.1090  136.7640   32.6250 C.2   119  ASN119      0.2597
     65  O         41.1860  135.9370   32.6360 O.2   119  ASN119     -0.2718
     66  CB        43.5990  134.9420   33.5310 C.3   119  ASN119      0.1169
     67  CG        45.0040  134.4230   33.6850 C.2   119  ASN119      0.2627
     68  OD1       45.6580  134.0030   32.7010 O.2   119  ASN119     -0.2716
     69  ND2       45.5380  134.5520   34.8950 N.am  119  ASN119     -0.0877
     70  N         41.9190  138.0690   32.3820 N.am  120  ALA120     -0.1979
     71  CA        40.6400  138.7170   32.0450 C.3   120  ALA120      0.1597
     72  C         39.5060  138.2320   32.9600 C.2   120  ALA120      0.2287
     73  O         38.4480  137.8110   32.5010 O.2   120  ALA120     -0.2864
     74  CB        40.2900  138.4590   30.5790 C.3   120  ALA120      0.0319
     75  N         39.2910  135.5840   34.9800 N.3   122  LYS122     -0.1245
     76  CA        39.1310  134.1480   35.2500 C.3   122  LYS122      0.1561
     77  C         39.2610  133.8490   36.7440 C.2   122  LYS122      0.2260
     78  O         39.9700  134.5430   37.4790 O.2   122  LYS122     -0.2867
     79  CB        40.1370  133.2830   34.4720 C.3   122  LYS122      0.0271
     80  CG        39.8220  133.0910   32.9910 C.3   122  LYS122      0.0035
     81  CD        40.8050  132.0930   32.3740 C.3   122  LYS122      0.0206
     82  CE        40.7450  132.0330   30.8670 C.3   122  LYS122      0.1093
     83  NZ        41.1650  133.3160   30.2460 N.3   122  LYS122     -0.1314
     84  N         49.8700  133.0820   33.9120 N.3   164  TYR164     -0.1241
     85  CA        48.9500  132.9390   32.7970 C.3   164  TYR164      0.1605
     86  C         48.2940  131.5800   32.8010 C.2   164  TYR164      0.2264
     87  O         48.9640  130.5470   32.8750 O.2   164  TYR164     -0.2867
     88  CB        49.6410  133.1440   31.4360 C.3   164  TYR164      0.0534
     89  CG        50.1670  134.5200   31.1090 C.ar  164  TYR164     -0.0201
     90  CD1       49.9600  135.5970   31.9720 C.ar  164  TYR164     -0.0009
     91  CD2       50.8650  134.7560   29.9270 C.ar  164  TYR164     -0.0009
     92  CE1       50.4880  136.8580   31.6930 C.ar  164  TYR164      0.0417
     93  CE2       51.3770  136.0190   29.6250 C.ar  164  TYR164      0.0417
     94  CZ        51.1720  137.0710   30.5030 C.ar  164  TYR164      0.1957
     95  OH        51.7080  138.3080   30.2250 O.3   164  TYR164     -0.2866
@<TRIPOS>BOND
     1     1     2    1
     2     5     2    1
     3     5     6    1
     4     2     3    1
     5    37    36   ar
     6    39    40    1
     7    44    43    1
     8    36    38   ar
     9    36    35    1
    10     4     3    2
    11    43    40    1
    12    35    32    1
    13    40    41    1
    14    32    33    1
    15    32    31    1
    16    42    41    2
    17    33    34    2
    18    41    45   am
    19    31    28   am
    20     9    10    2
    21     9     8    1
    22    45    46    1
    23    29    28    2
    24     8     7    1
    25     8    11    1
    26    28    27    1
    27    46    49    1
    28    46    47    1
    29    13    12    2
    30    24    23    1
    31    11    12    1
    32    49    50    1
    33    27    26    1
    34    27    30    1
    35    51    50   ar
    36    51    53   ar
    37    12    14   am
    38    47    48    2
    39    47    56   am
    40    61    60    1
    41    26    17   am
    42    50    52   ar
    43    93    91   ar
    44    93    94   ar
    45    23    25    1
    46    23    22    2
    47    53    55   ar
    48    56    57    1
    49    91    89   ar
    50    21    22    1
    51    21    20    1
    52    60    57    1
    53    95    94    1
    54    83    82    1
    55    19    20    1
    56    19    16    1
    57    17    18    2
    58    17    16    1
    59    94    92   ar
    60    74    71    1
    61    57    58    1
    62    82    81    1
    63    52    54   ar
    64    55    54   ar
    65    16    15    1
    66    89    88    1
    67    89    90   ar
    68    59    58    2
    69    88    85    1
    70    92    90   ar
    71    71    70    1
    72    71    72    1
    73    81    80    1
    74    70    64   am
    75    73    72    2
    76    64    65    2
    77    64    63    1
    78    68    67    2
    79    85    86    1
    80    85    84    1
    81    86    87    2
    82    63    66    1
    83    63    62    1
    84    80    79    1
    85    66    67    1
    86    67    69   am
    87    79    76    1
    88    75    76    1
    89    76    77    1
    90    77    78    2
