@<TRIPOS>MOLECULE
tmp/4r5oA01.pdb
 95 90 0 0 0
SMALL
GASTEIGER

@<TRIPOS>ATOM
      1  N         51.4920   50.2500   24.3680 N.3    26  SER26      -0.1217
      2  CA        50.6420   49.2590   25.0080 C.3    26  SER26       0.1889
      3  C         50.8520   49.2960   26.5270 C.2    26  SER26       0.2288
      4  O         51.9800   49.3630   27.0010 O.2    26  SER26      -0.2866
      5  CB        50.9260   47.8720   24.4400 C.3    26  SER26       0.2089
      6  OG        50.0720   46.8890   25.0050 O.3    26  SER26      -0.2183
      7  N         37.8260   46.2450   22.6890 N.3    54  ASN54      -0.1240
      8  CA        37.7430   45.1440   21.7180 C.3    54  ASN54       0.1653
      9  C         36.6000   45.4100   20.6870 C.2    54  ASN54       0.2266
     10  O         35.8190   44.5100   20.3680 O.2    54  ASN54      -0.2867
     11  CB        37.5590   43.8040   22.4100 C.3    54  ASN54       0.1155
     12  CG        38.7600   43.3940   23.2060 C.2    54  ASN54       0.2627
     13  OD1       39.9030   43.5120   22.7510 O.2    54  ASN54      -0.2716
     14  ND2       38.5250   42.8460   24.3910 N.am   54  ASN54      -0.0877
     15  N         43.4000   41.0680   28.3420 N.3    73  ARG73      -0.1231
     16  CA        44.0980   41.6540   27.2110 C.3    73  ARG73       0.1694
     17  C         43.0010   42.2550   26.3620 C.2    73  ARG73       0.2592
     18  O         41.9560   41.6220   26.2090 O.2    73  ARG73      -0.2718
     19  CB        45.0350   40.6760   26.4500 C.3    73  ARG73       0.0321
     20  CG        44.3530   39.5540   25.7780 C.3    73  ARG73       0.0489
     21  CD        45.1930   38.8970   24.7200 C.3    73  ARG73       0.2205
     22  NE        44.4050   37.8230   24.1040 N.pl3  73  ARG73      -0.0865
     23  CZ        44.7790   37.0920   23.0670 C.cat  73  ARG73       0.5346
     24  NH1       45.9420   37.3160   22.4750 N.pl3  73  ARG73       0.1354
     25  NH2       43.9830   36.1350   22.6030 N.pl3  73  ARG73       0.1354
     26  N         43.1710   43.5100   25.9200 N.am   74  ALA74      -0.1966
     27  CA        42.1560   44.2200   25.1520 C.3    74  ALA74       0.1728
     28  C         42.7630   45.2930   24.2610 C.2    74  ALA74       0.2616
     29  O         43.8200   45.8320   24.5690 O.2    74  ALA74      -0.2715
     30  CB        41.1420   44.8640   26.0920 C.3    74  ALA74       0.0334
     31  N         42.0890   45.5690   23.1390 N.am   75  ASP75      -0.1971
     32  CA        42.3830   46.6420   22.2020 C.3    75  ASP75       0.1709
     33  C         41.5240   47.8120   22.6050 C.2    75  ASP75       0.2293
     34  O         40.3680   47.6130   22.9920 O.2    75  ASP75      -0.2864
     35  CB        42.1500   46.2090   20.7390 C.3    75  ASP75       0.1436
     36  CG        43.1880   45.2680   20.1580 C.2    75  ASP75       0.3671
     37  OD1       44.3880   45.6370   20.1510 O.co2  75  ASP75      -0.2456
     38  OD2       42.7900   44.2310   19.5750 O.co2  75  ASP75      -0.2456
     39  N         46.4530   49.3890   23.3110 N.3    91  SER91      -0.1202
     40  CA        46.0240   48.1220   23.8690 C.3    91  SER91       0.2020
     41  C         46.4540   48.0680   25.3250 C.2    91  SER91       0.2619
     42  O         47.3150   48.8460   25.7470 O.2    91  SER91      -0.2717
     43  CB        46.5690   46.9510   23.0600 C.3    91  SER91       0.2103
     44  OG        47.9830   46.9870   23.0010 O.3    91  SER91      -0.2182
     45  N         45.7790   47.2340   26.1160 N.am   92  PHE92      -0.1961
     46  CA        46.1130   47.0650   27.5230 C.3    92  PHE92       0.1771
     47  C         45.9670   45.6010   27.9000 C.2    92  PHE92       0.2620
     48  O         45.2760   44.8350   27.2170 O.2    92  PHE92      -0.2715
     49  CB        45.2790   47.9640   28.4400 C.3    92  PHE92       0.0574
     50  CG        43.8000   47.7000   28.5210 C.ar   92  PHE92      -0.0200
     51  CD1       42.9200   48.3380   27.6680 C.ar   92  PHE92      -0.0042
     52  CD2       43.2800   46.8970   29.5180 C.ar   92  PHE92      -0.0042
     53  CE1       41.5470   48.1640   27.8030 C.ar   92  PHE92      -0.0003
     54  CE2       41.9120   46.7090   29.6360 C.ar   92  PHE92      -0.0003
     55  CZ        41.0540   47.3560   28.7880 C.ar   92  PHE92      -0.0000
     56  N         46.6930   45.2090   28.9490 N.am   93  SER93      -0.1950
     57  CA        46.7140   43.8510   29.4760 C.3    93  SER93       0.1924
     58  C         47.1080   43.8790   30.9250 C.2    93  SER93       0.2314
     59  O         47.6860   44.8520   31.3850 O.2    93  SER93      -0.2863
     60  CB        47.6700   42.9680   28.6700 C.3    93  SER93       0.2116
     61  OG        49.0000   43.4560   28.7450 O.3    93  SER93      -0.2180
     62  N         40.1240   36.8050   25.6810 N.3   129  ASN129     -0.1225
     63  CA        39.8590   36.4110   24.2910 C.3   129  ASN129      0.1785
     64  C         38.6990   37.1810   23.6880 C.2   129  ASN129      0.2597
     65  O         37.9530   36.6400   22.8640 O.2   129  ASN129     -0.2718
     66  CB        39.5780   34.8930   24.1660 C.3   129  ASN129      0.1169
     67  CG        40.8230   34.0850   24.3740 C.2   129  ASN129      0.2627
     68  OD1       41.6530   33.9530   23.4640 O.2   129  ASN129     -0.2716
     69  ND2       41.0500   33.6520   25.6100 N.am  129  ASN129     -0.0877
     70  N         38.6050   38.4590   24.0320 N.am  130  ALA130     -0.1979
     71  CA        37.6150   39.3970   23.5070 C.3   130  ALA130      0.1597
     72  C         36.1890   38.8410   23.5960 C.2   130  ALA130      0.2287
     73  O         35.4260   38.9370   22.6310 O.2   130  ALA130     -0.2864
     74  CB        37.9470   39.7460   22.0500 C.3   130  ALA130      0.0319
     75  N         35.1200   35.7250   23.7470 N.3   132  LYS132     -0.1245
     76  CA        34.8850   34.4060   23.1600 C.3   132  LYS132      0.1561
     77  C         34.3700   33.4480   24.2040 C.2   132  LYS132      0.2260
     78  O         34.7480   33.5340   25.3810 O.2   132  LYS132     -0.2867
     79  CB        36.1500   33.8020   22.5020 C.3   132  LYS132      0.0271
     80  CG        36.5490   34.3480   21.1470 C.3   132  LYS132      0.0035
     81  CD        37.6840   33.4760   20.5430 C.3   132  LYS132      0.0206
     82  CE        38.3030   34.0980   19.3060 C.3   132  LYS132      0.1093
     83  NZ        38.9250   35.4390   19.5860 N.3   132  LYS132     -0.1314
     84  N         45.2110   31.8370   25.7120 N.3   174  TYR174     -0.1241
     85  CA        44.8890   32.4120   24.4180 C.3   174  TYR174      0.1605
     86  C         44.3510   31.3350   23.5060 C.2   174  TYR174      0.2264
     87  O         44.9310   30.2460   23.4200 O.2   174  TYR174     -0.2867
     88  CB        46.1220   33.0960   23.7710 C.3   174  TYR174      0.0534
     89  CG        46.7120   34.3220   24.4510 C.ar  174  TYR174     -0.0201
     90  CD1       46.1400   34.8560   25.6040 C.ar  174  TYR174     -0.0009
     91  CD2       47.8340   34.9630   23.9270 C.ar  174  TYR174     -0.0009
     92  CE1       46.6850   35.9760   26.2330 C.ar  174  TYR174      0.0417
     93  CE2       48.3710   36.1040   24.5320 C.ar  174  TYR174      0.0417
     94  CZ        47.7900   36.6100   25.6840 C.ar  174  TYR174      0.1957
     95  OH        48.2950   37.7400   26.2910 O.3   174  TYR174     -0.2866
@<TRIPOS>BOND
     1    82    83    1
     2    82    81    1
     3    38    36   ar
     4    37    36   ar
     5    36    35    1
     6    10     9    2
     7    81    80    1
     8     9     8    1
     9    35    32    1
    10    80    79    1
    11     8    11    1
    12     8     7    1
    13    74    71    1
    14    32    33    1
    15    32    31    1
    16    11    12    1
    17    24    23    1
    18    79    76    1
    19    25    23    1
    20    33    34    2
    21    73    72    2
    22    13    12    2
    23    65    64    2
    24    44    43    1
    25    43    40    1
    26    23    22    2
    27    31    28   am
    28    76    75    1
    29    76    77    1
    30    12    14   am
    31    39    40    1
    32    87    86    2
    33    68    67    2
    34    86    85    1
    35    71    72    1
    36    71    70    1
    37    64    70   am
    38    64    63    1
    39    88    85    1
    40    88    89    1
    41    40    41    1
    42    91    89   ar
    43    91    93   ar
    44    22    21    1
    45    66    63    1
    46    66    67    1
    47    77    78    2
    48    28    29    2
    49    28    27    1
    50    63    62    1
    51     1     2    1
    52    67    69   am
    53    85    84    1
    54     5     6    1
    55     5     2    1
    56    89    90   ar
    57    93    94   ar
    58    21    20    1
    59     2     3    1
    60    27    26    1
    61    27    30    1
    62    41    42    2
    63    41    45   am
    64    90    92   ar
    65    94    92   ar
    66    94    95    1
    67    20    19    1
    68    26    17   am
    69    45    46    1
    70    18    17    2
    71    17    16    1
    72    19    16    1
    73     3     4    2
    74    16    15    1
    75    48    47    2
    76    46    47    1
    77    46    49    1
    78    51    53   ar
    79    51    50   ar
    80    53    55   ar
    81    47    56   am
    82    49    50    1
    83    50    52   ar
    84    60    61    1
    85    60    57    1
    86    55    54   ar
    87    56    57    1
    88    57    58    1
    89    52    54   ar
    90    58    59    2
