@<TRIPOS>MOLECULE
tmp/4r5pA00.pdb
 124 117 0 0 0
SMALL
GASTEIGER

@<TRIPOS>ATOM
      1  N        -18.1130   31.9540   28.7350 N.3    64  ILE64      -0.1245
      2  CA       -18.6260   32.5510   29.9550 C.3    64  ILE64       0.1561
      3  C        -17.4130   33.2910   30.5210 C.2    64  ILE64       0.2260
      4  O        -16.2810   32.8540   30.3240 O.2    64  ILE64      -0.2867
      5  CB       -19.2050   31.4950   30.9270 C.3    64  ILE64       0.0252
      6  CG1      -18.1200   30.8540   31.7920 C.3    64  ILE64       0.0019
      7  CG2      -19.9200   30.4060   30.1490 C.3    64  ILE64       0.0019
      8  CD1      -18.6490   29.7430   32.6840 C.3    64  ILE64       0.0001
      9  N        -14.4470   34.3090   32.6700 N.3    66  LYS66      -0.1245
     10  CA       -13.5640   33.8100   33.7210 C.3    66  LYS66       0.1561
     11  C        -13.7430   34.6220   35.0100 C.2    66  LYS66       0.2260
     12  O        -13.6170   35.8470   34.9780 O.2    66  LYS66      -0.2867
     13  CB       -12.1190   33.8820   33.2200 C.3    66  LYS66       0.0271
     14  CG       -11.0910   33.0450   33.9450 C.3    66  LYS66       0.0035
     15  CD        -9.7580   33.2140   33.2370 C.3    66  LYS66       0.0206
     16  CE        -8.6080   32.6060   34.0000 C.3    66  LYS66       0.1093
     17  NZ        -7.3530   32.8370   33.2380 N.3    66  LYS66      -0.1314
     18  N        -13.4740   32.9930   29.2000 N.3    73  ARG73      -0.1245
     19  CA       -13.0800   31.5770   29.0840 C.3    73  ARG73       0.1563
     20  C        -13.9670   30.8200   28.0860 C.2    73  ARG73       0.2260
     21  O        -15.1880   30.9790   28.0670 O.2    73  ARG73      -0.2867
     22  CB       -13.0900   30.8810   30.4730 C.3    73  ARG73       0.0307
     23  CG       -14.4640   30.5430   31.1300 C.3    73  ARG73       0.0489
     24  CD       -14.3130   29.6560   32.4020 C.3    73  ARG73       0.2205
     25  NE       -13.3850   28.5500   32.1600 N.pl3  73  ARG73      -0.0865
     26  CZ       -12.1760   28.4340   32.7140 C.cat  73  ARG73       0.5346
     27  NH1      -11.7440   29.3380   33.5960 N.pl3  73  ARG73       0.1354
     28  NH2      -11.3970   27.4030   32.3940 N.pl3  73  ARG73       0.1354
     29  N        -15.7020   27.5930   26.2880 N.3    75  LEU75      -0.1245
     30  CA       -16.3270   26.3090   26.5590 C.3    75  LEU75       0.1561
     31  C        -17.1010   25.7970   25.3550 C.2    75  LEU75       0.2260
     32  O        -17.9440   26.4980   24.8080 O.2    75  LEU75      -0.2867
     33  CB       -17.2640   26.4180   27.7720 C.3    75  LEU75       0.0270
     34  CG       -16.7090   27.1620   28.9910 C.3    75  LEU75       0.0019
     35  CD1      -17.8020   27.4420   30.0240 C.3    75  LEU75       0.0001
     36  CD2      -15.5370   26.3920   29.6050 C.3    75  LEU75       0.0001
     37  N          0.5430   27.9390   38.9900 N.3   111  ASP111     -0.1225
     38  CA        -0.6110   27.5100   38.2270 C.3   111  ASP111      0.1805
     39  C         -0.0350   27.2930   36.8340 C.2   111  ASP111      0.2597
     40  O          0.9240   27.9680   36.4890 O.2   111  ASP111     -0.2718
     41  CB        -1.6810   28.6180   38.2830 C.3   111  ASP111      0.1424
     42  CG        -2.9970   28.2580   37.5930 C.2   111  ASP111      0.3668
     43  OD1       -3.0940   28.4220   36.3570 O.co2 111  ASP111     -0.2456
     44  OD2       -3.9580   27.8800   38.3010 O.co2 111  ASP111     -0.2456
     45  N         -0.5090   26.3010   36.0770 N.am  112  VAL112     -0.1980
     46  CA        -0.1780   26.1160   34.6580 C.3   112  VAL112      0.1595
     47  C         -1.0720   26.9890   33.7790 C.2   112  VAL112      0.2287
     48  O         -2.2950   27.0570   33.9870 O.2   112  VAL112     -0.2864
     49  CB        -0.2310   24.6370   34.2250 C.3   112  VAL112      0.0276
     50  CG1       -0.3240   24.5110   32.7120 C.3   112  VAL112      0.0022
     51  CG2        1.0220   23.9310   34.7060 C.3   112  VAL112      0.0022
     52  N         -2.7380   27.9640   30.3720 N.3   114  ASP114     -0.1225
     53  CA        -3.5190   27.2970   29.3260 C.3   114  ASP114      0.1805
     54  C         -3.2770   25.8050   29.3750 C.2   114  ASP114      0.2598
     55  O         -2.6100   25.2440   28.5080 O.2   114  ASP114     -0.2718
     56  CB        -3.1860   27.8410   27.9390 C.3   114  ASP114      0.1424
     57  CG        -4.0820   28.9980   27.5330 C.2   114  ASP114      0.3668
     58  OD1       -5.2660   29.0250   27.9600 O.co2 114  ASP114     -0.2456
     59  OD2       -3.5940   29.8770   26.7820 O.co2 114  ASP114     -0.2456
     60  N         -3.7880   25.1660   30.4100 N.am  115  ALA115     -0.1966
     61  CA        -3.4130   23.7940   30.6800 C.3   115  ALA115      0.1728
     62  C         -3.9880   22.8000   29.6680 C.2   115  ALA115      0.2616
     63  O         -3.2270   22.0320   29.0730 O.2   115  ALA115     -0.2715
     64  CB        -3.8220   23.4350   32.0730 C.3   115  ALA115      0.0334
     65  N         -5.3070   22.8130   29.4600 N.am  116  TYR116     -0.1974
     66  CA        -5.9140   21.8540   28.5370 C.3   116  TYR116      0.1639
     67  C         -5.4210   22.0300   27.1060 C.2   116  TYR116      0.2290
     68  O         -5.3660   21.0740   26.3260 O.2   116  TYR116     -0.2864
     69  CB        -7.4360   22.0320   28.4900 C.3   116  TYR116      0.0560
     70  CG        -8.2920   21.4160   29.5710 C.ar  116  TYR116     -0.0198
     71  CD1       -7.7530   20.7030   30.6380 C.ar  116  TYR116     -0.0009
     72  CD2       -9.6780   21.5500   29.4980 C.ar  116  TYR116     -0.0009
     73  CE1       -8.5980   20.1490   31.6120 C.ar  116  TYR116      0.0417
     74  CE2      -10.5170   21.0120   30.4500 C.ar  116  TYR116      0.0417
     75  CZ        -9.9880   20.3150   31.5020 C.ar  116  TYR116      0.1957
     76  OH       -10.8810   19.8020   32.4160 O.3   116  TYR116     -0.2866
     77  N        -12.0550   22.2720   26.3340 N.3   152  GLN152     -0.1231
     78  CA       -12.8140   22.4100   27.5580 C.3   152  GLN152      0.1698
     79  C        -14.2560   22.0220   27.3040 C.2   152  GLN152      0.2592
     80  O        -14.9050   22.6170   26.4470 O.2   152  GLN152     -0.2718
     81  CB       -12.7330   23.8310   28.0830 C.3   152  GLN152      0.0381
     82  CG       -11.3170   24.3020   28.1980 C.3   152  GLN152      0.0905
     83  CD       -11.1520   25.3060   29.2920 C.2   152  GLN152      0.2608
     84  OE1      -12.1350   25.7890   29.8690 O.2   152  GLN152     -0.2717
     85  NE2       -9.9040   25.6330   29.5970 N.am  152  GLN152     -0.0878
     86  N        -14.7660   21.0430   28.0410 N.am  153  GLY153     -0.1957
     87  CA       -16.1240   20.5820   27.8150 C.3   153  GLY153      0.1869
     88  C        -16.2650   19.1860   27.2580 C.2   153  GLY153      0.2309
     89  O        -17.3730   18.6470   27.1840 O.2   153  GLY153     -0.2863
     90  N         -5.6400   15.0300   30.7150 N.3   161  PHE161     -0.1241
     91  CA        -4.7440   16.0530   31.2220 C.3   161  PHE161      0.1605
     92  C         -3.9740   15.6150   32.4560 C.2   161  PHE161      0.2264
     93  O         -2.7360   15.6720   32.4680 O.2   161  PHE161     -0.2867
     94  CB        -5.5120   17.3230   31.5560 C.3   161  PHE161      0.0534
     95  CG        -4.6430   18.4180   32.1050 C.ar  161  PHE161     -0.0203
     96  CD1       -3.3110   18.5070   31.7520 C.ar  161  PHE161     -0.0042
     97  CD2       -5.1470   19.3460   32.9720 C.ar  161  PHE161     -0.0042
     98  CE1       -2.4990   19.4910   32.2530 C.ar  161  PHE161     -0.0003
     99  CE2       -4.3400   20.3310   33.4720 C.ar  161  PHE161     -0.0003
    100  CZ        -3.0090   20.3960   33.1100 C.ar  161  PHE161     -0.0000
    101  N         -5.1750   18.8390   39.0580 N.3   185  MET185     -0.1230
    102  CA        -5.5010   19.4660   37.7790 C.3   185  MET185      0.1702
    103  C         -4.2500   20.1330   37.2470 C.2   185  MET185      0.2592
    104  O         -3.2190   19.4600   37.0690 O.2   185  MET185     -0.2718
    105  CB        -6.6630   20.4470   37.8790 C.3   185  MET185      0.0401
    106  CG        -7.4190   20.5730   36.5720 C.3   185  MET185      0.0596
    107  SD        -7.9320   18.9960   35.8340 S.3   185  MET185     -0.1393
    108  CE        -9.5770   18.8310   36.5530 C.3   185  MET185      0.0692
    109  N         -4.3290   21.4500   37.0070 N.am  186  ASP186     -0.1960
    110  CA        -3.1200   22.2120   36.6670 C.3   186  ASP186      0.1840
    111  C         -2.3930   22.9640   37.8190 C.2   186  ASP186      0.2622
    112  O         -1.3970   23.6490   37.6020 O.2   186  ASP186     -0.2715
    113  CB        -3.4770   23.2080   35.5670 C.3   186  ASP186      0.1450
    114  CG        -4.2950   24.3750   36.0720 C.2   186  ASP186      0.3671
    115  OD1       -4.9270   24.2570   37.1270 O.co2 186  ASP186     -0.2456
    116  OD2       -4.3070   25.4290   35.4040 O.co2 186  ASP186     -0.2456
    117  N         -2.9340   22.8930   39.0250 N.am  187  ASP187     -0.1971
    118  CA        -2.3530   23.5490   40.1980 C.3   187  ASP187      0.1709
    119  C         -1.1910   22.7470   40.8240 C.2   187  ASP187      0.2293
    120  O         -1.3680   21.5820   41.1920 O.2   187  ASP187     -0.2864
    121  CB        -3.4290   23.8400   41.2260 C.3   187  ASP187      0.1436
    122  CG        -4.2140   25.0880   40.8890 C.2   187  ASP187      0.3671
    123  OD1       -4.2330   25.4890   39.6960 O.co2 187  ASP187     -0.2456
    124  OD2       -4.7990   25.6700   41.8320 O.co2 187  ASP187     -0.2456
@<TRIPOS>BOND
     1    32    31    2
     2    31    30    1
     3    29    30    1
     4    68    67    2
     5    77    78    1
     6    80    79    2
     7    30    33    1
     8    59    57   ar
     9    67    66    1
    10    89    88    2
    11    88    87    1
    12    79    78    1
    13    79    86   am
    14    57    56    1
    15    57    58   ar
    16    78    81    1
    17    33    34    1
    18    87    86    1
    19    56    53    1
    20    21    20    2
    21    81    82    1
    22    20    19    1
    23    82    83    1
    24    69    66    1
    25    69    70    1
    26    55    54    2
    27    66    65    1
    28     1     2    1
    29    34    36    1
    30    34    35    1
    31    63    62    2
    32    19    18    1
    33    19    22    1
    34    83    85   am
    35    83    84    2
    36    53    54    1
    37    53    52    1
    38    54    60   am
    39    65    62   am
    40    72    70   ar
    41    72    74   ar
    42    70    71   ar
    43    62    61    1
    44     2     3    1
    45     2     5    1
    46     7     5    1
    47     4     3    2
    48    60    61    1
    49    74    75   ar
    50    22    23    1
    51    71    73   ar
    52    61    64    1
    53    90    91    1
    54     5     6    1
    55    23    24    1
    56    91    94    1
    57    91    92    1
    58    75    73   ar
    59    75    76    1
    60    94    95    1
    61    96    95   ar
    62    96    98   ar
    63     6     8    1
    64    95    97   ar
    65    25    24    1
    66    25    26    2
    67    98   100   ar
    68    28    26    1
    69    92    93    2
    70     9    10    1
    71    50    49    1
    72    26    27    1
    73    97    99   ar
    74   100    99   ar
    75    13    10    1
    76    13    14    1
    77    15    14    1
    78    15    16    1
    79    17    16    1
    80    10    11    1
    81    47    48    2
    82    47    46    1
    83    49    46    1
    84    49    51    1
    85    46    45    1
    86    12    11    2
    87   116   114   ar
    88   113   114    1
    89   113   110    1
    90   107   108    1
    91   107   106    1
    92   114   115   ar
    93    45    39   am
    94    43    42   ar
    95    40    39    2
    96   106   105    1
    97   110   109    1
    98   110   111    1
    99    39    38    1
   100   109   103   am
   101   104   103    2
   102   103   102    1
   103    42    41    1
   104    42    44   ar
   105   112   111    2
   106   102   105    1
   107   102   101    1
   108   111   117   am
   109    38    41    1
   110    38    37    1
   111   117   118    1
   112   123   122   ar
   113   118   119    1
   114   118   121    1
   115   119   120    2
   116   122   121    1
   117   122   124   ar
