@<TRIPOS>MOLECULE
tmp/4r5sA00.pdb
 202 190 0 0 0
SMALL
GASTEIGER

@<TRIPOS>ATOM
      1  N        -47.9030   11.3750  -19.7550 N.3    20  LYS20      -0.1245
      2  CA       -46.9750   10.4650  -19.1030 C.3    20  LYS20       0.1561
      3  C        -46.8110    9.1650  -19.8680 C.2    20  LYS20       0.2260
      4  O        -47.6350    8.8320  -20.6930 O.2    20  LYS20      -0.2867
      5  CB       -47.4000   10.2080  -17.6600 C.3    20  LYS20       0.0271
      6  CG       -48.3440    9.0380  -17.4640 C.3    20  LYS20       0.0035
      7  CD       -48.6760    8.8480  -15.9970 C.3    20  LYS20       0.0206
      8  CE       -49.0100    7.4030  -15.6840 C.3    20  LYS20       0.1093
      9  NZ       -48.9390    7.1380  -14.2240 N.3    20  LYS20      -0.1314
     10  N        -46.8400    5.2370  -20.6130 N.3    22  LEU22      -0.1231
     11  CA       -47.5280    4.0350  -20.2050 C.3    22  LEU22       0.1693
     12  C        -46.6960    2.8240  -20.5470 C.2    22  LEU22       0.2592
     13  O        -46.6130    1.8700  -19.7870 O.2    22  LEU22      -0.2718
     14  CB       -48.8730    3.9400  -20.9020 C.3    22  LEU22       0.0284
     15  CG       -49.8680    5.0420  -20.5720 C.3    22  LEU22       0.0019
     16  CD1      -51.0110    5.0060  -21.5620 C.3    22  LEU22       0.0001
     17  CD2      -50.3940    4.8690  -19.1640 C.3    22  LEU22       0.0001
     18  N        -46.0900    2.8680  -21.7210 N.am   23  GLY23      -0.1957
     19  CA       -45.2520    1.7880  -22.1860 C.3    23  GLY23       0.1869
     20  C        -44.0740    2.3450  -22.9440 C.2    23  GLY23       0.2309
     21  O        -44.1650    3.4060  -23.5460 O.2    23  GLY23      -0.2863
     22  N        -45.4930    4.7530  -25.6430 N.3    30  VAL30      -0.1245
     23  CA       -46.9010    5.1120  -25.6250 C.3    30  VAL30       0.1561
     24  C        -47.2350    6.0180  -24.4570 C.2    30  VAL30       0.2260
     25  O        -46.9280    5.6990  -23.3240 O.2    30  VAL30      -0.2867
     26  CB       -47.7630    3.8590  -25.5160 C.3    30  VAL30       0.0252
     27  CG1      -49.1870    4.1680  -25.9130 C.3    30  VAL30       0.0019
     28  CG2      -47.1900    2.7590  -26.3840 C.3    30  VAL30       0.0019
     29  N        -54.5710    7.4080  -25.6810 N.3    47  ALA47      -0.1245
     30  CA       -53.2680    6.7850  -25.6000 C.3    47  ALA47       0.1562
     31  C        -52.5510    7.1660  -26.8850 C.2    47  ALA47       0.2260
     32  O        -53.0940    6.9820  -27.9720 O.2    47  ALA47      -0.2867
     33  CB       -53.3820    5.2930  -25.4490 C.3    47  ALA47       0.0290
     34  N        -49.2680    6.6030  -29.2340 N.3    49  LYS49      -0.1245
     35  CA       -48.1690    5.7160  -29.5020 C.3    49  LYS49       0.1561
     36  C        -47.3230    6.4100  -30.5260 C.2    49  LYS49       0.2260
     37  O        -47.8260    6.8760  -31.5320 O.2    49  LYS49      -0.2867
     38  CB       -48.6900    4.4020  -30.0510 C.3    49  LYS49       0.0271
     39  CG       -47.6340    3.5470  -30.7090 C.3    49  LYS49       0.0035
     40  CD       -48.1170    2.1190  -30.8510 C.3    49  LYS49       0.0206
     41  CE       -47.0520    1.2380  -31.4710 C.3    49  LYS49       0.1093
     42  NZ       -47.4750   -0.1870  -31.4770 N.3    49  LYS49      -0.1314
     43  N        -47.1540   -0.0510  -38.5810 N.3    63  ILE63      -0.1245
     44  CA       -48.1090    0.5500  -37.6620 C.3    63  ILE63       0.1561
     45  C        -49.2770    1.1740  -38.4050 C.2    63  ILE63       0.2260
     46  O        -50.4080    1.1430  -37.9140 O.2    63  ILE63      -0.2867
     47  CB       -47.4250    1.6020  -36.7510 C.3    63  ILE63       0.0252
     48  CG1      -47.8070    1.3410  -35.2910 C.3    63  ILE63       0.0019
     49  CG2      -47.7400    3.0400  -37.1740 C.3    63  ILE63       0.0019
     50  CD1      -47.6550   -0.1310  -34.8720 C.3    63  ILE63       0.0001
     51  N        -51.5860   -1.3590  -39.1580 N.3    66  GLU66      -0.1245
     52  CA       -52.4320   -1.5700  -37.9790 C.3    66  GLU66       0.1567
     53  C        -53.5530   -0.5470  -37.8110 C.2    66  GLU66       0.2260
     54  O        -54.6950   -0.9000  -37.5720 O.2    66  GLU66      -0.2867
     55  CB       -51.6230   -1.6590  -36.6910 C.3    66  GLU66       0.0388
     56  CG       -52.5050   -1.7810  -35.4590 C.3    66  GLU66       0.1160
     57  CD       -52.0210   -2.8320  -34.4860 C.2    66  GLU66       0.3649
     58  OE1      -50.8430   -2.7810  -34.0930 O.co2  66  GLU66      -0.2457
     59  OE2      -52.8170   -3.7090  -34.1120 O.co2  66  GLU66      -0.2457
     60  N        -57.7140   -0.7360  -37.3220 N.3    70  MET70      -0.1245
     61  CA       -58.4640   -0.1860  -36.2170 C.3    70  MET70       0.1570
     62  C        -59.4830    0.7710  -36.7630 C.2    70  MET70       0.2261
     63  O        -60.5910    0.8510  -36.2750 O.2    70  MET70      -0.2867
     64  CB       -57.5430    0.5880  -35.2930 C.3    70  MET70       0.0387
     65  CG       -56.7870   -0.2700  -34.3130 C.3    70  MET70       0.0595
     66  SD       -55.5840    0.7000  -33.4140 S.3    70  MET70      -0.1393
     67  CE       -56.4700    0.9850  -31.8990 C.3    70  MET70       0.0692
     68  N        -61.6040   -1.4660  -29.3110 N.3    79  CYS79      -0.1235
     69  CA       -60.8120   -0.2640  -29.1180 C.3    79  CYS79       0.1677
     70  C        -60.6450    0.4270  -30.4460 C.2    79  CYS79       0.2270
     71  O        -59.9680   -0.0840  -31.3300 O.2    79  CYS79      -0.2867
     72  CB       -59.4520   -0.5960  -28.5010 C.3    79  CYS79       0.0956
     73  SG       -58.7740    0.7870  -27.5280 S.3    79  CYS79      -0.0801
     74  N        -49.8050    7.5370  -33.3600 N.3    92  LEU92      -0.1245
     75  CA       -51.1030    6.9070  -33.4390 C.3    92  LEU92       0.1561
     76  C        -51.8850    7.2400  -32.1930 C.2    92  LEU92       0.2260
     77  O        -51.3550    7.2080  -31.1030 O.2    92  LEU92      -0.2867
     78  CB       -50.9490    5.4020  -33.5570 C.3    92  LEU92       0.0270
     79  CG       -52.1600    4.7100  -34.1550 C.3    92  LEU92       0.0019
     80  CD1      -51.6990    3.6660  -35.1470 C.3    92  LEU92       0.0001
     81  CD2      -53.0110    4.0820  -33.0720 C.3    92  LEU92       0.0001
     82  N        -55.2680    6.4810  -29.9250 N.3    94  THR94      -0.1203
     83  CA       -56.4840    5.7230  -29.6340 C.3    94  THR94       0.1994
     84  C        -57.0930    6.1470  -28.3290 C.2    94  THR94       0.2618
     85  O        -56.5660    7.0030  -27.6300 O.2    94  THR94      -0.2717
     86  CB       -56.2650    4.1960  -29.5430 C.3    94  THR94       0.1784
     87  OG1      -56.0580    3.8210  -28.1790 O.3    94  THR94      -0.2211
     88  CG2      -55.0920    3.7670  -30.3600 C.3    94  THR94       0.0376
     89  N        -58.2040    5.5050  -28.0030 N.am   95  GLN95      -0.1965
     90  CA       -58.9460    5.8180  -26.7980 C.3    95  GLN95       0.1733
     91  C        -58.2660    5.2100  -25.5940 C.2    95  GLN95       0.2616
     92  O        -57.8220    4.0630  -25.6380 O.2    95  GLN95      -0.2715
     93  CB       -60.3750    5.3180  -26.9230 C.3    95  GLN95       0.0408
     94  CG       -61.1530    5.2190  -25.6320 C.3    95  GLN95       0.0908
     95  CD       -62.5060    4.5860  -25.8730 C.2    95  GLN95       0.2608
     96  OE1      -62.6240    3.6360  -26.6580 O.2    95  GLN95      -0.2717
     97  NE2      -63.5400    5.1270  -25.2390 N.am   95  GLN95      -0.0878
     98  N        -58.1840    5.9970  -24.5250 N.am   96  LEU96      -0.1963
     99  CA       -57.4500    5.6090  -23.3310 C.3    96  LEU96       0.1728
    100  C        -58.2780    4.6570  -22.5240 C.2    96  LEU96       0.2616
    101  O        -59.4620    4.8950  -22.3140 O.2    96  LEU96      -0.2715
    102  CB       -57.0880    6.8250  -22.4750 C.3    96  LEU96       0.0311
    103  CG       -56.3480    6.5040  -21.1740 C.3    96  LEU96       0.0022
    104  CD1      -54.9740    5.9630  -21.4610 C.3    96  LEU96       0.0001
    105  CD2      -56.2510    7.7130  -20.2930 C.3    96  LEU96       0.0001
    106  N        -57.6560    3.5790  -22.0690 N.am   97  MET97      -0.1964
    107  CA       -58.3490    2.6130  -21.2500 C.3    97  MET97       0.1722
    108  C        -57.7010    2.5870  -19.8840 C.2    97  MET97       0.2458
    109  O        -56.7580    1.8420  -19.6580 O.2    97  MET97      -0.2730
    110  CB       -58.3110    1.2520  -21.9210 C.3    97  MET97       0.0427
    111  CG       -58.7620    1.3210  -23.3570 C.3    97  MET97       0.0599
    112  SD       -60.5390    1.5130  -23.4880 S.3    97  MET97      -0.1393
    113  CE       -61.0050   -0.1180  -22.9400 C.3    97  MET97       0.0692
    114  N        -58.2080    3.4190  -18.9670 N.am   98  PRO98      -0.2716
    115  CA       -57.5470    3.7850  -17.7080 C.3    98  PRO98       0.1536
    116  C        -57.0720    2.6390  -16.8220 C.2    98  PRO98       0.2599
    117  O        -56.0190    2.7830  -16.2200 O.2    98  PRO98      -0.2715
    118  CB       -58.6160    4.5960  -16.9990 C.3    98  PRO98       0.0310
    119  CG       -59.3330    5.2560  -18.1070 C.3    98  PRO98       0.0237
    120  CD       -59.4180    4.2200  -19.1920 C.3    98  PRO98       0.0939
    121  N        -57.8050    1.5460  -16.7550 N.am   99  PHE99      -0.1960
    122  CA       -57.4310    0.4530  -15.8840 C.3    99  PHE99       0.1771
    123  C        -56.5430   -0.5390  -16.5980 C.2    99  PHE99       0.2620
    124  O        -56.0860   -1.5050  -16.0170 O.2    99  PHE99      -0.2715
    125  CB       -58.6800   -0.1930  -15.3240 C.3    99  PHE99       0.0574
    126  CG       -59.6220    0.7950  -14.7250 C.ar   99  PHE99      -0.0200
    127  CD1      -60.4700    1.5210  -15.5250 C.ar   99  PHE99      -0.0042
    128  CD2      -59.6230    1.0310  -13.3720 C.ar   99  PHE99      -0.0042
    129  CE1      -61.3240    2.4480  -14.9850 C.ar   99  PHE99      -0.0003
    130  CE2      -60.4740    1.9560  -12.8240 C.ar   99  PHE99      -0.0003
    131  CZ       -61.3260    2.6670  -13.6310 C.ar   99  PHE99      -0.0000
    132  N        -56.2890   -0.2630  -17.8660 N.am  100  GLY100     -0.1940
    133  CA       -55.3700   -1.0440  -18.6650 C.3   100  GLY100      0.2014
    134  C        -55.6910   -2.4990  -18.8780 C.2   100  GLY100      0.2639
    135  O        -56.7810   -2.8430  -19.2810 O.2   100  GLY100     -0.2714
    136  N        -54.7080   -3.3470  -18.6420 N.am  101  CYS101     -0.1967
    137  CA       -54.8070   -4.7570  -18.9630 C.3   101  CYS101      0.1712
    138  C        -55.8550   -5.4380  -18.1410 C.2   101  CYS101      0.2296
    139  O        -55.8510   -5.3000  -16.9310 O.2   101  CYS101     -0.2864
    140  CB       -53.5210   -5.3310  -18.4580 C.3   101  CYS101      0.0983
    141  SG       -52.8250   -6.5600  -19.5740 S.3   101  CYS101     -0.0798
    142  N        -55.9760   -8.7200  -17.8990 N.3   103  LEU103     -0.1231
    143  CA       -55.1030   -9.6790  -17.2470 C.3   103  LEU103      0.1693
    144  C        -54.4990   -9.1600  -15.9470 C.2   103  LEU103      0.2592
    145  O        -54.5830   -9.8020  -14.9070 O.2   103  LEU103     -0.2718
    146  CB       -53.9780  -10.0750  -18.1780 C.3   103  LEU103      0.0284
    147  CG       -53.1700  -11.1890  -17.5360 C.3   103  LEU103      0.0019
    148  CD1      -54.1200  -12.3130  -17.1070 C.3   103  LEU103      0.0001
    149  CD2      -52.1240  -11.7080  -18.4900 C.3   103  LEU103      0.0001
    150  N        -53.8740   -7.9990  -16.0170 N.am  104  ASP104     -0.1974
    151  CA       -53.3680   -7.3660  -14.8320 C.3   104  ASP104      0.1709
    152  C        -54.4660   -7.1280  -13.8410 C.2   104  ASP104      0.2293
    153  O        -54.3370   -7.4660  -12.6720 O.2   104  ASP104     -0.2864
    154  CB       -52.7030   -6.0640  -15.1980 C.3   104  ASP104      0.1436
    155  CG       -51.4350   -6.2920  -15.9500 C.2   104  ASP104      0.3671
    156  OD1      -51.1650   -7.4780  -16.2440 O.co2 104  ASP104     -0.2456
    157  OD2      -50.7200   -5.3090  -16.2450 O.co2 104  ASP104     -0.2456
    158  N        -54.5940  -10.6260  -21.9050 N.3   145  ARG145     -0.1245
    159  CA       -53.7160   -9.4710  -22.0050 C.3   145  ARG145      0.1563
    160  C        -54.1730   -8.4660  -23.0510 C.2   145  ARG145      0.2260
    161  O        -53.8400   -7.2940  -22.9820 O.2   145  ARG145     -0.2867
    162  CB       -52.2870   -9.9130  -22.2800 C.3   145  ARG145      0.0307
    163  CG       -51.9960  -10.1910  -23.7340 C.3   145  ARG145      0.0489
    164  CD       -50.7070  -10.9680  -23.8780 C.3   145  ARG145      0.2205
    165  NE       -50.9630  -12.3830  -24.0790 N.pl3 145  ARG145     -0.0865
    166  CZ       -50.9640  -12.9690  -25.2640 C.cat 145  ARG145      0.5346
    167  NH1      -50.7160  -12.2630  -26.3480 N.pl3 145  ARG145      0.1354
    168  NH2      -51.2090  -14.2560  -25.3660 N.pl3 145  ARG145      0.1354
    169  N        -58.8770   -4.6760  -22.8040 N.3   148  LEU148     -0.1245
    170  CA       -58.5590   -3.4870  -22.0340 C.3   148  LEU148      0.1561
    171  C        -59.7310   -2.9330  -21.2460 C.2   148  LEU148      0.2260
    172  O        -60.8390   -2.8630  -21.7410 O.2   148  LEU148     -0.2867
    173  CB       -57.9820   -2.4160  -22.9430 C.3   148  LEU148      0.0270
    174  CG       -56.5660   -2.7200  -23.4040 C.3   148  LEU148      0.0019
    175  CD1      -55.9070   -1.4650  -23.9280 C.3   148  LEU148      0.0001
    176  CD2      -55.7650   -3.3070  -22.2610 C.3   148  LEU148      0.0001
    177  N        -58.7190   -5.7240  -28.2370 N.3   158  THR158     -0.1203
    178  CA       -57.5690   -4.9720  -28.7130 C.3   158  THR158      0.1994
    179  C        -56.4680   -5.7610  -29.3990 C.2   158  THR158      0.2618
    180  O        -56.5510   -6.9630  -29.5630 O.2   158  THR158     -0.2717
    181  CB       -56.9240   -4.1720  -27.5910 C.3   158  THR158      0.1784
    182  OG1      -57.1710   -2.7830  -27.8120 O.3   158  THR158     -0.2211
    183  CG2      -55.4410   -4.4100  -27.5910 C.3   158  THR158      0.0376
    184  N        -55.4390   -5.0390  -29.8140 N.am  159  ASP159     -0.1959
    185  CA       -54.2430   -5.6300  -30.3840 C.3   159  ASP159      0.1840
    186  C        -54.4690   -6.5040  -31.5860 C.2   159  ASP159      0.2622
    187  O        -53.9430   -7.5980  -31.6500 O.2   159  ASP159     -0.2715
    188  CB       -53.4950   -6.4380  -29.3340 C.3   159  ASP159      0.1450
    189  CG       -52.0990   -6.8130  -29.7740 C.2   159  ASP159      0.3671
    190  OD1      -51.9480   -7.7860  -30.5290 O.co2 159  ASP159     -0.2456
    191  OD2      -51.1420   -6.1410  -29.3570 O.co2 159  ASP159     -0.2456
    192  N        -55.2480   -6.0400  -32.5460 N.am  160  PHE160     -0.1974
    193  CA       -55.3980   -6.8280  -33.7480 C.3   160  PHE160      0.1639
    194  C        -54.2200   -6.5690  -34.6710 C.2   160  PHE160      0.2290
    195  O        -54.3780   -6.1260  -35.8000 O.2   160  PHE160     -0.2864
    196  CB       -56.6970   -6.4780  -34.4570 C.3   160  PHE160      0.0560
    197  CG       -57.5140   -5.4520  -33.7440 C.ar  160  PHE160     -0.0200
    198  CD1      -57.0050   -4.2000  -33.5020 C.ar  160  PHE160     -0.0042
    199  CD2      -58.7890   -5.7420  -33.3210 C.ar  160  PHE160     -0.0042
    200  CE1      -57.7560   -3.2510  -32.8480 C.ar  160  PHE160     -0.0003
    201  CE2      -59.5440   -4.8010  -32.6640 C.ar  160  PHE160     -0.0003
    202  CZ       -59.0270   -3.5540  -32.4280 C.ar  160  PHE160     -0.0000
@<TRIPOS>BOND
     1    51    52    1
     2    43    44    1
     3    45    46    2
     4    45    44    1
     5    52    53    1
     6    52    55    1
     7    53    54    2
     8    44    47    1
     9    60    61    1
    10    49    47    1
    11    62    63    2
    12    62    61    1
    13    47    48    1
    14    55    56    1
    15    61    64    1
    16   195   194    2
    17    56    57    1
    18    64    65    1
    19    48    50    1
    20    80    79    1
    21   194   193    1
    22    57    59   ar
    23    57    58   ar
    24   196   193    1
    25   196   197    1
    26    65    66    1
    27    79    78    1
    28    79    81    1
    29   193   192    1
    30   197   198   ar
    31   197   199   ar
    32    78    75    1
    33   198   200   ar
    34    75    74    1
    35    75    76    1
    36    66    67    1
    37   199   201   ar
    38   200   202   ar
    39   201   202   ar
    40   192   186   am
    41    76    77    2
    42   187   186    2
    43   186   185    1
    44    37    36    2
    45    42    41    1
    46    41    40    1
    47    71    70    2
    48    40    39    1
    49    39    38    1
    50   190   189   ar
    51    36    35    1
    52    70    69    1
    53   185   184    1
    54   185   188    1
    55    88    86    1
    56    38    35    1
    57    82    83    1
    58   184   179   am
    59   189   191   ar
    60   189   188    1
    61    83    86    1
    62    83    84    1
    63   180   179    2
    64    86    87    1
    65    35    34    1
    66   179   178    1
    67    68    69    1
    68    69    72    1
    69   178   177    1
    70   178   181    1
    71    72    73    1
    72    84    89   am
    73    84    85    2
    74    89    90    1
    75    32    31    2
    76   182   181    1
    77   183   181    1
    78    93    90    1
    79    93    94    1
    80    31    30    1
    81    90    91    1
    82    96    95    2
    83    28    26    1
    84   167   166    1
    85    27    26    1
    86    95    94    1
    87    95    97   am
    88    29    30    1
    89    22    23    1
    90    92    91    2
    91    23    26    1
    92    23    24    1
    93    30    33    1
    94    91    98   am
    95   168   166    1
    96   166   165    2
    97    98    99    1
    98    24    25    2
    99   165   164    1
   100   175   174    1
   101   164   163    1
   102   163   162    1
   103    21    20    2
   104   112   111    1
   105   112   113    1
   106   174   173    1
   107   174   176    1
   108   111   110    1
   109    99   100    1
   110    99   102    1
   111   160   161    2
   112   160   159    1
   113    20    19    1
   114   173   170    1
   115   169   170    1
   116   100   101    2
   117   100   106   am
   118   102   103    1
   119   162   159    1
   120    19    18    1
   121   106   107    1
   122   170   171    1
   123   159   158    1
   124   110   107    1
   125   172   171    2
   126    18    12   am
   127    16    15    1
   128   104   103    1
   129   107   108    1
   130   103   105    1
   131    14    15    1
   132    14    11    1
   133     4     3    2
   134    10    11    1
   135    15    17    1
   136    12    11    1
   137    12    13    2
   138   108   109    2
   139   108   114   am
   140     3     2    1
   141     1     2    1
   142   141   140    1
   143   135   134    2
   144   120   114    1
   145   120   119    1
   146     2     5    1
   147   114   115    1
   148   137   136    1
   149   137   140    1
   150   137   138    1
   151   134   133    1
   152   134   136   am
   153   133   132    1
   154   149   147    1
   155   146   147    1
   156   146   143    1
   157   138   139    2
   158   119   118    1
   159   142   143    1
   160   132   123   am
   161   115   118    1
   162   115   116    1
   163     5     6    1
   164   147   148    1
   165     6     7    1
   166   143   144    1
   167   116   121   am
   168   116   117    2
   169   121   122    1
   170   123   124    2
   171   123   122    1
   172   157   155   ar
   173   156   155   ar
   174   150   144   am
   175   150   151    1
   176     7     8    1
   177   155   154    1
   178   144   145    2
   179   122   125    1
   180     8     9    1
   181   127   129   ar
   182   127   126   ar
   183   125   126    1
   184   154   151    1
   185   129   131   ar
   186   151   152    1
   187   126   128   ar
   188   152   153    2
   189   131   130   ar
   190   128   130   ar
