@<TRIPOS>MOLECULE
tmp/4r5tA00.pdb
 169 159 0 0 0
SMALL
GASTEIGER

@<TRIPOS>ATOM
      1  N         13.8610   20.5930   19.7220 N.3   122  GLN122     -0.1245
      2  CA        13.4720   19.3280   19.1040 C.3   122  GLN122      0.1566
      3  C         12.1060   18.9690   19.6610 C.2   122  GLN122      0.2260
      4  O         11.9870   18.6220   20.8430 O.2   122  GLN122     -0.2867
      5  CB        14.4950   18.2180   19.3810 C.3   122  GLN122      0.0367
      6  CG        14.0220   16.8160   18.9990 C.3   122  GLN122      0.0905
      7  CD        13.5610   16.7240   17.5470 C.2   122  GLN122      0.2608
      8  OE1       14.2040   17.2610   16.6410 O.2   122  GLN122     -0.2717
      9  NE2       12.4380   16.0450   17.3240 N.am  122  GLN122     -0.0878
     10  N          9.3760   16.9950   17.9740 N.3   124  GLU124     -0.1231
     11  CA         8.7610   15.6960   17.6960 C.3   124  GLU124      0.1699
     12  C          9.3260   14.6400   18.6430 C.2   124  GLU124      0.2592
     13  O         10.5480   14.5090   18.7780 O.2   124  GLU124     -0.2718
     14  CB         8.9770   15.2540   16.2470 C.3   124  GLU124      0.0402
     15  CG         8.2100   13.9780   15.9220 C.3   124  GLU124      0.1161
     16  CD         8.2080   13.6250   14.4430 C.2   124  GLU124      0.3649
     17  OE1        8.8590   14.3320   13.6430 O.co2 124  GLU124     -0.2457
     18  OE2        7.5520   12.6260   14.0770 O.co2 124  GLU124     -0.2457
     19  N          8.4430   13.8730   19.2800 N.am  125  ALA125     -0.1980
     20  CA         7.0060   13.9470   19.0230 C.3   125  ALA125      0.1597
     21  C          6.2820   14.8130   20.0480 C.2   125  ALA125      0.2287
     22  O          5.2970   15.4720   19.7200 O.2   125  ALA125     -0.2864
     23  CB         6.4060   12.5560   19.0100 C.3   125  ALA125      0.0319
     24  N         18.7990   11.7480   17.2580 N.3   264  VAL264     -0.1231
     25  CA        18.6920   10.9300   16.0420 C.3   264  VAL264      0.1692
     26  C         19.4760   11.5560   14.8870 C.2   264  VAL264      0.2593
     27  O         20.3810   12.3540   15.1220 O.2   264  VAL264     -0.2718
     28  CB        17.2170   10.7250   15.6440 C.3   264  VAL264      0.0266
     29  CG1       16.5080    9.8950   16.6980 C.3   264  VAL264      0.0020
     30  CG2       16.5090   12.0770   15.4540 C.3   264  VAL264      0.0020
     31  N         19.1450   11.1940   13.6490 N.am  265  GLY265     -0.1942
     32  CA        19.8360   11.7480   12.4920 C.3   265  GLY265      0.2014
     33  C         19.4760   13.2020   12.1780 C.2   265  GLY265      0.2639
     34  O         20.3400   14.0500   11.9750 O.2   265  GLY265     -0.2714
     35  N         18.1870   13.4940   12.1290 N.am  266  ALA266     -0.1963
     36  CA        17.7450   14.8470   11.8270 C.3   266  ALA266      0.1728
     37  C         16.2700   14.9760   12.1020 C.2   266  ALA266      0.2616
     38  O         15.6150   14.0130   12.5000 O.2   266  ALA266     -0.2715
     39  CB        18.0530   15.2050   10.3780 C.3   266  ALA266      0.0334
     40  N         15.7480   16.1720   11.8770 N.am  267  MET267     -0.1963
     41  CA        14.3440   16.4500   12.1160 C.3   267  MET267      0.1736
     42  C         13.8710   17.5060   11.1300 C.2   267  MET267      0.2616
     43  O         14.5230   18.5330   10.9640 O.2   267  MET267     -0.2715
     44  CB        14.1170   16.9200   13.5520 C.3   267  MET267      0.0427
     45  CG        12.6900   17.3480   13.8190 C.3   267  MET267      0.0599
     46  SD        11.5030   15.9900   13.6740 S.3   267  MET267     -0.1393
     47  CE         9.9700   16.9380   13.5010 C.3   267  MET267      0.0692
     48  N         12.7690   17.2270   10.4480 N.am  268  GLU268     -0.1977
     49  CA        12.1870   18.1990    9.5400 C.3   268  GLU268      0.1602
     50  C         11.2860   19.1270   10.3500 C.2   268  GLU268      0.2287
     51  O         10.5990   18.6950   11.2660 O.2   268  GLU268     -0.2864
     52  CB        11.4150   17.5110    8.4070 C.3   268  GLU268      0.0415
     53  CG         9.9080   17.3140    8.6560 C.3   268  GLU268      0.1163
     54  CD         9.5880   16.2280    9.6750 C.2   268  GLU268      0.3649
     55  OE1       10.5030   15.8130   10.4160 O.co2 268  GLU268     -0.2457
     56  OE2        8.4170   15.7840    9.7310 O.co2 268  GLU268     -0.2457
     57  N         25.3640    8.7400    3.8610 N.3   294  ARG294     -0.1245
     58  CA        24.5300    9.0550    5.0280 C.3   294  ARG294      0.1563
     59  C         23.9000   10.4550    4.9460 C.2   294  ARG294      0.2260
     60  O         22.7240   10.6340    5.2480 O.2   294  ARG294     -0.2867
     61  CB        25.3420    8.9330    6.3150 C.3   294  ARG294      0.0307
     62  CG        24.6230    9.4700    7.5430 C.3   294  ARG294      0.0489
     63  CD        23.4520    8.5720    7.9380 C.3   294  ARG294      0.2205
     64  NE        22.8560    9.0280    9.1850 N.pl3 294  ARG294     -0.0865
     65  CZ        21.7950    8.4860    9.7620 C.cat 294  ARG294      0.5346
     66  NH1       21.1920    7.4460    9.2030 N.pl3 294  ARG294      0.1354
     67  NH2       21.3370    8.9970   10.8970 N.pl3 294  ARG294      0.1354
     68  N         19.8970   11.3630    4.5800 N.3   298  VAL298     -0.1245
     69  CA        19.2270   12.1190    5.6270 C.3   298  VAL298      0.1561
     70  C         18.7370   13.4940    5.1290 C.2   298  VAL298      0.2260
     71  O         17.6310   13.9140    5.4550 O.2   298  VAL298     -0.2867
     72  CB        20.1270   12.2990    6.8440 C.3   298  VAL298      0.0252
     73  CG1       19.4610   13.2510    7.8450 C.3   298  VAL298      0.0019
     74  CG2       20.3840   10.9310    7.4960 C.3   298  VAL298      0.0019
     75  N         15.8600   12.6160    2.9980 N.3   301  HIS301     -0.1226
     76  CA        14.7520   12.2210    3.8640 C.3   301  HIS301      0.1752
     77  C         13.9780   13.4400    4.4160 C.2   301  HIS301      0.2595
     78  O         12.7670   13.5550    4.2450 O.2   301  HIS301     -0.2718
     79  CB        15.2610   11.3640    5.0350 C.3   301  HIS301      0.0759
     80  CG        14.1760   10.9170    5.9630 C.ar  301  HIS301      0.0818
     81  ND1       13.6740    9.6290    5.9570 N.ar  301  HIS301     -0.2268
     82  CD2       13.4860   11.5880    6.9210 C.ar  301  HIS301      0.1154
     83  CE1       12.7310    9.5240    6.8780 C.ar  301  HIS301      0.1986
     84  NE2       12.5980   10.6940    7.4800 N.ar  301  HIS301     -0.2212
     85  N         14.6700   14.3430    5.0930 N.am  302  GLU302     -0.1979
     86  CA        13.9710   15.4900    5.6760 C.3   302  GLU302      0.1602
     87  C         13.3360   16.3590    4.5850 C.2   302  GLU302      0.2287
     88  O         12.3070   17.0000    4.8180 O.2   302  GLU302     -0.2864
     89  CB        14.9180   16.3330    6.5380 C.3   302  GLU302      0.0415
     90  CG        15.7140   15.4920    7.5440 C.3   302  GLU302      0.1163
     91  CD        14.8280   14.6460    8.4650 C.2   302  GLU302      0.3649
     92  OE1       13.6210   14.9340    8.5970 O.co2 302  GLU302     -0.2457
     93  OE2       15.3580   13.7010    9.0810 O.co2 302  GLU302     -0.2457
     94  N          9.9330   14.9820    3.3850 N.3   305  HIS305     -0.1241
     95  CA         8.8990   15.2560    4.3740 C.3   305  HIS305      0.1621
     96  C          8.1050   16.4950    4.0000 C.2   305  HIS305      0.2264
     97  O          6.9180   16.6000    4.3100 O.2   305  HIS305     -0.2867
     98  CB         9.5100   15.4500    5.7640 C.3   305  HIS305      0.0745
     99  CG         9.5090   14.2090    6.6030 C.ar  305  HIS305      0.0817
    100  ND1        8.4420   13.3360    6.6370 N.ar  305  HIS305     -0.2268
    101  CD2       10.4370   13.7020    7.4480 C.ar  305  HIS305      0.1154
    102  CE1        8.7170   12.3400    7.4610 C.ar  305  HIS305      0.1986
    103  NE2        9.9210   12.5390    7.9670 N.ar  305  HIS305     -0.2212
    104  N          6.3880    8.2840    8.2100 N.3   324  GLU324     -0.1245
    105  CA         7.7790    7.8560    8.1760 C.3   324  GLU324      0.1567
    106  C          8.0790    6.7600    7.1460 C.2   324  GLU324      0.2260
    107  O          9.0980    6.8180    6.4590 O.2   324  GLU324     -0.2867
    108  CB         8.2110    7.4000    9.5640 C.3   324  GLU324      0.0388
    109  CG         8.1940    8.5250   10.5810 C.3   324  GLU324      0.1160
    110  CD         9.0110    9.7390   10.1320 C.2   324  GLU324      0.3649
    111  OE1        9.8830    9.5960    9.2540 O.co2 324  GLU324     -0.2457
    112  OE2        8.7710   10.8390   10.6480 O.co2 324  GLU324     -0.2457
    113  N         10.7350    7.2220    4.0770 N.3   328  VAL328     -0.1245
    114  CA        11.8940    6.3330    3.9350 C.3   328  VAL328      0.1561
    115  C         11.8870    5.6880    2.5470 C.2   328  VAL328      0.2260
    116  O         12.9360    5.5420    1.9220 O.2   328  VAL328     -0.2867
    117  CB        11.9310    5.2560    5.0320 C.3   328  VAL328      0.0252
    118  CG1       12.9780    4.1470    4.6980 C.3   328  VAL328      0.0019
    119  CG2       12.2460    5.9060    6.3830 C.3   328  VAL328      0.0019
    120  N         12.9640    8.3900    0.1930 N.3   331  GLU331     -0.1245
    121  CA        14.3970    8.5180    0.4360 C.3   331  GLU331      0.1567
    122  C         15.1860    7.3790   -0.2220 C.2   331  GLU331      0.2260
    123  O         16.2410    7.6050   -0.8220 O.2   331  GLU331     -0.2867
    124  CB        14.6630    8.5530    1.9460 C.3   331  GLU331      0.0388
    125  CG        16.0870    8.1940    2.3600 C.3   331  GLU331      0.1160
    126  CD        16.2070    7.7020    3.8300 C.2   331  GLU331      0.3649
    127  OE1       15.1930    7.6680    4.5860 O.co2 331  GLU331     -0.2457
    128  OE2       17.3470    7.3600    4.2310 O.co2 331  GLU331     -0.2457
    129  N          8.2850    8.1380   22.5950 N.3   377  GLU377     -0.1245
    130  CA         9.7130    8.1430   22.3000 C.3   377  GLU377      0.1567
    131  C         10.2300    6.7480   21.9560 C.2   377  GLU377      0.2260
    132  O         11.3440    6.6050   21.4490 O.2   377  GLU377     -0.2867
    133  CB        10.5080    8.7170   23.4790 C.3   377  GLU377      0.0388
    134  CG        10.1780   10.1670   23.8330 C.3   377  GLU377      0.1160
    135  CD         8.9080   10.2970   24.6620 C.2   377  GLU377      0.3649
    136  OE1        7.9360    9.5640   24.3850 O.co2 377  GLU377     -0.2457
    137  OE2        8.8840   11.1240   25.6000 O.co2 377  GLU377     -0.2457
    138  N          9.4160    5.0310   17.6120 N.3   380  TYR380     -0.1241
    139  CA        10.1630    5.2530   16.3800 C.3   380  TYR380      0.1605
    140  C         11.1600    4.1150   16.1450 C.2   380  TYR380      0.2264
    141  O         12.3440    4.2200   16.4610 O.2   380  TYR380     -0.2867
    142  CB        10.8640    6.6190   16.4280 C.3   380  TYR380      0.0534
    143  CG         9.8950    7.7870   16.3550 C.ar  380  TYR380     -0.0201
    144  CD1        9.1560    8.1750   17.4710 C.ar  380  TYR380     -0.0009
    145  CD2        9.7160    8.4980   15.1730 C.ar  380  TYR380     -0.0009
    146  CE1        8.2600    9.2410   17.4120 C.ar  380  TYR380      0.0417
    147  CE2        8.8230    9.5640   15.1000 C.ar  380  TYR380      0.0417
    148  CZ         8.0970    9.9330   16.2280 C.ar  380  TYR380      0.1957
    149  OH         7.2070   10.9930   16.1640 O.3   380  TYR380     -0.2866
    150  N          9.6610    2.3000   10.7200 N.3   385  TYR385     -0.1241
    151  CA        10.3950    2.9620    9.6390 C.3   385  TYR385      0.1605
    152  C         10.7440    2.0730    8.4480 C.2   385  TYR385      0.2264
    153  O         10.3990    2.3770    7.2950 O.2   385  TYR385     -0.2867
    154  CB        11.6860    3.5520   10.2030 C.3   385  TYR385      0.0534
    155  CG        11.4740    4.9260   10.7850 C.ar  385  TYR385     -0.0201
    156  CD1       12.0750    6.0400   10.2060 C.ar  385  TYR385     -0.0009
    157  CD2       10.6460    5.1180   11.8880 C.ar  385  TYR385     -0.0009
    158  CE1       11.8730    7.3220   10.7230 C.ar  385  TYR385      0.0417
    159  CE2       10.4460    6.4030   12.4210 C.ar  385  TYR385      0.0417
    160  CZ        11.0640    7.4970   11.8270 C.ar  385  TYR385      0.1957
    161  OH        10.8720    8.7760   12.3300 O.3   385  TYR385     -0.2866
    162  N         16.1230    8.5820   26.0810 N.3   836  MET836     -0.1245
    163  CA        16.0000    8.1210   24.7020 C.3   836  MET836      0.1570
    164  C         17.2740    7.3970   24.2670 C.2   836  MET836      0.2261
    165  O         17.2250    6.3030   23.6990 O.2   836  MET836     -0.2867
    166  CB        15.7000    9.2880   23.7610 C.3   836  MET836      0.0387
    167  CG        15.5590    8.8650   22.3080 C.3   836  MET836      0.0595
    168  SD        14.8260   10.1680   21.2990 S.3   836  MET836     -0.1393
    169  CE        13.8270   10.9970   22.5410 C.3   836  MET836      0.0692
@<TRIPOS>BOND
     1   123   122    2
     2   122   121    1
     3   120   121    1
     4   121   124    1
     5   116   115    2
     6   124   125    1
     7   125   126    1
     8   115   114    1
     9    75    76    1
    10    94    95    1
    11   126   128   ar
    12   126   127   ar
    13    57    58    1
    14    76    77    1
    15    76    79    1
    16   114   113    1
    17   114   117    1
    18    96    97    2
    19    96    95    1
    20    78    77    2
    21    95    98    1
    22    77    85   am
    23    68    69    1
    24    87    88    2
    25    87    86    1
    26   118   117    1
    27    59    58    1
    28    59    60    2
    29    58    61    1
    30   117   119    1
    31    79    80    1
    32    85    86    1
    33    70    71    2
    34    70    69    1
    35    69    72    1
    36    86    89    1
    37    98    99    1
    38    81    80   ar
    39    81    83   ar
    40    80    82   ar
    41    61    62    1
    42   107   106    2
    43    89    90    1
    44    99   100   ar
    45    99   101   ar
    46   100   102   ar
    47    72    74    1
    48    72    73    1
    49    83    84   ar
    50    82    84   ar
    51   106   105    1
    52   153   152    2
    53   101   103   ar
    54   102   103   ar
    55    62    63    1
    56    90    91    1
    57    63    64    1
    58   105   104    1
    59   105   108    1
    60    52    53    1
    61    52    49    1
    62   152   151    1
    63    91    92   ar
    64    91    93   ar
    65    53    54    1
    66    64    65    2
    67    66    65    1
    68   111   110   ar
    69    49    50    1
    70    49    48    1
    71   108   109    1
    72   151   154    1
    73   151   150    1
    74    54    56   ar
    75    54    55   ar
    76    65    67    1
    77   110   109    1
    78   110   112   ar
    79   154   155    1
    80   156   158   ar
    81   156   155   ar
    82    50    51    2
    83    39    36    1
    84    48    42   am
    85   158   160   ar
    86   155   157   ar
    87    43    42    2
    88    42    41    1
    89    36    37    1
    90    36    35    1
    91   160   161    1
    92   160   159   ar
    93    40    37   am
    94    40    41    1
    95   157   159   ar
    96    34    33    2
    97    37    38    2
    98    41    44    1
    99    35    33   am
   100    33    32    1
   101    32    31    1
   102    47    46    1
   103    44    45    1
   104    17    16   ar
   105    31    26   am
   106    46    45    1
   107    18    16   ar
   108    16    15    1
   109    26    27    2
   110    26    25    1
   111   147   145   ar
   112   147   148   ar
   113   145   143   ar
   114    30    28    1
   115    28    25    1
   116    28    29    1
   117    15    14    1
   118    25    24    1
   119   140   139    1
   120   140   141    2
   121   149   148    1
   122   148   146   ar
   123    14    11    1
   124   143   142    1
   125   143   144   ar
   126   139   142    1
   127   139   138    1
   128     8     7    2
   129     9     7   am
   130   146   144   ar
   131     7     6    1
   132    11    10    1
   133    11    12    1
   134    12    13    2
   135    12    19   am
   136     6     5    1
   137    23    20    1
   138    20    19    1
   139    20    21    1
   140     2     5    1
   141     2     3    1
   142     2     1    1
   143     3     4    2
   144    22    21    2
   145   168   167    1
   146   168   169    1
   147   132   131    2
   148   131   130    1
   149   130   129    1
   150   130   133    1
   151   167   166    1
   152   133   134    1
   153   165   164    2
   154   166   163    1
   155   134   135    1
   156   164   163    1
   157   136   135   ar
   158   135   137   ar
   159   163   162    1
