@<TRIPOS>MOLECULE
tmp/4r5vA00.pdb
 176 166 0 0 0
SMALL
GASTEIGER

@<TRIPOS>ATOM
      1  N         14.0450   20.6170   19.5820 N.3   122  GLN122     -0.1245
      2  CA        13.6380   19.3200   19.0540 C.3   122  GLN122      0.1566
      3  C         12.2820   18.9660   19.6550 C.2   122  GLN122      0.2260
      4  O         12.1960   18.5560   20.8120 O.2   122  GLN122     -0.2867
      5  CB        14.6790   18.2430   19.3730 C.3   122  GLN122      0.0367
      6  CG        14.2200   16.8180   19.0840 C.3   122  GLN122      0.0905
      7  CD        13.7270   16.6340   17.6610 C.2   122  GLN122      0.2608
      8  OE1       14.3340   17.1280   16.7110 O.2   122  GLN122     -0.2717
      9  NE2       12.6170   15.9190   17.5080 N.am  122  GLN122     -0.0878
     10  N          9.6170   16.9870   18.1310 N.3   124  GLU124     -0.1231
     11  CA         8.9860   15.7090   17.8120 C.3   124  GLU124      0.1699
     12  C          9.4820   14.6360   18.7820 C.2   124  GLU124      0.2592
     13  O         10.6850   14.5180   19.0120 O.2   124  GLU124     -0.2718
     14  CB         9.2650   15.3040   16.3580 C.3   124  GLU124      0.0402
     15  CG         8.5240   14.0480   15.9150 C.3   124  GLU124      0.1161
     16  CD         8.5300   13.8350   14.4140 C.2   124  GLU124      0.3649
     17  OE1        9.0310   14.7140   13.6840 O.co2 124  GLU124     -0.2457
     18  OE2        8.0240   12.7870   13.9610 O.co2 124  GLU124     -0.2457
     19  N          8.5640   13.8590   19.3560 N.am  125  ALA125     -0.1980
     20  CA         7.1360   13.9540   19.0600 C.3   125  ALA125      0.1597
     21  C          6.3890   14.8190   20.0660 C.2   125  ALA125      0.2287
     22  O          5.4160   15.4890   19.7180 O.2   125  ALA125     -0.2864
     23  CB         6.5210   12.5630   19.0080 C.3   125  ALA125      0.0319
     24  N         18.9640   11.7920   17.2260 N.3   264  VAL264     -0.1231
     25  CA        18.7690   10.9730   16.0360 C.3   264  VAL264      0.1692
     26  C         19.5330   11.5510   14.8470 C.2   264  VAL264      0.2593
     27  O         20.5040   12.2850   15.0300 O.2   264  VAL264     -0.2718
     28  CB        17.2720   10.8360   15.6980 C.3   264  VAL264      0.0266
     29  CG1       16.5590   10.0750   16.8050 C.3   264  VAL264      0.0020
     30  CG2       16.6370   12.2060   15.5020 C.3   264  VAL264      0.0020
     31  N         19.1060   11.2140   13.6340 N.am  265  GLY265     -0.1942
     32  CA        19.7970   11.6590   12.4360 C.3   265  GLY265      0.2014
     33  C         19.5130   13.1050   12.0700 C.2   265  GLY265      0.2639
     34  O         20.4330   13.9080   11.9220 O.2   265  GLY265     -0.2714
     35  N         18.2350   13.4350   11.9140 N.am  266  ALA266     -0.1963
     36  CA        17.8370   14.8000   11.5900 C.3   266  ALA266      0.1728
     37  C         16.3550   15.0150   11.8200 C.2   266  ALA266      0.2616
     38  O         15.6110   14.0740   12.1010 O.2   266  ALA266     -0.2715
     39  CB        18.1830   15.1350   10.1560 C.3   266  ALA266      0.0334
     40  N         15.9290   16.2620   11.6740 N.am  267  MET267     -0.1963
     41  CA        14.5360   16.5960   11.8810 C.3   267  MET267      0.1736
     42  C         14.0010   17.5550   10.8340 C.2   267  MET267      0.2616
     43  O         14.6490   18.5420   10.4850 O.2   267  MET267     -0.2715
     44  CB        14.3330   17.1910   13.2730 C.3   267  MET267      0.0427
     45  CG        12.8790   17.2660   13.7030 C.3   267  MET267      0.0599
     46  SD        12.2550   15.7330   14.4280 S.3   267  MET267     -0.1393
     47  CE        12.0240   14.7040   12.9860 C.3   267  MET267      0.0692
     48  N         12.8080   17.2530   10.3380 N.am  268  GLU268     -0.1977
     49  CA        12.1440   18.1380    9.4020 C.3   268  GLU268      0.1602
     50  C         11.2590   19.1230   10.1720 C.2   268  GLU268      0.2287
     51  O         10.4590   18.7370   11.0260 O.2   268  GLU268     -0.2864
     52  CB        11.3430   17.3320    8.3630 C.3   268  GLU268      0.0415
     53  CG         9.8810   17.0280    8.7000 C.3   268  GLU268      0.1163
     54  CD         9.7080   15.8530    9.6450 C.2   268  GLU268      0.3649
     55  OE1       10.7240   15.2410   10.0380 O.co2 268  GLU268     -0.2457
     56  OE2        8.5490   15.5400    9.9910 O.co2 268  GLU268     -0.2457
     57  N         25.4710    8.7060    3.7090 N.3   294  ARG294     -0.1245
     58  CA        24.6750    9.0630    4.8800 C.3   294  ARG294      0.1563
     59  C         24.0570   10.4540    4.7430 C.2   294  ARG294      0.2260
     60  O         22.8650   10.6340    4.9810 O.2   294  ARG294     -0.2867
     61  CB        25.5270    8.9890    6.1480 C.3   294  ARG294      0.0307
     62  CG        24.8240    9.4710    7.4090 C.3   294  ARG294      0.0489
     63  CD        23.6290    8.6000    7.7700 C.3   294  ARG294      0.2205
     64  NE        23.0470    9.0030    9.0470 N.pl3 294  ARG294     -0.0865
     65  CZ        22.0130    8.4020    9.6270 C.cat 294  ARG294      0.5346
     66  NH1       21.4330    7.3610    9.0450 N.pl3 294  ARG294      0.1354
     67  NH2       21.5610    8.8460   10.7920 N.pl3 294  ARG294      0.1354
     68  N         21.2650   10.5170    1.9830 N.3   297  THR297     -0.1203
     69  CA        19.9780    9.9510    2.3880 C.3   297  THR297      0.1994
     70  C         19.2600   10.8080    3.4250 C.2   297  THR297      0.2617
     71  O         18.0440   10.9670    3.3630 O.2   297  THR297     -0.2717
     72  CB        20.1160    8.5220    2.9670 C.3   297  THR297      0.1784
     73  OG1       20.8440    8.5610    4.2010 O.3   297  THR297     -0.2211
     74  CG2       20.8130    7.6010    1.9890 C.3   297  THR297      0.0376
     75  N         20.0030   11.3590    4.3780 N.am  298  VAL298     -0.1979
     76  CA        19.3710   12.1100    5.4570 C.3   298  VAL298      0.1595
     77  C         18.8670   13.4750    4.9680 C.2   298  VAL298      0.2287
     78  O         17.7600   13.8850    5.3140 O.2   298  VAL298     -0.2864
     79  CB        20.3270   12.2870    6.6520 C.3   298  VAL298      0.0276
     80  CG1       19.6760   13.1260    7.7240 C.3   298  VAL298      0.0022
     81  CG2       20.7010   10.9280    7.2250 C.3   298  VAL298      0.0022
     82  N         15.9110   12.5910    2.8560 N.3   301  HIS301     -0.1226
     83  CA        14.8070   12.2120    3.7320 C.3   301  HIS301      0.1752
     84  C         14.0460   13.4250    4.2590 C.2   301  HIS301      0.2595
     85  O         12.8240   13.4920    4.1420 O.2   301  HIS301     -0.2718
     86  CB        15.3220   11.3750    4.9070 C.3   301  HIS301      0.0759
     87  CG        14.2480   10.9190    5.8430 C.ar  301  HIS301      0.0818
     88  ND1       13.7790    9.6220    5.8630 N.ar  301  HIS301     -0.2268
     89  CD2       13.5490   11.5840    6.7930 C.ar  301  HIS301      0.1154
     90  CE1       12.8400    9.5090    6.7840 C.ar  301  HIS301      0.1986
     91  NE2       12.6800   10.6860    7.3630 N.ar  301  HIS301     -0.2212
     92  N         14.7630   14.3850    4.8340 N.am  302  GLU302     -0.1979
     93  CA        14.1030   15.5520    5.4050 C.3   302  GLU302      0.1602
     94  C         13.4710   16.4220    4.3220 C.2   302  GLU302      0.2287
     95  O         12.4530   17.0700    4.5630 O.2   302  GLU302     -0.2864
     96  CB        15.0790   16.3840    6.2430 C.3   302  GLU302      0.0415
     97  CG        15.8900   15.5910    7.2650 C.3   302  GLU302      0.1163
     98  CD        15.0430   14.7160    8.1830 C.2   302  GLU302      0.3649
     99  OE1       13.8540   15.0300    8.4120 O.co2 302  GLU302     -0.2457
    100  OE2       15.5790   13.7060    8.6850 O.co2 302  GLU302     -0.2457
    101  N         10.0320   15.0520    3.1490 N.3   305  HIS305     -0.1241
    102  CA         8.9990   15.2810    4.1530 C.3   305  HIS305      0.1621
    103  C          8.1430   16.4990    3.8120 C.2   305  HIS305      0.2264
    104  O          6.9730   16.5670    4.1920 O.2   305  HIS305     -0.2867
    105  CB         9.6260   15.4830    5.5350 C.3   305  HIS305      0.0745
    106  CG         9.6620   14.2460    6.3810 C.ar  305  HIS305      0.0817
    107  ND1        8.5400   13.4980    6.6550 N.ar  305  HIS305     -0.2268
    108  CD2       10.6870   13.6490    7.0360 C.ar  305  HIS305      0.1154
    109  CE1        8.8730   12.4790    7.4330 C.ar  305  HIS305      0.1986
    110  NE2       10.1660   12.5500    7.6780 N.ar  305  HIS305     -0.2212
    111  N          6.5280    8.3330    7.8130 N.3   324  GLU324     -0.1245
    112  CA         7.9140    7.8810    7.8600 C.3   324  GLU324      0.1567
    113  C          8.2040    6.7600    6.8620 C.2   324  GLU324      0.2260
    114  O          9.2340    6.7830    6.1920 O.2   324  GLU324     -0.2867
    115  CB         8.2900    7.4410    9.2780 C.3   324  GLU324      0.0388
    116  CG         8.2890    8.5800   10.2960 C.3   324  GLU324      0.1160
    117  CD         9.1780    9.7520    9.8930 C.2   324  GLU324      0.3649
    118  OE1       10.1520    9.5470    9.1370 O.co2 324  GLU324     -0.2457
    119  OE2        8.8970   10.8880   10.3340 O.co2 324  GLU324     -0.2457
    120  N         10.8690    7.3260    3.8410 N.3   328  VAL328     -0.1245
    121  CA        12.0190    6.4390    3.6970 C.3   328  VAL328      0.1561
    122  C         11.9960    5.7810    2.3140 C.2   328  VAL328      0.2260
    123  O         13.0380    5.6310    1.6760 O.2   328  VAL328     -0.2867
    124  CB        12.0590    5.3590    4.8050 C.3   328  VAL328      0.0252
    125  CG1       13.1700    4.3520    4.5380 C.3   328  VAL328      0.0019
    126  CG2       12.2620    6.0060    6.1680 C.3   328  VAL328      0.0019
    127  N         13.0460    8.3980   -0.0400 N.3   331  GLU331     -0.1245
    128  CA        14.4740    8.5160    0.2310 C.3   331  GLU331      0.1567
    129  C         15.2710    7.4130   -0.4650 C.2   331  GLU331      0.2260
    130  O         16.3050    7.6790   -1.0760 O.2   331  GLU331     -0.2867
    131  CB        14.7310    8.4720    1.7410 C.3   331  GLU331      0.0388
    132  CG        16.1880    8.2660    2.1300 C.3   331  GLU331      0.1160
    133  CD        16.3410    7.6400    3.5070 C.2   331  GLU331      0.3649
    134  OE1       15.4200    7.7830    4.3390 O.co2 331  GLU331     -0.2457
    135  OE2       17.3810    6.9950    3.7540 O.co2 331  GLU331     -0.2457
    136  N          8.5010    8.0540   22.4670 N.3   377  GLU377     -0.1245
    137  CA         9.9160    8.0730   22.1150 C.3   377  GLU377      0.1567
    138  C         10.4320    6.6720   21.7880 C.2   377  GLU377      0.2260
    139  O         11.5220    6.5180   21.2370 O.2   377  GLU377     -0.2867
    140  CB        10.7400    8.6880   23.2470 C.3   377  GLU377      0.0388
    141  CG        10.8080   10.2150   23.2680 C.3   377  GLU377      0.1160
    142  CD         9.7080   10.9110   24.0600 C.2   377  GLU377      0.3649
    143  OE1        8.8910   10.2520   24.6690 O.co2 377  GLU377     -0.2457
    144  OE2        9.7430   12.1760   24.0100 O.co2 377  GLU377     -0.2457
    145  N          9.5320    5.1530   17.4760 N.3   380  TYR380     -0.1241
    146  CA        10.2910    5.3690   16.2480 C.3   380  TYR380      0.1605
    147  C         11.2830    4.2370   16.0200 C.2   380  TYR380      0.2264
    148  O         12.4700    4.3530   16.3270 O.2   380  TYR380     -0.2867
    149  CB        11.0040    6.7220   16.2960 C.3   380  TYR380      0.0534
    150  CG        10.0480    7.8950   16.2340 C.ar  380  TYR380     -0.0201
    151  CD1        9.2360    8.2140   17.3160 C.ar  380  TYR380     -0.0009
    152  CD2        9.9510    8.6770   15.0910 C.ar  380  TYR380     -0.0009
    153  CE1        8.3550    9.2760   17.2610 C.ar  380  TYR380      0.0417
    154  CE2        9.0750    9.7450   15.0280 C.ar  380  TYR380      0.0417
    155  CZ         8.2790   10.0380   16.1170 C.ar  380  TYR380      0.1957
    156  OH         7.4020   11.0970   16.0620 O.3   380  TYR380     -0.2866
    157  N          9.7680    2.4090   10.4550 N.3   385  TYR385     -0.1241
    158  CA        10.4980    3.0860    9.3900 C.3   385  TYR385      0.1605
    159  C         10.8430    2.1810    8.2080 C.2   385  TYR385      0.2264
    160  O         10.4820    2.4730    7.0670 O.2   385  TYR385     -0.2867
    161  CB        11.7860    3.6990    9.9470 C.3   385  TYR385      0.0534
    162  CG        11.6060    5.0790   10.5380 C.ar  385  TYR385     -0.0201
    163  CD1       10.8650    5.2690   11.6970 C.ar  385  TYR385     -0.0009
    164  CD2       12.1850    6.1920    9.9390 C.ar  385  TYR385     -0.0009
    165  CE1       10.7000    6.5300   12.2400 C.ar  385  TYR385      0.0417
    166  CE2       12.0260    7.4550   10.4750 C.ar  385  TYR385      0.0417
    167  CZ        11.2840    7.6190   11.6260 C.ar  385  TYR385      0.1957
    168  OH        11.1230    8.8760   12.1640 O.3   385  TYR385     -0.2866
    169  N         16.4470    8.6740   26.0120 N.3   839  MET839     -0.1245
    170  CA        16.3420    8.1870   24.6420 C.3   839  MET839      0.1570
    171  C         17.6020    7.4330   24.2260 C.2   839  MET839      0.2261
    172  O         17.5240    6.3510   23.6430 O.2   839  MET839     -0.2867
    173  CB        16.0770    9.3440   23.6780 C.3   839  MET839      0.0387
    174  CG        15.7730    8.9000   22.2550 C.3   839  MET839      0.0595
    175  SD        15.0600   10.2250   21.2650 S.3   839  MET839     -0.1393
    176  CE        13.7380   10.7670   22.3460 C.3   839  MET839      0.0692
@<TRIPOS>BOND
     1   130   129    2
     2   129   128    1
     3   127   128    1
     4   128   131    1
     5   123   122    2
     6   131   132    1
     7    68    69    1
     8    74    72    1
     9   132   133    1
    10   122   121    1
    11    69    72    1
    12    69    70    1
    13    82    83    1
    14    72    73    1
    15   101   102    1
    16    71    70    2
    17    70    75   am
    18   133   135   ar
    19   133   134   ar
    20   121   120    1
    21   121   124    1
    22    57    58    1
    23    83    84    1
    24    83    86    1
    25   103   102    1
    26   103   104    2
    27    85    84    2
    28   102   105    1
    29    84    92   am
    30    94    95    2
    31    94    93    1
    32    75    76    1
    33   125   124    1
    34    59    58    1
    35    59    60    2
    36   124   126    1
    37    92    93    1
    38    58    61    1
    39    86    87    1
    40    77    78    2
    41    77    76    1
    42    93    96    1
    43    76    79    1
    44   105   106    1
    45    87    88   ar
    46    87    89   ar
    47    88    90   ar
    48    61    62    1
    49   114   113    2
    50    96    97    1
    51   106   107   ar
    52   106   108   ar
    53    79    81    1
    54    79    80    1
    55   107   109   ar
    56    90    91   ar
    57    89    91   ar
    58   113   112    1
    59   108   110   ar
    60   160   159    2
    61    97    98    1
    62    62    63    1
    63   109   110   ar
    64    63    64    1
    65   111   112    1
    66   112   115    1
    67    98    99   ar
    68    98   100   ar
    69   159   158    1
    70    52    53    1
    71    52    49    1
    72    53    54    1
    73    66    65    1
    74    64    65    2
    75   118   117   ar
    76   115   116    1
    77   158   161    1
    78   158   157    1
    79    49    50    1
    80    49    48    1
    81    65    67    1
    82    54    56   ar
    83    54    55   ar
    84   117   116    1
    85   117   119   ar
    86   164   166   ar
    87   164   162   ar
    88   161   162    1
    89    39    36    1
    90    50    51    2
    91    48    42   am
    92   166   167   ar
    93    43    42    2
    94   162   163   ar
    95    42    41    1
    96    36    37    1
    97    36    35    1
    98   167   168    1
    99   167   165   ar
   100    40    37   am
   101    40    41    1
   102   163   165   ar
   103    37    38    2
   104    41    44    1
   105    35    33   am
   106    34    33    2
   107    33    32    1
   108    32    31    1
   109    47    46    1
   110    44    45    1
   111    31    26   am
   112    17    16   ar
   113    45    46    1
   114    18    16   ar
   115    16    15    1
   116    26    27    2
   117    26    25    1
   118   154   152   ar
   119   154   155   ar
   120   152   150   ar
   121    30    28    1
   122    28    25    1
   123    28    29    1
   124    15    14    1
   125   147   146    1
   126   147   148    2
   127    25    24    1
   128   156   155    1
   129   155   153   ar
   130   150   149    1
   131   150   151   ar
   132   146   149    1
   133   146   145    1
   134    14    11    1
   135     8     7    2
   136   153   151   ar
   137     9     7   am
   138     7     6    1
   139    11    10    1
   140    11    12    1
   141    12    13    2
   142    12    19   am
   143    23    20    1
   144     2     5    1
   145     2     1    1
   146     2     3    1
   147    20    19    1
   148    20    21    1
   149     6     5    1
   150     3     4    2
   151    22    21    2
   152   139   138    2
   153   175   174    1
   154   175   176    1
   155   138   137    1
   156   137   136    1
   157   137   140    1
   158   174   173    1
   159   140   141    1
   160   141   142    1
   161   172   171    2
   162   173   170    1
   163   144   142   ar
   164   142   143   ar
   165   171   170    1
   166   170   169    1
