@<TRIPOS>MOLECULE
tmp/4r5wB00.pdb
 148 143 0 0 0
SMALL
GASTEIGER

@<TRIPOS>ATOM
      1  N         16.2170  -11.8400  -15.5940 N.3   103  GLU103     -0.1245
      2  CA        16.9260  -11.4150  -16.8060 C.3   103  GLU103      0.1567
      3  C         16.5520  -12.3660  -17.9550 C.2   103  GLU103      0.2260
      4  O         16.1880  -11.9040  -19.0360 O.2   103  GLU103     -0.2867
      5  CB        18.4240  -11.4570  -16.5510 C.3   103  GLU103      0.0388
      6  CG        19.2230  -10.3150  -17.1540 C.3   103  GLU103      0.1160
      7  CD        20.1070   -9.6500  -16.1120 C.2   103  GLU103      0.3649
      8  OE1       20.9060  -10.3700  -15.4690 O.co2 103  GLU103     -0.2457
      9  OE2       19.9780   -8.4180  -15.9130 O.co2 103  GLU103     -0.2457
     10  N         12.9260  -12.0060  -19.0200 N.3   106  ASP106     -0.1225
     11  CA        12.8730  -10.7330  -19.7590 C.3   106  ASP106      0.1805
     12  C         13.1420  -10.9880  -21.2230 C.2   106  ASP106      0.2597
     13  O         12.4010  -10.5230  -22.0830 O.2   106  ASP106     -0.2718
     14  CB        13.9210   -9.7360  -19.2090 C.3   106  ASP106      0.1424
     15  CG        13.5610   -8.8880  -17.9910 C.2   106  ASP106      0.3668
     16  OD1       12.5140   -9.1520  -17.3710 O.co2 106  ASP106     -0.2456
     17  OD2       14.3550   -7.9700  -17.6430 O.co2 106  ASP106     -0.2456
     18  N         14.2070  -11.7620  -21.4910 N.am  107  ASN107     -0.1974
     19  CA        14.6330  -12.1380  -22.8280 C.3   107  ASN107      0.1688
     20  C         13.6820  -13.1420  -23.4460 C.2   107  ASN107      0.2292
     21  O         13.3730  -12.9920  -24.6190 O.2   107  ASN107     -0.2864
     22  CB        16.0400  -12.6570  -22.8110 C.3   107  ASN107      0.1181
     23  CG        17.0420  -11.5690  -22.5240 C.2   107  ASN107      0.2629
     24  OD1       17.2650  -10.6670  -23.3250 O.2   107  ASN107     -0.2716
     25  ND2       17.6620  -11.6070  -21.3720 N.am  107  ASN107     -0.0877
     26  N         10.4140  -11.4950  -25.1210 N.3   110  ASP110     -0.1239
     27  CA        10.5890  -10.9390  -26.4670 C.3   110  ASP110      0.1674
     28  C         10.7410  -12.0230  -27.5460 C.2   110  ASP110      0.2266
     29  O         10.4210  -11.7660  -28.7150 O.2   110  ASP110     -0.2867
     30  CB        11.7880  -10.0000  -26.4990 C.3   110  ASP110      0.1410
     31  CG        11.5620   -8.7200  -25.7360 C.2   110  ASP110      0.3668
     32  OD1       10.5680   -8.0210  -26.0340 O.co2 110  ASP110     -0.2456
     33  OD2       12.3830   -8.4090  -24.8500 O.co2 110  ASP110     -0.2456
     34  N         20.2640    2.2200  -26.0560 N.3   200  HIS200     -0.1226
     35  CA        19.6230    1.0470  -25.4850 C.3   200  HIS200      0.1752
     36  C         20.0970   -0.1830  -26.2630 C.2   200  HIS200      0.2597
     37  O         19.8070   -0.3410  -27.4600 O.2   200  HIS200     -0.2718
     38  CB        18.0920    1.1260  -25.4240 C.3   200  HIS200      0.0759
     39  CG        17.4760   -0.0640  -24.7400 C.ar  200  HIS200      0.0818
     40  ND1       17.1900   -0.0490  -23.3900 N.ar  200  HIS200     -0.2268
     41  CD2       17.1750   -1.2910  -25.2350 C.ar  200  HIS200      0.1154
     42  CE1       16.6970   -1.2460  -23.1150 C.ar  200  HIS200      0.1986
     43  NE2       16.6660   -2.0280  -24.1950 N.ar  200  HIS200     -0.2212
     44  N         20.8750   -1.0040  -25.5660 N.am  201  GLY201     -0.1942
     45  CA        21.4110   -2.2450  -26.0870 C.3   201  GLY201      0.2014
     46  C         20.5560   -3.4000  -25.6320 C.2   201  GLY201      0.2640
     47  O         20.0010   -3.3710  -24.5360 O.2   201  GLY201     -0.2714
     48  N         20.4350   -4.4120  -26.4790 N.am  202  SER202     -0.1935
     49  CA        19.6570   -5.6100  -26.2030 C.3   202  SER202      0.2055
     50  C         20.1190   -6.7110  -27.1440 C.2   202  SER202      0.2642
     51  O         20.7870   -6.4360  -28.1320 O.2   202  SER202     -0.2714
     52  CB        18.1640   -5.3210  -26.4010 C.3   202  SER202      0.2130
     53  OG        17.3250   -6.1200  -25.5850 O.3   202  SER202     -0.2179
     54  N         19.7580   -7.9470  -26.8520 N.am  203  ARG203     -0.1977
     55  CA        20.0130   -9.1140  -27.6810 C.3   203  ARG203      0.1597
     56  C         19.2930   -8.9980  -29.0340 C.2   203  ARG203      0.2287
     57  O         18.2420   -8.3780  -29.1190 O.2   203  ARG203     -0.2864
     58  CB        19.5110  -10.3440  -26.9290 C.3   203  ARG203      0.0334
     59  CG        20.5900  -10.8740  -26.0590 C.3   203  ARG203      0.0492
     60  CD        20.2110  -11.4390  -24.7330 C.3   203  ARG203      0.2205
     61  NE        20.3970  -12.8630  -24.8450 N.pl3 203  ARG203     -0.0865
     62  CZ        20.9620  -13.6600  -23.9580 C.cat 203  ARG203      0.5346
     63  NH1       21.0980  -14.9380  -24.2210 N.pl3 203  ARG203      0.1354
     64  NH2       21.3490  -13.1900  -22.7760 N.pl3 203  ARG203      0.1354
     65  N         15.6570  -10.0780  -29.2840 N.3   206  ASN206     -0.1240
     66  CA        14.7380   -9.1540  -28.6330 C.3   206  ASN206      0.1653
     67  C         14.2480   -8.0410  -29.5540 C.2   206  ASN206      0.2266
     68  O         13.3090   -7.3340  -29.1910 O.2   206  ASN206     -0.2867
     69  CB        15.4200   -8.4990  -27.4220 C.3   206  ASN206      0.1155
     70  CG        15.6570   -9.3690  -26.2060 C.2   206  ASN206      0.2627
     71  OD1       15.1160  -10.4710  -26.0370 O.2   206  ASN206     -0.2716
     72  ND2       16.4870   -8.8600  -25.3180 N.am  206  ASN206     -0.0877
     73  N         15.8420   -5.7780  -10.4460 N.3   227  TYR227     -0.1241
     74  CA        16.2210   -4.6230  -11.3010 C.3   227  TYR227      0.1605
     75  C         16.8120   -3.5330  -10.4190 C.2   227  TYR227      0.2264
     76  O         16.1970   -3.1940   -9.4080 O.2   227  TYR227     -0.2867
     77  CB        14.9980   -4.1010  -12.1040 C.3   227  TYR227      0.0534
     78  CG        14.2330   -5.2000  -12.8360 C.ar  227  TYR227     -0.0201
     79  CD1       13.3630   -6.0500  -12.1540 C.ar  227  TYR227     -0.0009
     80  CD2       14.4020   -5.4110  -14.1990 C.ar  227  TYR227     -0.0009
     81  CE1       12.7330   -7.1280  -12.7970 C.ar  227  TYR227      0.0417
     82  CE2       13.7610   -6.4740  -14.8590 C.ar  227  TYR227      0.0417
     83  CZ        12.9300   -7.3410  -14.1520 C.ar  227  TYR227      0.1957
     84  OH        12.2550   -8.3830  -14.7730 O.3   227  TYR227     -0.2866
     85  N         15.6800    1.4000  -19.2710 N.3   234  TYR234     -0.1227
     86  CA        17.0570    1.7820  -19.0020 C.3   234  TYR234      0.1736
     87  C         17.8160    2.2120  -20.2580 C.2   234  TYR234      0.2595
     88  O         17.7650    1.5520  -21.2970 O.2   234  TYR234     -0.2718
     89  CB        17.7840    0.6060  -18.3440 C.3   234  TYR234      0.0548
     90  CG        17.3540    0.3260  -16.9150 C.ar  234  TYR234     -0.0200
     91  CD1       16.0820   -0.1670  -16.6330 C.ar  234  TYR234     -0.0009
     92  CD2       18.2380    0.5030  -15.8490 C.ar  234  TYR234     -0.0009
     93  CE1       15.6750   -0.4140  -15.3250 C.ar  234  TYR234      0.0417
     94  CE2       17.8440    0.2560  -14.5360 C.ar  234  TYR234      0.0417
     95  CZ        16.5610   -0.2100  -14.2820 C.ar  234  TYR234      0.1957
     96  OH        16.1680   -0.5260  -13.0130 O.3   234  TYR234     -0.2866
     97  N         18.5500    3.3240  -20.1420 N.am  235  PHE235     -0.1962
     98  CA        19.3480    3.8790  -21.2400 C.3   235  PHE235      0.1771
     99  C         20.7360    4.2870  -20.7750 C.2   235  PHE235      0.2619
    100  O         20.9700    4.4160  -19.5760 O.2   235  PHE235     -0.2715
    101  CB        18.6370    5.1000  -21.8240 C.3   235  PHE235      0.0574
    102  CG        17.3490    4.7990  -22.5400 C.ar  235  PHE235     -0.0200
    103  CD1       17.3500    4.4200  -23.8770 C.ar  235  PHE235     -0.0042
    104  CD2       16.1260    4.9460  -21.8930 C.ar  235  PHE235     -0.0042
    105  CE1       16.1480    4.1800  -24.5500 C.ar  235  PHE235     -0.0003
    106  CE2       14.9230    4.7120  -22.5660 C.ar  235  PHE235     -0.0003
    107  CZ        14.9420    4.3300  -23.8880 C.ar  235  PHE235     -0.0000
    108  N         21.6420    4.5470  -21.7140 N.am  236  ALA236     -0.1977
    109  CA        23.0020    4.9920  -21.3960 C.3   236  ALA236      0.1597
    110  C         23.4160    6.1220  -22.3250 C.2   236  ALA236      0.2287
    111  O         22.9230    6.1750  -23.4520 O.2   236  ALA236     -0.2864
    112  CB        23.9740    3.8350  -21.5180 C.3   236  ALA236      0.0319
    113  N         28.6070    1.1770  -22.6040 N.3   241  LYS241     -0.1231
    114  CA        27.7510    0.6950  -21.5100 C.3   241  LYS241      0.1693
    115  C         26.5720   -0.1500  -22.0730 C.2   241  LYS241      0.2592
    116  O         26.2850   -1.2390  -21.5550 O.2   241  LYS241     -0.2718
    117  CB        27.2410    1.8910  -20.6720 C.3   241  LYS241      0.0285
    118  CG        26.1310    1.5740  -19.6620 C.3   241  LYS241      0.0035
    119  CD        26.6170    1.4750  -18.2590 C.3   241  LYS241      0.0206
    120  CE        25.4600    1.5640  -17.2940 C.3   241  LYS241      0.1093
    121  NZ        25.6020    2.6740  -16.3000 N.3   241  LYS241     -0.1314
    122  N         25.9220    0.3520  -23.1470 N.am  242  SER242     -0.1952
    123  CA        24.7840   -0.3000  -23.7940 C.3   242  SER242      0.1924
    124  C         25.2070   -1.4640  -24.7060 C.2   242  SER242      0.2314
    125  O         24.4690   -2.4510  -24.8200 O.2   242  SER242     -0.2863
    126  CB        23.9840    0.7170  -24.5850 C.3   242  SER242      0.2116
    127  OG        23.2340    1.5450  -23.7130 O.3   242  SER242     -0.2180
    128  N         25.2120   -5.0920  -23.5280 N.3   245  TYR245     -0.1241
    129  CA        23.9230   -5.7830  -23.4470 C.3   245  TYR245      0.1605
    130  C         23.5690   -6.4710  -24.7810 C.2   245  TYR245      0.2264
    131  O         22.5720   -7.1790  -24.8270 O.2   245  TYR245     -0.2867
    132  CB        22.8210   -4.8050  -23.0040 C.3   245  TYR245      0.0534
    133  CG        22.9800   -4.3480  -21.5640 C.ar  245  TYR245     -0.0201
    134  CD1       22.3510   -5.0240  -20.5220 C.ar  245  TYR245     -0.0009
    135  CD2       23.7780   -3.2520  -21.2420 C.ar  245  TYR245     -0.0009
    136  CE1       22.4940   -4.6080  -19.1980 C.ar  245  TYR245      0.0417
    137  CE2       23.9480   -2.8400  -19.9210 C.ar  245  TYR245      0.0417
    138  CZ        23.3000   -3.5190  -18.9020 C.ar  245  TYR245      0.1957
    139  OH        23.4700   -3.0890  -17.6050 O.3   245  TYR245     -0.2866
    140  N         23.2870    6.3010  -16.2160 N.3   326  GLU326     -0.1245
    141  CA        22.1510    5.5600  -16.7600 C.3   326  GLU326      0.1567
    142  C         20.9090    6.4030  -16.5450 C.2   326  GLU326      0.2260
    143  O         20.8620    7.2300  -15.6310 O.2   326  GLU326     -0.2867
    144  CB        21.9720    4.0990  -16.2580 C.3   326  GLU326      0.0388
    145  CG        22.5770    3.7000  -14.9200 C.3   326  GLU326      0.1160
    146  CD        22.4740    2.2070  -14.6640 C.2   326  GLU326      0.3649
    147  OE1       21.3500    1.7440  -14.3710 O.co2 326  GLU326     -0.2457
    148  OE2       23.5000    1.4940  -14.7790 O.co2 326  GLU326     -0.2457
@<TRIPOS>BOND
     1    67    68    2
     2    67    66    1
     3    65    66    1
     4    57    56    2
     5    56    55    1
     6    29    28    2
     7    66    69    1
     8    51    50    2
     9    55    58    1
    10    55    54    1
    11    28    27    1
    12    37    36    2
    13    69    70    1
    14    50    54   am
    15    50    49    1
    16    58    59    1
    17    30    27    1
    18    30    31    1
    19    48    49    1
    20    48    46   am
    21    27    26    1
    22    52    49    1
    23    52    53    1
    24    36    44   am
    25    36    35    1
    26    70    71    2
    27    70    72   am
    28    45    46    1
    29    45    44    1
    30    59    60    1
    31    34    35    1
    32    32    31   ar
    33    31    33   ar
    34    46    47    2
    35    35    38    1
    36    38    39    1
    37    41    39   ar
    38    41    43   ar
    39    61    60    1
    40    61    62    2
    41   131   130    2
    42   125   124    2
    43   130   129    1
    44    39    40   ar
    45   124   123    1
    46    21    20    2
    47   126   123    1
    48   126   127    1
    49   105   107   ar
    50   105   103   ar
    51    63    62    1
    52    43    42   ar
    53    62    64    1
    54   107   106   ar
    55   103   102   ar
    56   123   122    1
    57   128   129    1
    58   111   110    2
    59   129   132    1
    60    20    19    1
    61    40    42   ar
    62    24    23    2
    63   122   115   am
    64   132   133    1
    65    19    22    1
    66    19    18    1
    67    22    23    1
    68   113   114    1
    69   106   104   ar
    70   102   104   ar
    71   102   101    1
    72    23    25   am
    73   110   109    1
    74    13    12    2
    75   115   116    2
    76   115   114    1
    77   101    98    1
    78   108   109    1
    79   108    99   am
    80   133   135   ar
    81   133   134   ar
    82   112   109    1
    83   114   117    1
    84    18    12   am
    85    88    87    2
    86   135   137   ar
    87    98    99    1
    88    98    97    1
    89    12    11    1
    90    99   100    2
    91   117   118    1
    92   134   136   ar
    93    87    97   am
    94    87    86    1
    95   137   138   ar
    96    11    14    1
    97    11    10    1
    98   118   119    1
    99    85    86    1
   100    14    15    1
   101   136   138   ar
   102     4     3    2
   103    86    89    1
   104   138   139    1
   105    89    90    1
   106   119   120    1
   107    15    17   ar
   108    15    16   ar
   109     3     2    1
   110   120   121    1
   111     6     5    1
   112     6     7    1
   113    90    91   ar
   114    90    92   ar
   115     2     5    1
   116     2     1    1
   117   141   142    1
   118   141   144    1
   119   141   140    1
   120    91    93   ar
   121   142   143    2
   122   144   145    1
   123     7     9   ar
   124     7     8   ar
   125    92    94   ar
   126    93    95   ar
   127   145   146    1
   128    82    80   ar
   129    82    83   ar
   130   148   146   ar
   131    84    83    1
   132   146   147   ar
   133    94    95   ar
   134    95    96    1
   135    80    78   ar
   136    83    81   ar
   137    78    79   ar
   138    78    77    1
   139    81    79   ar
   140    77    74    1
   141    74    73    1
   142    74    75    1
   143    75    76    2
