@<TRIPOS>MOLECULE
tmp/4r5xA00.pdb
 169 160 0 0 0
SMALL
GASTEIGER

@<TRIPOS>ATOM
      1  N         14.2430   20.6010   19.3910 N.3   121  GLN121     -0.1245
      2  CA        13.8410   19.3070   18.8240 C.3   121  GLN121      0.1566
      3  C         12.4700   18.9980   19.4090 C.2   121  GLN121      0.2260
      4  O         12.3630   18.6550   20.5870 O.2   121  GLN121     -0.2867
      5  CB        14.8500   18.2070   19.1540 C.3   121  GLN121      0.0367
      6  CG        14.4110   16.8190   18.7230 C.3   121  GLN121      0.0905
      7  CD        13.8870   16.8100   17.3120 C.2   121  GLN121      0.2608
      8  OE1       12.7530   16.4020   17.0620 O.2   121  GLN121     -0.2717
      9  NE2       14.7050   17.2750   16.3740 N.am  121  GLN121     -0.0878
     10  N          9.7880   17.0440   17.8070 N.3   123  GLU123     -0.1231
     11  CA         9.1210   15.7700   17.5180 C.3   123  GLU123      0.1699
     12  C          9.5980   14.6960   18.5080 C.2   123  GLU123      0.2592
     13  O         10.7990   14.5990   18.7790 O.2   123  GLU123     -0.2718
     14  CB         9.3770   15.3200   16.0700 C.3   123  GLU123      0.0402
     15  CG         8.5180   14.1280   15.6880 C.3   123  GLU123      0.1161
     16  CD         8.5900   13.7340   14.2230 C.2   123  GLU123      0.3649
     17  OE1        9.1950   14.4630   13.4000 O.co2 123  GLU123     -0.2457
     18  OE2        8.0150   12.6750   13.9020 O.co2 123  GLU123     -0.2457
     19  N          8.6850   13.8980   19.0720 N.am  124  ALA124     -0.1980
     20  CA         7.2470   13.9720   18.8440 C.3   124  ALA124      0.1597
     21  C          6.5580   14.8250   19.8840 C.2   124  ALA124      0.2287
     22  O          5.5750   15.5000   19.5780 O.2   124  ALA124     -0.2864
     23  CB         6.6260   12.5600   18.8420 C.3   124  ALA124      0.0319
     24  N         19.1110   11.6780   17.1670 N.3   263  VAL263     -0.1231
     25  CA        18.9450   10.8210   16.0020 C.3   263  VAL263      0.1692
     26  C         19.7550   11.3880   14.8370 C.2   263  VAL263      0.2593
     27  O         20.8330   11.9350   15.0560 O.2   263  VAL263     -0.2718
     28  CB        17.4550   10.6940   15.6630 C.3   263  VAL263      0.0266
     29  CG1       16.7660    9.9510   16.8060 C.3   263  VAL263      0.0020
     30  CG2       16.8000   12.0960   15.4690 C.3   263  VAL263      0.0020
     31  N         19.2480   11.2570   13.6180 N.am  264  GLY264     -0.1942
     32  CA        19.9750   11.7280   12.4400 C.3   264  GLY264      0.2014
     33  C         19.6210   13.1510   12.0490 C.2   264  GLY264      0.2639
     34  O         20.5060   13.9700   11.8080 O.2   264  GLY264     -0.2714
     35  N         18.3330   13.4280   11.9130 N.am  265  ALA265     -0.1963
     36  CA        17.9130   14.7980   11.5690 C.3   265  ALA265      0.1728
     37  C         16.4290   14.9860   11.7850 C.2   265  ALA265      0.2616
     38  O         15.7060   14.0390   12.1190 O.2   265  ALA265     -0.2715
     39  CB        18.2620   15.1210   10.1140 C.3   265  ALA265      0.0334
     40  N         15.9670   16.2060   11.5370 N.am  266  MET266     -0.1963
     41  CA        14.5720   16.5560   11.7490 C.3   266  MET266      0.1736
     42  C         14.1340   17.5420   10.6950 C.2   266  MET266      0.2616
     43  O         14.8480   18.5230   10.4150 O.2   266  MET266     -0.2715
     44  CB        14.3860   17.1600   13.1380 C.3   266  MET266      0.0427
     45  CG        12.9810   17.5800   13.4390 C.3   266  MET266      0.0599
     46  SD        11.8780   16.1230   13.4090 S.3   266  MET266     -0.1393
     47  CE        12.7300   15.0140   14.4780 C.3   266  MET266      0.0692
     48  N         12.9750   17.3020   10.0960 N.am  267  GLU267     -0.1977
     49  CA        12.4000   18.2780    9.1790 C.3   267  GLU267      0.1602
     50  C         11.4950   19.2460    9.9610 C.2   267  GLU267      0.2287
     51  O         10.6920   18.8150   10.7890 O.2   267  GLU267     -0.2864
     52  CB        11.6370   17.5550    8.0620 C.3   267  GLU267      0.0415
     53  CG        10.1670   17.2090    8.3700 C.3   267  GLU267      0.1163
     54  CD         9.9620   16.1220    9.4300 C.2   267  GLU267      0.3649
     55  OE1       10.9440   15.5870   10.0100 O.co2 267  GLU267     -0.2457
     56  OE2        8.7830   15.7750    9.6650 O.co2 267  GLU267     -0.2457
     57  N         25.6400    8.6640    3.6870 N.3   293  ARG293     -0.1245
     58  CA        24.7990    9.0270    4.8540 C.3   293  ARG293      0.1563
     59  C         24.2020   10.4290    4.7080 C.2   293  ARG293      0.2260
     60  O         22.9850   10.6300    4.8830 O.2   293  ARG293     -0.2867
     61  CB        25.6300    8.9200    6.1310 C.3   293  ARG293      0.0307
     62  CG        24.9390    9.4000    7.3790 C.3   293  ARG293      0.0489
     63  CD        23.7610    8.5090    7.7240 C.3   293  ARG293      0.2205
     64  NE        23.1290    8.9770    8.9530 N.pl3 293  ARG293     -0.0865
     65  CZ        22.0070    8.4810    9.4600 C.cat 293  ARG293      0.5346
     66  NH1       21.3760    7.4860    8.8340 N.pl3 293  ARG293      0.1354
     67  NH2       21.5120    9.0020   10.5800 N.pl3 293  ARG293      0.1354
     68  N         21.5220   10.5320    1.9450 N.3   296  THR296     -0.1203
     69  CA        20.2150    9.9570    2.2930 C.3   296  THR296      0.1994
     70  C         19.4910   10.7800    3.3610 C.2   296  THR296      0.2617
     71  O         18.2630   10.8850    3.3180 O.2   296  THR296     -0.2717
     72  CB        20.3090    8.4960    2.7800 C.3   296  THR296      0.1784
     73  OG1       21.0670    8.4250    3.9900 O.3   296  THR296     -0.2211
     74  CG2       20.9430    7.6190    1.7390 C.3   296  THR296      0.0376
     75  N         20.2300   11.3550    4.3160 N.am  297  VAL297     -0.1979
     76  CA        19.5570   12.0750    5.3950 C.3   297  VAL297      0.1595
     77  C         19.0660   13.4440    4.8800 C.2   297  VAL297      0.2287
     78  O         17.9310   13.8460    5.1600 O.2   297  VAL297     -0.2864
     79  CB        20.4690   12.2240    6.6260 C.3   297  VAL297      0.0276
     80  CG1       19.8030   13.1360    7.6730 C.3   297  VAL297      0.0022
     81  CG2       20.7370   10.8230    7.2390 C.3   297  VAL297      0.0022
     82  N         16.1230   12.5910    2.7730 N.3   300  HIS300     -0.1226
     83  CA        15.0030   12.1890    3.6170 C.3   300  HIS300      0.1752
     84  C         14.2600   13.4190    4.1610 C.2   300  HIS300      0.2595
     85  O         13.0370   13.5420    4.0040 O.2   300  HIS300     -0.2718
     86  CB        15.5070   11.3180    4.7570 C.3   300  HIS300      0.0759
     87  CG        14.4370   10.8790    5.6970 C.ar  300  HIS300      0.0818
     88  ND1       13.9600    9.5870    5.7220 N.ar  300  HIS300     -0.2268
     89  CD2       13.7390   11.5640    6.6410 C.ar  300  HIS300      0.1154
     90  CE1       13.0210    9.4870    6.6530 C.ar  300  HIS300      0.1986
     91  NE2       12.8810   10.6660    7.2270 N.ar  300  HIS300     -0.2212
     92  N         14.9940   14.3420    4.7690 N.am  301  GLU301     -0.1979
     93  CA        14.3240   15.5170    5.3320 C.3   301  GLU301      0.1602
     94  C         13.7010   16.3600    4.2370 C.2   301  GLU301      0.2287
     95  O         12.6520   16.9910    4.4590 O.2   301  GLU301     -0.2864
     96  CB        15.2920   16.3450    6.1870 C.3   301  GLU301      0.0415
     97  CG        16.0370   15.5200    7.2720 C.3   301  GLU301      0.1163
     98  CD        15.1450   14.6050    8.1190 C.2   301  GLU301      0.3649
     99  OE1       13.9490   14.8810    8.3090 O.co2 301  GLU301     -0.2457
    100  OE2       15.6770   13.5860    8.6050 O.co2 301  GLU301     -0.2457
    101  N         10.3160   14.9500    3.1110 N.3   304  HIS304     -0.1241
    102  CA         9.2500   15.2660    4.0600 C.3   304  HIS304      0.1621
    103  C          8.4260   16.5010    3.6820 C.2   304  HIS304      0.2264
    104  O          7.2950   16.5930    4.1380 O.2   304  HIS304     -0.2867
    105  CB         9.7900   15.4860    5.4870 C.3   304  HIS304      0.0745
    106  CG         9.8500   14.2440    6.3340 C.ar  304  HIS304      0.0817
    107  ND1        8.7530   13.4340    6.5640 N.ar  304  HIS304     -0.2268
    108  CD2       10.8770   13.6830    7.0140 C.ar  304  HIS304      0.1154
    109  CE1        9.1070   12.4210    7.3360 C.ar  304  HIS304      0.1986
    110  NE2       10.3940   12.5420    7.6240 N.ar  304  HIS304     -0.2212
    111  N          6.6660    8.3620    7.8430 N.3   323  GLU323     -0.1245
    112  CA         8.0590    7.9190    7.8420 C.3   323  GLU323      0.1567
    113  C          8.3370    6.7970    6.8570 C.2   323  GLU323      0.2260
    114  O          9.3420    6.8290    6.1590 O.2   323  GLU323     -0.2867
    115  CB         8.5060    7.4830    9.2340 C.3   323  GLU323      0.0388
    116  CG         8.4910    8.6490   10.2450 C.3   323  GLU323      0.1160
    117  CD         9.3610    9.8280    9.8130 C.2   323  GLU323      0.3649
    118  OE1       10.3130    9.6200    9.0410 O.co2 323  GLU323     -0.2457
    119  OE2        9.1000   10.9610   10.2500 O.co2 323  GLU323     -0.2457
    120  N         13.1900    8.4090   -0.0270 N.3   330  GLU330     -0.1245
    121  CA        14.6460    8.4970    0.2220 C.3   330  GLU330      0.1567
    122  C         15.4230    7.3680   -0.4650 C.2   330  GLU330      0.2260
    123  O         16.4940    7.5810   -1.0640 O.2   330  GLU330     -0.2867
    124  CB        14.8950    8.4670    1.7360 C.3   330  GLU330      0.0388
    125  CG        16.3390    8.2810    2.1840 C.3   330  GLU330      0.1160
    126  CD        16.4530    7.6450    3.5870 C.2   330  GLU330      0.3649
    127  OE1       15.5070    7.7460    4.4220 O.co2 330  GLU330     -0.2457
    128  OE2       17.5090    7.0230    3.8440 O.co2 330  GLU330     -0.2457
    129  N          8.6830    8.1850   22.1490 N.3   376  GLU376     -0.1245
    130  CA        10.0720    8.0740   21.7250 C.3   376  GLU376      0.1567
    131  C         10.4250    6.6310   21.3610 C.2   376  GLU376      0.2260
    132  O         11.2900    6.3810   20.5140 O.2   376  GLU376     -0.2867
    133  CB        10.9880    8.5920   22.8060 C.3   376  GLU376      0.0388
    134  CG        11.0440   10.1140   22.9620 C.3   376  GLU376      0.1160
    135  CD         9.9990   10.6650   23.8630 C.2   376  GLU376      0.3649
    136  OE1        9.1330    9.9100   24.3130 O.co2 376  GLU376     -0.2457
    137  OE2       10.0450   11.8350   24.1410 O.co2 376  GLU376     -0.2457
    138  N          9.8760    5.1290   17.3230 N.3   379  TYR379     -0.1241
    139  CA        10.6260    5.4570   16.1280 C.3   379  TYR379      0.1605
    140  C         11.5860    4.3060   15.8350 C.2   379  TYR379      0.2264
    141  O         12.7750    4.4010   16.0730 O.2   379  TYR379     -0.2867
    142  CB        11.3410    6.8040   16.3030 C.3   379  TYR379      0.0534
    143  CG        10.3470    7.9610   16.2210 C.ar  379  TYR379     -0.0201
    144  CD1        9.4260    8.2060   17.2600 C.ar  379  TYR379     -0.0009
    145  CD2       10.3030    8.7820   15.0980 C.ar  379  TYR379     -0.0009
    146  CE1        8.5060    9.2410   17.1830 C.ar  379  TYR379      0.0417
    147  CE2        9.3910    9.8350   15.0060 C.ar  379  TYR379      0.0417
    148  CZ         8.4950   10.0640   16.0550 C.ar  379  TYR379      0.1957
    149  OH         7.5910   11.0920   15.9460 O.3   379  TYR379     -0.2866
    150  N          9.9190    2.4930   10.4080 N.3   384  TYR384     -0.1241
    151  CA        10.6600    3.1300    9.3180 C.3   384  TYR384      0.1605
    152  C         10.9780    2.1960    8.1400 C.2   384  TYR384      0.2264
    153  O         10.6430    2.5040    6.9960 O.2   384  TYR384     -0.2867
    154  CB        11.9790    3.7090    9.8260 C.3   384  TYR384      0.0534
    155  CG        11.8250    5.0720   10.4260 C.ar  384  TYR384     -0.0201
    156  CD1       12.4070    6.1920    9.8190 C.ar  384  TYR384     -0.0009
    157  CD2       11.0690    5.2520   11.5770 C.ar  384  TYR384     -0.0009
    158  CE1       12.2600    7.4590   10.3610 C.ar  384  TYR384      0.0417
    159  CE2       10.9230    6.5250   12.1430 C.ar  384  TYR384      0.0417
    160  CZ        11.5190    7.6200   11.5220 C.ar  384  TYR384      0.1957
    161  OH        11.3770    8.8890   12.0420 O.3   384  TYR384     -0.2866
    162  N         16.3350    8.7640   25.7750 N.3   838  MET838     -0.1245
    163  CA        16.2430    8.2730   24.4100 C.3   838  MET838      0.1570
    164  C         17.5390    7.5490   24.0290 C.2   838  MET838      0.2261
    165  O         17.5100    6.4630   23.4420 O.2   838  MET838     -0.2867
    166  CB        15.9450    9.4120   23.4230 C.3   838  MET838      0.0387
    167  CG        15.5180    8.8830   22.0490 C.3   838  MET838      0.0595
    168  SD        15.0280   10.2020   20.9280 S.3   838  MET838     -0.1393
    169  CE        13.9530   11.1050   22.0430 C.3   838  MET838      0.0692
@<TRIPOS>BOND
     1   123   122    2
     2   122   121    1
     3   120   121    1
     4   121   124    1
     5   124   125    1
     6    74    72    1
     7    68    69    1
     8   125   126    1
     9    69    72    1
    10    69    70    1
    11    82    83    1
    12    72    73    1
    13   101   102    1
    14    71    70    2
    15    70    75   am
    16   126   128   ar
    17   126   127   ar
    18    83    84    1
    19    83    86    1
    20   103   102    1
    21   103   104    2
    22    57    58    1
    23    85    84    2
    24   102   105    1
    25    84    92   am
    26    94    95    2
    27    94    93    1
    28    75    76    1
    29    59    58    1
    30    59    60    2
    31    86    87    1
    32    92    93    1
    33    58    61    1
    34    77    78    2
    35    77    76    1
    36    93    96    1
    37    76    79    1
    38   105   106    1
    39    87    88   ar
    40    87    89   ar
    41    88    90   ar
    42    61    62    1
    43   114   113    2
    44    96    97    1
    45   106   107   ar
    46   106   108   ar
    47   107   109   ar
    48    79    81    1
    49    79    80    1
    50    89    91   ar
    51    90    91   ar
    52   113   112    1
    53   153   152    2
    54   108   110   ar
    55    97    98    1
    56   109   110   ar
    57    62    63    1
    58    63    64    1
    59   112   111    1
    60   112   115    1
    61    52    53    1
    62    52    49    1
    63    98    99   ar
    64    98   100   ar
    65   152   151    1
    66    53    54    1
    67    66    65    1
    68    64    65    2
    69   118   117   ar
    70    49    50    1
    71    49    48    1
    72   115   116    1
    73   151   154    1
    74   151   150    1
    75    54    56   ar
    76    54    55   ar
    77    65    67    1
    78   117   116    1
    79   117   119   ar
    80   156   158   ar
    81   156   155   ar
    82   154   155    1
    83    50    51    2
    84    48    42   am
    85    39    36    1
    86   158   160   ar
    87    43    42    2
    88   155   157   ar
    89    42    41    1
    90   160   161    1
    91   160   159   ar
    92    40    41    1
    93    40    37   am
    94    36    37    1
    95    36    35    1
    96   157   159   ar
    97    41    44    1
    98    37    38    2
    99    34    33    2
   100    35    33   am
   101    33    32    1
   102    32    31    1
   103    44    45    1
   104    17    16   ar
   105    46    45    1
   106    46    47    1
   107    31    26   am
   108    18    16   ar
   109    16    15    1
   110    26    27    2
   111    26    25    1
   112   147   145   ar
   113   147   148   ar
   114   145   143   ar
   115    30    28    1
   116    28    25    1
   117    28    29    1
   118    15    14    1
   119   140   141    2
   120   140   139    1
   121   149   148    1
   122    25    24    1
   123   148   146   ar
   124    14    11    1
   125   139   142    1
   126   139   138    1
   127   143   142    1
   128   143   144   ar
   129     9     7   am
   130     8     7    2
   131   146   144   ar
   132     7     6    1
   133    11    10    1
   134    11    12    1
   135    12    13    2
   136    12    19   am
   137     6     5    1
   138     2     5    1
   139     2     1    1
   140     2     3    1
   141    23    20    1
   142    20    19    1
   143    20    21    1
   144     3     4    2
   145    22    21    2
   146   132   131    2
   147   168   169    1
   148   168   167    1
   149   131   130    1
   150   130   129    1
   151   130   133    1
   152   167   166    1
   153   133   134    1
   154   134   135    1
   155   166   163    1
   156   165   164    2
   157   135   137   ar
   158   135   136   ar
   159   164   163    1
   160   163   162    1
