@<TRIPOS>MOLECULE
tmp/4r5yB00.pdb
 201 191 0 0 0
SMALL
GASTEIGER

@<TRIPOS>ATOM
      1  N         36.6200  -14.7990   -9.3050 N.3    15  ILE15      -0.1245
      2  CA        35.5390  -14.9930   -8.3320 C.3    15  ILE15       0.1561
      3  C         34.9850  -16.4200   -8.3920 C.2    15  ILE15       0.2260
      4  O         34.6770  -17.0380   -7.3670 O.2    15  ILE15      -0.2867
      5  CB        34.4050  -13.9490   -8.5100 C.3    15  ILE15       0.0252
      6  CG1       34.5850  -12.7960   -7.5220 C.3    15  ILE15       0.0019
      7  CG2       33.0380  -14.5820   -8.2990 C.3    15  ILE15       0.0019
      8  CD1       35.8660  -12.0230   -7.7080 C.3    15  ILE15       0.0001
      9  N         34.5080  -16.0170  -14.1390 N.3    23  VAL23      -0.1245
     10  CA        34.1490  -14.6440  -13.7830 C.3    23  VAL23       0.1561
     11  C         35.1740  -13.9630  -12.8810 C.2    23  VAL23       0.2260
     12  O         35.3910  -14.3690  -11.7400 O.2    23  VAL23      -0.2867
     13  CB        32.7520  -14.5530  -13.1300 C.3    23  VAL23       0.0252
     14  CG1       32.5070  -13.1470  -12.5800 C.3    23  VAL23       0.0019
     15  CG2       31.6740  -14.9260  -14.1320 C.3    23  VAL23       0.0019
     16  N         32.3560   -6.4730  -13.4110 N.3    33  ALA33      -0.1245
     17  CA        32.5030   -7.9120  -13.3440 C.3    33  ALA33       0.1562
     18  C         32.6460   -8.4590  -14.7540 C.2    33  ALA33       0.2260
     19  O         31.8110   -8.2070  -15.6220 O.2    33  ALA33      -0.2867
     20  CB        31.3270   -8.5340  -12.6370 C.3    33  ALA33       0.0290
     21  N         33.1320  -11.6730  -17.3720 N.3    35  LYS35      -0.1245
     22  CA        32.9170  -13.0960  -17.5890 C.3    35  LYS35       0.1561
     23  C         33.6480  -13.5340  -18.8420 C.2    35  LYS35       0.2260
     24  O         33.2330  -13.2060  -19.9470 O.2    35  LYS35      -0.2867
     25  CB        31.4310  -13.3870  -17.7430 C.3    35  LYS35       0.0271
     26  CG        31.1120  -14.8330  -18.0660 C.3    35  LYS35       0.0035
     27  CD        29.6270  -14.9950  -18.3330 C.3    35  LYS35       0.0206
     28  CE        29.2940  -16.4030  -18.7810 C.3    35  LYS35       0.1093
     29  NZ        29.6040  -17.3970  -17.7190 N.3    35  LYS35      -0.1314
     30  N         24.2180  -14.3950  -25.8130 N.3    53  GLU53      -0.1245
     31  CA        24.1030  -13.8680  -24.4570 C.3    53  GLU53       0.1567
     32  C         24.1220  -12.3500  -24.4560 C.2    53  GLU53       0.2260
     33  O         23.3540  -11.7090  -23.7420 O.2    53  GLU53      -0.2867
     34  CB        25.2190  -14.4100  -23.5620 C.3    53  GLU53       0.0388
     35  CG        24.9880  -14.1720  -22.0790 C.3    53  GLU53       0.1160
     36  CD        25.7940  -15.1160  -21.2020 C.2    53  GLU53       0.3649
     37  OE1       25.5880  -15.1130  -19.9700 O.co2  53  GLU53      -0.2457
     38  OE2       26.6300  -15.8660  -21.7480 O.co2  53  GLU53      -0.2457
     39  N         20.7680  -10.8670  -25.9470 N.3    56  VAL56      -0.1231
     40  CA        19.7440  -10.9270  -24.9180 C.3    56  VAL56       0.1692
     41  C         20.0190   -9.8710  -23.8650 C.2    56  VAL56       0.2591
     42  O         19.1280   -9.1070  -23.5000 O.2    56  VAL56      -0.2718
     43  CB        19.7020  -12.2980  -24.2350 C.3    56  VAL56       0.0266
     44  CG1       18.8660  -12.2340  -22.9610 C.3    56  VAL56       0.0020
     45  CG2       19.1600  -13.3350  -25.1940 C.3    56  VAL56       0.0020
     46  N         21.2570   -9.8240  -23.3850 N.am   57  LEU57      -0.1980
     47  CA        21.6300   -8.8600  -22.3580 C.3    57  LEU57       0.1596
     48  C         21.3520   -7.4140  -22.7820 C.2    57  LEU57       0.2287
     49  O         20.7130   -6.6600  -22.0470 O.2    57  LEU57      -0.2864
     50  CB        23.0950   -9.0400  -21.9500 C.3    57  LEU57       0.0297
     51  CG        23.3050  -10.0050  -20.7820 C.3    57  LEU57       0.0022
     52  CD1       24.7720  -10.3330  -20.6100 C.3    57  LEU57       0.0001
     53  CD2       22.7480   -9.3990  -19.5090 C.3    57  LEU57       0.0001
     54  N         18.1030   -5.2580  -22.3380 N.3    60  THR60      -0.1218
     55  CA        17.6120   -5.1340  -20.9700 C.3    60  THR60       0.1862
     56  C         18.0790   -3.8570  -20.2700 C.2    60  THR60       0.2287
     57  O         19.2780   -3.5930  -20.1590 O.2    60  THR60      -0.2866
     58  CB        18.0160   -6.3600  -20.1110 C.3    60  THR60       0.1770
     59  OG1       19.4420   -6.5150  -20.1250 O.3    60  THR60      -0.2211
     60  CG2       17.3690   -7.6310  -20.6450 C.3    60  THR60       0.0375
     61  N         17.4250   -6.4150  -13.2270 N.3    65  ILE65      -0.1231
     62  CA        18.2440   -7.2320  -14.1170 C.3    65  ILE65       0.1692
     63  C         19.7020   -6.8010  -14.0180 C.2    65  ILE65       0.2591
     64  O         19.9970   -5.6070  -13.9370 O.2    65  ILE65      -0.2718
     65  CB        17.7870   -7.1140  -15.5810 C.3    65  ILE65       0.0266
     66  CG1       16.3160   -7.4960  -15.7050 C.3    65  ILE65       0.0019
     67  CG2       18.6340   -8.0000  -16.4790 C.3    65  ILE65       0.0020
     68  CD1       16.0200   -8.8940  -15.2220 C.3    65  ILE65       0.0001
     69  N         20.6070   -7.7760  -14.0080 N.am   66  LEU66      -0.1980
     70  CA        22.0310   -7.4850  -13.9780 C.3    66  LEU66       0.1596
     71  C         22.3840   -6.5610  -15.1360 C.2    66  LEU66       0.2287
     72  O         22.0200   -6.8150  -16.2880 O.2    66  LEU66      -0.2864
     73  CB        22.8510   -8.7710  -14.0530 C.3    66  LEU66       0.0297
     74  CG        24.3420   -8.6160  -13.7620 C.3    66  LEU66       0.0022
     75  CD1       24.5530   -8.0080  -12.3890 C.3    66  LEU66       0.0001
     76  CD2       25.0130   -9.9590  -13.8500 C.3    66  LEU66       0.0001
     77  N         32.2090  -10.7380  -21.3240 N.3    79  ILE79      -0.1245
     78  CA        31.0000   -9.9480  -21.0970 C.3    79  ILE79       0.1561
     79  C         31.1260   -9.1840  -19.7790 C.2    79  ILE79       0.2260
     80  O         31.4350   -9.7740  -18.7390 O.2    79  ILE79      -0.2867
     81  CB        29.7470  -10.8410  -21.0220 C.3    79  ILE79       0.0252
     82  CG1       29.4420  -11.4640  -22.3840 C.3    79  ILE79       0.0019
     83  CG2       28.5510  -10.0440  -20.5380 C.3    79  ILE79       0.0019
     84  CD1       28.1980  -12.3200  -22.3870 C.3    79  ILE79       0.0001
     85  N         29.7050   -6.7320  -16.7040 N.3    81  THR81      -0.1203
     86  CA        28.5330   -6.3170  -15.9470 C.3    81  THR81       0.1994
     87  C         28.9130   -5.4190  -14.7690 C.2    81  THR81       0.2618
     88  O         30.0820   -5.3280  -14.3940 O.2    81  THR81      -0.2717
     89  CB        27.7340   -7.5390  -15.4300 C.3    81  THR81       0.1784
     90  OG1       28.6120   -8.4360  -14.7400 O.3    81  THR81      -0.2211
     91  CG2       27.0900   -8.2810  -16.5850 C.3    81  THR81       0.0376
     92  N         27.9160   -4.7480  -14.2020 N.am   82  GLN82      -0.1965
     93  CA        28.1020   -4.0070  -12.9650 C.3    82  GLN82       0.1733
     94  C         28.5410   -4.9660  -11.8740 C.2    82  GLN82       0.2616
     95  O         28.1300   -6.1250  -11.8460 O.2    82  GLN82      -0.2715
     96  CB        26.7940   -3.3280  -12.5480 C.3    82  GLN82       0.0408
     97  CG        25.6360   -4.2940  -12.2710 C.3    82  GLN82       0.0908
     98  CD        24.3780   -3.5940  -11.7670 C.2    82  GLN82       0.2608
     99  OE1       23.2600   -4.0580  -12.0040 O.2    82  GLN82      -0.2717
    100  NE2       24.5570   -2.4770  -11.0660 N.am   82  GLN82      -0.0878
    101  N         29.3830   -4.4990  -10.9680 N.am   83  TRP83      -0.1960
    102  CA        29.7410   -5.3470   -9.8480 C.3    83  TRP83       0.1771
    103  C         28.6670   -5.2880   -8.7720 C.2    83  TRP83       0.2620
    104  O         28.3260   -4.2100   -8.2730 O.2    83  TRP83      -0.2715
    105  CB        31.0930   -4.9630   -9.2610 C.3    83  TRP83       0.0590
    106  CG        31.4510   -5.8150   -8.0920 C.ar   83  TRP83       0.0006
    107  CD1       31.3530   -5.4840   -6.7700 C.ar   83  TRP83       0.0946
    108  CD2       31.9410   -7.1590   -8.1340 C.ar   83  TRP83       0.0152
    109  NE1       31.7690   -6.5350   -5.9870 N.ar   83  TRP83      -0.2442
    110  CE2       32.1320   -7.5750   -6.8020 C.ar   83  TRP83       0.0810
    111  CE3       32.2460   -8.0470   -9.1700 C.ar   83  TRP83       0.0012
    112  CZ2       32.6110   -8.8360   -6.4790 C.ar   83  TRP83       0.0191
    113  CZ3       32.7190   -9.2970   -8.8480 C.ar   83  TRP83       0.0001
    114  CH2       32.8980   -9.6820   -7.5130 C.ar   83  TRP83       0.0015
    115  N         28.1290   -6.4560   -8.4350 N.am   84  CYS84      -0.1954
    116  CA        27.1980   -6.5910   -7.3250 C.3    84  CYS84       0.1843
    117  C         27.9230   -7.1750   -6.1330 C.2    84  CYS84       0.2625
    118  O         28.7370   -8.0880   -6.2800 O.2    84  CYS84      -0.2714
    119  CB        26.0380   -7.5050   -7.7020 C.3    84  CYS84       0.0997
    120  SG        24.9580   -6.8040   -8.9420 S.3    84  CYS84      -0.0797
    121  N         27.6280   -6.6510   -4.9510 N.am   85  GLU85      -0.1963
    122  CA        28.2230   -7.1800   -3.7340 C.3    85  GLU85       0.1733
    123  C         27.1430   -7.7010   -2.7840 C.2    85  GLU85       0.2616
    124  O         26.1720   -7.0000   -2.4790 O.2    85  GLU85      -0.2715
    125  CB        29.1010   -6.1240   -3.0620 C.3    85  GLU85       0.0429
    126  CG        30.0700   -6.6870   -2.0350 C.3    85  GLU85       0.1163
    127  CD        31.3540   -5.8790   -1.9460 C.2    85  GLU85       0.3649
    128  OE1       31.7240   -5.4710   -0.8210 O.co2  85  GLU85      -0.2457
    129  OE2       31.9930   -5.6630   -3.0020 O.co2  85  GLU85      -0.2457
    130  N         27.3150   -8.9420   -2.3350 N.am   86  GLY86      -0.1955
    131  CA        26.3620   -9.5870   -1.4530 C.3    86  GLY86       0.1869
    132  C         26.4130  -11.0800   -1.6830 C.2    86  GLY86       0.2309
    133  O         27.4880  -11.6410   -1.8820 O.2    86  GLY86      -0.2863
    134  N         11.5090   -9.1820  -18.3730 N.3   119  LEU119     -0.1245
    135  CA        12.0720  -10.1320  -19.3260 C.3   119  LEU119      0.1561
    136  C         11.0110  -10.6790  -20.2730 C.2   119  LEU119      0.2260
    137  O         11.2080  -10.7160  -21.4880 O.2   119  LEU119     -0.2867
    138  CB        12.7570  -11.2810  -18.5880 C.3   119  LEU119      0.0270
    139  CG        13.9090  -10.8670  -17.6720 C.3   119  LEU119      0.0019
    140  CD1       14.5210  -12.0800  -16.9890 C.3   119  LEU119      0.0001
    141  CD2       14.9580  -10.0990  -18.4610 C.3   119  LEU119      0.0001
    142  N         11.6880  -12.2050  -23.6640 N.3   124  ILE124     -0.1245
    143  CA        12.9080  -12.9040  -23.2880 C.3   124  ILE124      0.1561
    144  C         12.5950  -13.9900  -22.2690 C.2   124  ILE124      0.2260
    145  O         12.1230  -13.7070  -21.1640 O.2   124  ILE124     -0.2867
    146  CB        13.9340  -11.9380  -22.6710 C.3   124  ILE124      0.0252
    147  CG1       14.3100  -10.8510  -23.6820 C.3   124  ILE124      0.0019
    148  CG2       15.1550  -12.7020  -22.1620 C.3   124  ILE124      0.0019
    149  CD1       15.1500   -9.7360  -23.0960 C.3   124  ILE124      0.0001
    150  N         13.9780  -16.4180  -19.7240 N.3   126  HIS126     -0.1241
    151  CA        15.1170  -16.7730  -18.8900 C.3   126  HIS126      0.1621
    152  C         15.0580  -18.2670  -18.6160 C.2   126  HIS126      0.2264
    153  O         14.2510  -18.7210  -17.8050 O.2   126  HIS126     -0.2867
    154  CB        15.0740  -15.9930  -17.5750 C.3   126  HIS126      0.0745
    155  CG        16.2120  -16.3080  -16.6500 C.ar  126  HIS126      0.0817
    156  ND1       17.2860  -17.0780  -17.0280 N.ar  126  HIS126     -0.2268
    157  CD2       16.4320  -15.9490  -15.3620 C.ar  126  HIS126      0.1154
    158  CE1       18.1270  -17.1850  -16.0100 C.ar  126  HIS126      0.1986
    159  NE2       17.6320  -16.5100  -14.9910 N.ar  126  HIS126     -0.2212
    160  N         20.5830  -12.4070   -7.3500 N.3   135  PHE135     -0.1241
    161  CA        21.5740  -11.7960   -6.4660 C.3   135  PHE135      0.1605
    162  C         20.9860  -10.6870   -5.5940 C.2   135  PHE135      0.2264
    163  O         20.3050   -9.7900   -6.0920 O.2   135  PHE135     -0.2867
    164  CB        22.7760  -11.2740   -7.2640 C.3   135  PHE135      0.0534
    165  CG        24.0330  -11.1360   -6.4430 C.ar  135  PHE135     -0.0203
    166  CD1       24.2200  -10.0380   -5.6170 C.ar  135  PHE135     -0.0042
    167  CD2       25.0260  -12.1070   -6.4930 C.ar  135  PHE135     -0.0042
    168  CE1       25.3710   -9.9100   -4.8550 C.ar  135  PHE135     -0.0003
    169  CE2       26.1790  -11.9850   -5.7360 C.ar  135  PHE135     -0.0003
    170  CZ        26.3510  -10.8830   -4.9170 C.ar  135  PHE135     -0.0000
    171  N         18.4310  -10.0950  -11.0090 N.3   144  ILE144     -0.1231
    172  CA        18.2400  -11.3260  -11.7610 C.3   144  ILE144      0.1692
    173  C         19.2520  -11.4240  -12.8970 C.2   144  ILE144      0.2593
    174  O         19.4820  -10.4540  -13.6210 O.2   144  ILE144     -0.2718
    175  CB        16.8250  -11.3980  -12.3610 C.3   144  ILE144      0.0266
    176  CG1       15.7710  -11.3690  -11.2540 C.3   144  ILE144      0.0019
    177  CG2       16.6600  -12.6480  -13.2090 C.3   144  ILE144      0.0020
    178  CD1       14.3520  -11.4910  -11.7710 C.3   144  ILE144      0.0001
    179  N         19.8560  -12.5990  -13.0430 N.am  145  GLY145     -0.1942
    180  CA        20.8010  -12.8570  -14.1140 C.3   145  GLY145      0.2014
    181  C         21.1670  -14.3280  -14.1540 C.2   145  GLY145      0.2639
    182  O         20.5310  -15.1410  -13.4810 O.2   145  GLY145     -0.2714
    183  N         22.1800  -14.6740  -14.9470 N.am  146  ASP146     -0.1957
    184  CA        22.6970  -16.0440  -14.9840 C.3   146  ASP146      0.1840
    185  C         24.1120  -16.1250  -14.4120 C.2   146  ASP146      0.2622
    186  O         25.0760  -15.7200  -15.0590 O.2   146  ASP146     -0.2715
    187  CB        22.6780  -16.6180  -16.4050 C.3   146  ASP146      0.1450
    188  CG        23.3920  -17.9600  -16.4960 C.2   146  ASP146      0.3671
    189  OD1       22.8070  -18.9770  -16.0560 O.co2 146  ASP146     -0.2456
    190  OD2       24.5390  -17.9910  -16.9950 O.co2 146  ASP146     -0.2456
    191  N         24.2290  -16.6690  -13.2050 N.am  147  PHE147     -0.1974
    192  CA        25.5020  -16.6860  -12.4920 C.3   147  PHE147      0.1639
    193  C         26.2050  -18.0330  -12.6190 C.2   147  PHE147      0.2290
    194  O         27.2590  -18.2550  -12.0180 O.2   147  PHE147     -0.2864
    195  CB        25.2880  -16.3360  -11.0130 C.3   147  PHE147      0.0560
    196  CG        24.9020  -14.8960  -10.7770 C.ar  147  PHE147     -0.0200
    197  CD1       25.7310  -14.0490  -10.0550 C.ar  147  PHE147     -0.0042
    198  CD2       23.7140  -14.3860  -11.2840 C.ar  147  PHE147     -0.0042
    199  CE1       25.3770  -12.7180   -9.8410 C.ar  147  PHE147     -0.0003
    200  CE2       23.3560  -13.0610  -11.0770 C.ar  147  PHE147     -0.0003
    201  CZ        24.1880  -12.2270  -10.3540 C.ar  147  PHE147     -0.0000
@<TRIPOS>BOND
     1    39    40    1
     2    30    31    1
     3    45    43    1
     4    40    43    1
     5    40    41    1
     6    31    32    1
     7    31    34    1
     8    32    33    2
     9    43    44    1
    10    41    42    2
    11    41    46   am
    12   147   149    1
    13   147   146    1
    14   142   143    1
    15    34    35    1
    16    46    47    1
    17   143   146    1
    18   143   144    1
    19    48    47    1
    20    48    49    2
    21   146   148    1
    22    84    82    1
    23    82    81    1
    24    47    50    1
    25    54    55    1
    26   144   145    2
    27    35    36    1
    28    50    51    1
    29    38    36   ar
    30   137   136    2
    31    77    78    1
    32    36    37   ar
    33    78    81    1
    34    78    79    1
    35    81    83    1
    36    55    56    1
    37    55    58    1
    38    51    52    1
    39    51    53    1
    40    60    58    1
    41   136   135    1
    42    56    57    2
    43    59    58    1
    44    24    23    2
    45    79    80    2
    46   150   151    1
    47   135   138    1
    48   135   134    1
    49   151   152    1
    50   151   154    1
    51    23    22    1
    52    28    27    1
    53    28    29    1
    54   152   153    2
    55   138   139    1
    56   141   139    1
    57    27    26    1
    58    26    25    1
    59    25    22    1
    60   139   140    1
    61    22    21    1
    62   154   155    1
    63   156   155   ar
    64   156   158   ar
    65   190   188   ar
    66    85    86    1
    67   155   157   ar
    68    91    89    1
    69   188   187    1
    70   188   189   ar
    71    67    65    1
    72   187   184    1
    73    72    71    2
    74   158   159   ar
    75    86    89    1
    76    86    87    1
    77    66    65    1
    78    66    68    1
    79    19    18    2
    80    65    62    1
    81    89    90    1
    82   157   159   ar
    83    71    70    1
    84   186   185    2
    85   184   183    1
    86   184   185    1
    87   183   181   am
    88    87    88    2
    89    87    92   am
    90    18    17    1
    91   185   191   am
    92    92    93    1
    93   181   180    1
    94   181   182    2
    95     9    10    1
    96    15    13    1
    97    62    63    1
    98    62    61    1
    99   180   179    1
   100    73    70    1
   101    73    74    1
   102    63    69   am
   103    63    64    2
   104    69    70    1
   105    76    74    1
   106    10    13    1
   107    10    11    1
   108    74    75    1
   109   174   173    2
   110    16    17    1
   111    17    20    1
   112   177   175    1
   113   191   192    1
   114    13    14    1
   115   179   173   am
   116    93    96    1
   117    93    94    1
   118   173   172    1
   119    11    12    2
   120   193   192    1
   121   193   194    2
   122    96    97    1
   123   192   195    1
   124   175   172    1
   125   175   176    1
   126    97    98    1
   127    99    98    2
   128    94    95    2
   129    94   101   am
   130   178   176    1
   131    98   100   am
   132   172   171    1
   133   198   200   ar
   134   198   196   ar
   135   200   201   ar
   136   195   196    1
   137   101   102    1
   138   196   197   ar
   139   201   199   ar
   140   197   199   ar
   141   102   105    1
   142   102   103    1
   143     1     2    1
   144   105   106    1
   145   111   113   ar
   146   111   108   ar
   147   120   119    1
   148   113   114   ar
   149   103   115   am
   150   103   104    2
   151     5     2    1
   152     5     7    1
   153     5     6    1
   154   115   116    1
   155     3     2    1
   156     3     4    2
   157   108   106   ar
   158   108   110   ar
   159   106   107   ar
   160     8     6    1
   161   119   116    1
   162   114   112   ar
   163   160   161    1
   164   116   117    1
   165   164   161    1
   166   164   165    1
   167   110   112   ar
   168   110   109   ar
   169   107   109   ar
   170   167   165   ar
   171   167   169   ar
   172   161   162    1
   173   165   166   ar
   174   118   117    2
   175   117   121   am
   176   163   162    2
   177   169   170   ar
   178   166   168   ar
   179   121   122    1
   180   170   168   ar
   181   122   125    1
   182   122   123    1
   183   125   126    1
   184   129   127   ar
   185   123   124    2
   186   123   130   am
   187   130   131    1
   188   126   127    1
   189   127   128   ar
   190   133   132    2
   191   132   131    1
