@<TRIPOS>MOLECULE
tmp/4r5zD01.pdb
 163 152 0 0 0
SMALL
GASTEIGER

@<TRIPOS>ATOM
      1  N         29.3970   -5.9550  -47.5470 N.3    15  TYR15      -0.1241
      2  CA        29.2610   -6.1670  -46.1080 C.3    15  TYR15       0.1605
      3  C         30.6100   -6.0250  -45.4040 C.2    15  TYR15       0.2264
      4  O         31.5600   -6.7140  -45.7490 O.2    15  TYR15      -0.2867
      5  CB        28.6960   -7.5590  -45.8300 C.3    15  TYR15       0.0534
      6  CG        28.3250   -7.7840  -44.3850 C.ar   15  TYR15      -0.0201
      7  CD1       29.2610   -8.2500  -43.4620 C.ar   15  TYR15      -0.0009
      8  CD2       27.0370   -7.5260  -43.9390 C.ar   15  TYR15      -0.0009
      9  CE1       28.9190   -8.4530  -42.1350 C.ar   15  TYR15       0.0417
     10  CE2       26.6840   -7.7240  -42.6150 C.ar   15  TYR15       0.0417
     11  CZ        27.6260   -8.1850  -41.7140 C.ar   15  TYR15       0.1957
     12  OH        27.2470   -8.3830  -40.4010 O.3    15  TYR15      -0.2866
     13  N         30.0770   -7.4860  -32.5690 N.3    29  SER29      -0.1202
     14  CA        29.5450   -8.5560  -33.4210 C.3    29  SER29       0.2020
     15  C         28.3860   -9.3500  -32.8280 C.2    29  SER29       0.2618
     16  O         28.0220  -10.4000  -33.3660 O.2    29  SER29      -0.2717
     17  CB        30.6750   -9.5170  -33.8070 C.3    29  SER29       0.2103
     18  OG        31.5330   -8.9200  -34.7520 O.3    29  SER29      -0.2182
     19  N         27.8080   -8.8590  -31.7330 N.am   30  ASN30      -0.1974
     20  CA        26.6680   -9.5160  -31.0880 C.3    30  ASN30       0.1688
     21  C         26.9120  -10.9690  -30.6860 C.2    30  ASN30       0.2292
     22  O         25.9800  -11.7670  -30.6120 O.2    30  ASN30      -0.2864
     23  CB        25.4140   -9.4050  -31.9690 C.3    30  ASN30       0.1181
     24  CG        24.9360   -7.9720  -32.1410 C.2    30  ASN30       0.2629
     25  OD1       24.1590   -7.6770  -33.0520 O.2    30  ASN30      -0.2716
     26  ND2       25.3880   -7.0830  -31.2770 N.am   30  ASN30      -0.0877
     27  N         24.7400  -20.2760  -42.0850 N.3    84  GLY84      -0.1210
     28  CA        24.3290  -19.0210  -41.4670 C.3    84  GLY84       0.1956
     29  C         22.9850  -18.5850  -42.0360 C.2    84  GLY84       0.2613
     30  O         22.6300  -18.9530  -43.1570 O.2    84  GLY84      -0.2717
     31  N         22.2270  -17.7940  -41.2790 N.am   85  SER85      -0.1938
     32  CA        21.0250  -17.1800  -41.8410 C.3    85  SER85       0.2055
     33  C         21.3860  -16.1830  -42.9500 C.2    85  SER85       0.2642
     34  O         20.5650  -15.9210  -43.8260 O.2    85  SER85      -0.2714
     35  CB        20.1400  -16.5380  -40.7610 C.3    85  SER85       0.2130
     36  OG        20.8730  -15.7150  -39.8840 O.3    85  SER85      -0.2179
     37  N         22.6120  -15.6540  -42.9370 N.am   86  VAL86      -0.1977
     38  CA        23.1070  -14.8320  -44.0520 C.3    86  VAL86       0.1596
     39  C         22.9810  -15.5300  -45.4050 C.2    86  VAL86       0.2287
     40  O         22.6890  -14.8830  -46.4070 O.2    86  VAL86      -0.2864
     41  CB        24.5790  -14.3730  -43.8760 C.3    86  VAL86       0.0276
     42  CG1       24.7010  -13.3700  -42.7350 C.3    86  VAL86       0.0022
     43  CG2       25.5240  -15.5620  -43.6770 C.3    86  VAL86       0.0022
     44  N         19.2770  -15.6290  -46.3490 N.3    89  CYS89      -0.1235
     45  CA        18.8500  -14.3340  -46.8820 C.3    89  CYS89       0.1677
     46  C         19.0940  -14.2760  -48.3880 C.2    89  CYS89       0.2270
     47  O         18.2230  -13.8430  -49.1320 O.2    89  CYS89      -0.2867
     48  CB        19.5520  -13.1690  -46.1820 C.3    89  CYS89       0.0956
     49  SG        19.0390  -12.9370  -44.4650 S.3    89  CYS89      -0.0801
     50  N         19.5600   -4.6380  -41.5800 N.3   110  PHE110     -0.1241
     51  CA        20.7010   -5.5240  -41.7810 C.3   110  PHE110      0.1605
     52  C         21.4920   -5.1050  -43.0240 C.2   110  PHE110      0.2264
     53  O         20.9780   -5.0920  -44.1430 O.2   110  PHE110     -0.2867
     54  CB        20.2360   -6.9850  -41.8710 C.3   110  PHE110      0.0534
     55  CG        21.3340   -8.0140  -41.6870 C.ar  110  PHE110     -0.0203
     56  CD1       22.5840   -7.6850  -41.1510 C.ar  110  PHE110     -0.0042
     57  CD2       21.0930   -9.3390  -42.0290 C.ar  110  PHE110     -0.0042
     58  CE1       23.5600   -8.6530  -40.9820 C.ar  110  PHE110     -0.0003
     59  CE2       22.0670  -10.3080  -41.8570 C.ar  110  PHE110     -0.0003
     60  CZ        23.3060   -9.9620  -41.3380 C.ar  110  PHE110     -0.0000
     61  N         13.0220   -7.3140  -40.0610 N.3   153  CYS153     -0.1235
     62  CA        14.1060   -7.6890  -39.1660 C.3   153  CYS153      0.1677
     63  C         13.6500   -7.3910  -37.7330 C.2   153  CYS153      0.2270
     64  O         13.5120   -6.2270  -37.3610 O.2   153  CYS153     -0.2867
     65  CB        15.3580   -6.9070  -39.5540 C.3   153  CYS153      0.0956
     66  SG        16.9100   -7.5090  -38.8490 S.3   153  CYS153     -0.0801
     67  N         14.0480   -8.7540  -33.6090 N.3   155  PRO155     -0.2116
     68  CA        14.5150   -7.3830  -33.4220 C.3   155  PRO155      0.1372
     69  C         15.3780   -6.8750  -34.5700 C.2   155  PRO155      0.2244
     70  O         16.0340   -7.6620  -35.2550 O.2   155  PRO155     -0.2868
     71  CB        15.3360   -7.4610  -32.1330 C.3   155  PRO155      0.0268
     72  CG        14.8400   -8.6620  -31.4240 C.3   155  PRO155      0.0207
     73  CD        14.4910   -9.6250  -32.5070 C.3   155  PRO155      0.0892
     74  N         18.3940   -5.2970  -36.5640 N.3   157  ASN157     -0.1240
     75  CA        19.8300   -5.0620  -36.5640 C.3   157  ASN157      0.1653
     76  C         20.0500   -3.9170  -37.5400 C.2   157  ASN157      0.2266
     77  O         19.8250   -4.1080  -38.7330 O.2   157  ASN157     -0.2867
     78  CB        20.5460   -6.3270  -37.0440 C.3   157  ASN157      0.1155
     79  CG        22.0290   -6.1180  -37.2930 C.2   157  ASN157      0.2627
     80  OD1       22.5750   -5.0490  -37.0570 O.2   157  ASN157     -0.2716
     81  ND2       22.6860   -7.1600  -37.7860 N.am  157  ASN157     -0.0877
     82  N         13.0850  -11.9680  -39.9920 N.3   184  ASP184     -0.1239
     83  CA        14.4310  -12.3360  -39.5790 C.3   184  ASP184      0.1674
     84  C         14.5230  -12.2490  -38.0620 C.2   184  ASP184      0.2266
     85  O         14.5870  -11.1620  -37.5030 O.2   184  ASP184     -0.2867
     86  CB        15.4350  -11.4090  -40.2500 C.3   184  ASP184      0.1410
     87  CG        16.8690  -11.8580  -40.0670 C.2   184  ASP184      0.3668
     88  OD1       17.1750  -12.5620  -39.0720 O.co2 184  ASP184     -0.2456
     89  OD2       17.6920  -11.4870  -40.9310 O.co2 184  ASP184     -0.2456
     90  N         16.8800  -13.4890  -35.8640 N.3   186  ALA186     -0.1231
     91  CA        18.2020  -13.8200  -35.3170 C.3   186  ALA186      0.1694
     92  C         18.2970  -13.5760  -33.8010 C.2   186  ALA186      0.2592
     93  O         18.9710  -14.3260  -33.0990 O.2   186  ALA186     -0.2718
     94  CB        19.2780  -13.0310  -36.0430 C.3   186  ALA186      0.0304
     95  N         17.6160  -12.5410  -33.3030 N.am  187  TYR187     -0.1976
     96  CA        17.6890  -12.1640  -31.8800 C.3   187  TYR187      0.1639
     97  C         16.3980  -12.4130  -31.0950 C.2   187  TYR187      0.2290
     98  O         16.2390  -11.9010  -29.9820 O.2   187  TYR187     -0.2864
     99  CB        18.0950  -10.6950  -31.7630 C.3   187  TYR187      0.0560
    100  CG        19.3690  -10.3990  -32.4980 C.ar  187  TYR187     -0.0198
    101  CD1       20.6040  -10.6470  -31.9070 C.ar  187  TYR187     -0.0009
    102  CD2       19.3470   -9.9010  -33.7920 C.ar  187  TYR187     -0.0009
    103  CE1       21.7800  -10.3950  -32.5810 C.ar  187  TYR187      0.0417
    104  CE2       20.5180   -9.6460  -34.4750 C.ar  187  TYR187      0.0417
    105  CZ        21.7330   -9.8990  -33.8650 C.ar  187  TYR187      0.1957
    106  OH        22.9120   -9.6480  -34.5280 O.3   187  TYR187     -0.2866
    107  N         18.7060  -18.6500  -36.0480 N.3   214  THR214     -0.1218
    108  CA        20.1430  -18.8930  -36.1110 C.3   214  THR214      0.1862
    109  C         20.6880  -19.6520  -34.9040 C.2   214  THR214      0.2287
    110  O         20.0940  -19.6430  -33.8300 O.2   214  THR214     -0.2866
    111  CB        20.9070  -17.5590  -36.2530 C.3   214  THR214      0.1770
    112  OG1       22.3060  -17.8130  -36.4150 O.3   214  THR214     -0.2211
    113  CG2       20.6950  -16.6610  -35.0270 C.3   214  THR214      0.0375
    114  N         23.8600  -18.8220  -34.1620 N.3   216  SER216     -0.1202
    115  CA        25.0260  -17.9670  -33.9930 C.3   216  SER216      0.2020
    116  C         25.0530  -17.1580  -32.6910 C.2   216  SER216      0.2618
    117  O         26.1280  -16.7580  -32.2600 O.2   216  SER216     -0.2717
    118  CB        25.1520  -16.9970  -35.1720 C.3   216  SER216      0.2103
    119  OG        25.3420  -17.6900  -36.3920 O.3   216  SER216     -0.2182
    120  N         23.8930  -16.9170  -32.0770 N.am  217  LYS217     -0.1979
    121  CA        23.8090  -16.0150  -30.9190 C.3   217  LYS217      0.1596
    122  C         23.5030  -16.7900  -29.6440 C.2   217  LYS217      0.2287
    123  O         24.4270  -17.1900  -28.9440 O.2   217  LYS217     -0.2864
    124  CB        22.7800  -14.8940  -31.1440 C.3   217  LYS217      0.0298
    125  CG        22.7630  -14.2990  -32.5400 C.3   217  LYS217      0.0038
    126  CD        23.9900  -13.4640  -32.8120 C.3   217  LYS217      0.0206
    127  CE        24.0050  -13.0200  -34.2630 C.3   217  LYS217      0.1093
    128  NZ        25.1670  -12.1390  -34.5240 N.3   217  LYS217     -0.1314
    129  N         28.4090  -19.0540  -33.6450 N.3   222  ALA222     -0.1245
    130  CA        28.6810  -18.0990  -34.7200 C.3   222  ALA222      0.1562
    131  C         29.8610  -18.5160  -35.6060 C.2   222  ALA222      0.2260
    132  O         29.9070  -18.1670  -36.7860 O.2   222  ALA222     -0.2867
    133  CB        28.9270  -16.7090  -34.1490 C.3   222  ALA222      0.0290
    134  N         28.4090  -21.6090  -38.3140 N.3   225  ARG225     -0.1231
    135  CA        27.5870  -21.1870  -39.4520 C.3   225  ARG225      0.1694
    136  C         26.3690  -22.0660  -39.7230 C.2   225  ARG225      0.2591
    137  O         26.3390  -22.8010  -40.7200 O.2   225  ARG225     -0.2718
    138  CB        28.4510  -21.1040  -40.7210 C.3   225  ARG225      0.0321
    139  CG        29.8160  -20.4550  -40.5320 C.3   225  ARG225      0.0489
    140  CD        29.7350  -19.1180  -39.8100 C.3   225  ARG225      0.2205
    141  NE        28.8210  -18.1970  -40.4850 N.pl3 225  ARG225     -0.0865
    142  CZ        27.8620  -17.4760  -39.9010 C.cat 225  ARG225      0.5346
    143  NH1       27.6590  -17.5100  -38.5810 N.pl3 225  ARG225      0.1354
    144  NH2       27.1040  -16.6850  -40.6550 N.pl3 225  ARG225      0.1354
    145  N         25.3630  -21.9750  -38.8500 N.am  226  ILE226     -0.1980
    146  CA        24.1060  -22.6900  -39.0360 C.3   226  ILE226      0.1595
    147  C         22.9260  -21.7470  -38.8280 C.2   226  ILE226      0.2287
    148  O         22.7520  -21.1820  -37.7450 O.2   226  ILE226     -0.2864
    149  CB        23.9390  -23.8820  -38.0670 C.3   226  ILE226      0.0276
    150  CG1       25.2450  -24.6780  -37.9100 C.3   226  ILE226      0.0022
    151  CG2       22.8370  -24.8060  -38.5580 C.3   226  ILE226      0.0022
    152  CD1       26.1570  -24.1480  -36.8250 C.3   226  ILE226      0.0001
    153  N         26.1710    0.5180  -32.5880 N.3   330  ARG330     -0.1245
    154  CA        25.6060   -0.5370  -31.7560 C.3   330  ARG330      0.1563
    155  C         26.6510   -1.2750  -30.9440 C.2   330  ARG330      0.2260
    156  O         27.7590   -1.5850  -31.4030 O.2   330  ARG330     -0.2867
    157  CB        24.6370   -1.4930  -32.4640 C.3   330  ARG330      0.0307
    158  CG        25.1630   -2.2600  -33.6270 C.3   330  ARG330      0.0489
    159  CD        24.5630   -3.6650  -33.6940 C.3   330  ARG330      0.2205
    160  NE        25.6720   -4.5970  -33.7750 N.pl3 330  ARG330     -0.0865
    161  CZ        25.8620   -5.5360  -34.6920 C.cat 330  ARG330      0.5346
    162  NH1       24.9740   -5.7860  -35.6500 N.pl3 330  ARG330      0.1354
    163  NH2       26.9660   -6.2690  -34.6070 N.pl3 330  ARG330      0.1354
@<TRIPOS>BOND
     1    47    46    2
     2    46    45    1
     3     1     2    1
     4    45    44    1
     5    45    48    1
     6    40    39    2
     7    48    49    1
     8     2     5    1
     9     2     3    1
    10     5     6    1
    11     4     3    2
    12    39    38    1
    13     6     8   ar
    14     6     7   ar
    15    53    52    2
    16    38    41    1
    17    38    37    1
    18     8    10   ar
    19    41    43    1
    20    41    42    1
    21    34    33    2
    22     7     9   ar
    23    30    29    2
    24    52    51    1
    25    33    37   am
    26    33    32    1
    27    10    11   ar
    28     9    11   ar
    29    27    28    1
    30    29    28    1
    31    29    31   am
    32    57    59   ar
    33    57    55   ar
    34    54    51    1
    35    54    55    1
    36    59    60   ar
    37    32    31    1
    38    32    35    1
    39    51    50    1
    40    11    12    1
    41    55    56   ar
    42    60    58   ar
    43    56    58   ar
    44    89    87   ar
    45    35    36    1
    46   138   139    1
    47   138   135    1
    48   137   136    2
    49   144   142    1
    50   139   140    1
    51   141   142    2
    52   141   140    1
    53    86    87    1
    54    86    83    1
    55    87    88   ar
    56    61    62    1
    57    82    83    1
    58   142   143    1
    59   136   135    1
    60   136   145   am
    61    83    84    1
    62    65    62    1
    63    65    66    1
    64   135   134    1
    65    62    63    1
    66   146   145    1
    67   146   147    1
    68   146   149    1
    69   147   148    2
    70    77    76    2
    71   151   149    1
    72   149   150    1
    73    84    85    2
    74   150   152    1
    75    81    79   am
    76    63    64    2
    77    76    75    1
    78    79    80    2
    79    79    78    1
    80    78    75    1
    81   132   131    2
    82    75    74    1
    83   112   111    1
    84   119   118    1
    85   111   108    1
    86   111   113    1
    87   108   107    1
    88   108   109    1
    89    94    91    1
    90    90    91    1
    91   162   161    1
    92   131   130    1
    93    91    92    1
    94    70    69    2
    95   118   115    1
    96   109   110    2
    97    18    17    1
    98   130   133    1
    99   130   129    1
   100   161   163    1
   101   161   160    2
   102    69    68    1
   103   106   105    1
   104   128   127    1
   105   104   105   ar
   106   104   102   ar
   107   127   126    1
   108   114   115    1
   109   115   116    1
   110   105   103   ar
   111    17    14    1
   112    92    95   am
   113    92    93    2
   114   102   100   ar
   115   160   159    1
   116   159   158    1
   117   158   157    1
   118    67    68    1
   119    67    73    1
   120    68    71    1
   121    14    15    1
   122    14    13    1
   123    16    15    2
   124    95    96    1
   125    25    24    2
   126    15    19   am
   127   126   125    1
   128   116   117    2
   129   116   120   am
   130   153   154    1
   131   103   101   ar
   132   125   124    1
   133    73    72    1
   134   100   101   ar
   135   100    99    1
   136   157   154    1
   137    24    23    1
   138    24    26   am
   139    71    72    1
   140   120   121    1
   141    23    20    1
   142    96    99    1
   143    96    97    1
   144   154   155    1
   145    19    20    1
   146   156   155    2
   147   124   121    1
   148    97    98    2
   149    20    21    1
   150   121   122    1
   151    21    22    2
   152   122   123    2
