@<TRIPOS>MOLECULE
tmp/4r5zD02.pdb
 87 83 0 0 0
SMALL
GASTEIGER

@<TRIPOS>ATOM
      1  N         15.3570  -14.7970  -29.3660 N.3   189  GLU189     -0.1245
      2  CA        15.5340  -15.4220  -28.0520 C.3   189  GLU189      0.1567
      3  C         15.7100  -14.4180  -26.9110 C.2   189  GLU189      0.2260
      4  O         15.5590  -14.7770  -25.7490 O.2   189  GLU189     -0.2867
      5  CB        16.7080  -16.4120  -28.0630 C.3   189  GLU189      0.0388
      6  CG        16.4140  -17.7240  -28.7790 C.3   189  GLU189      0.1160
      7  CD        16.6110  -17.6580  -30.2830 C.2   189  GLU189      0.3649
      8  OE1       17.0720  -16.6110  -30.7950 O.co2 189  GLU189     -0.2457
      9  OE2       16.3020  -18.6650  -30.9530 O.co2 189  GLU189     -0.2457
     10  N         13.9340  -11.4480  -26.7660 N.3   191  ILE191     -0.1231
     11  CA        12.7480  -10.6010  -26.6400 C.3   191  ILE191      0.1692
     12  C         12.0440  -10.9100  -25.3260 C.2   191  ILE191      0.2592
     13  O         11.7970  -12.0810  -25.0040 O.2   191  ILE191     -0.2718
     14  CB        11.7390  -10.7980  -27.7920 C.3   191  ILE191      0.0266
     15  CG1       12.3740  -10.4570  -29.1410 C.3   191  ILE191      0.0019
     16  CG2       10.4960   -9.9250  -27.5730 C.3   191  ILE191      0.0020
     17  CD1       11.4650  -10.7080  -30.3270 C.3   191  ILE191      0.0001
     18  N         11.7310   -9.8530  -24.5800 N.am  192  ARG192     -0.1966
     19  CA        10.9550   -9.9490  -23.3460 C.3   192  ARG192      0.1729
     20  C          9.7950   -8.9400  -23.3430 C.2   192  ARG192      0.2616
     21  O          9.4950   -8.3190  -24.3690 O.2   192  ARG192     -0.2715
     22  CB        11.8730   -9.7020  -22.1460 C.3   192  ARG192      0.0348
     23  CG        13.0000  -10.7070  -22.0090 C.3   192  ARG192      0.0492
     24  CD        12.4990  -12.1080  -21.6960 C.3   192  ARG192      0.2205
     25  NE        13.6060  -13.0240  -21.4190 N.pl3 192  ARG192     -0.0865
     26  CZ        14.3590  -13.6280  -22.3430 C.cat 192  ARG192      0.5346
     27  NH1       14.1450  -13.4280  -23.6400 N.pl3 192  ARG192      0.1354
     28  NH2       15.3420  -14.4410  -21.9650 N.pl3 192  ARG192      0.1354
     29  N          9.1420   -8.8030  -22.1860 N.am  193  ASP193     -0.1957
     30  CA         8.1040   -7.7900  -21.9570 C.3   193  ASP193      0.1840
     31  C          6.8820   -7.9870  -22.8470 C.2   193  ASP193      0.2623
     32  O          6.2720   -7.0180  -23.2830 O.2   193  ASP193     -0.2715
     33  CB         8.6710   -6.3760  -22.1470 C.3   193  ASP193      0.1450
     34  CG         9.9560   -6.1590  -21.3780 C.2   193  ASP193      0.3671
     35  OD1        9.9420   -6.3190  -20.1460 O.co2 193  ASP193     -0.2456
     36  OD2       10.9820   -5.8320  -22.0010 O.co2 193  ASP193     -0.2456
     37  N          6.5300   -9.2420  -23.1130 N.am  194  GLY194     -0.1940
     38  CA         5.3810   -9.5720  -23.9710 C.3   194  GLY194      0.2014
     39  C          5.4420   -9.0560  -25.4070 C.2   194  GLY194      0.2639
     40  O          4.4240   -9.0300  -26.0990 O.2   194  GLY194     -0.2714
     41  N          6.6310   -8.6690  -25.8700 N.am  195  MET195     -0.1963
     42  CA         6.7790   -8.0680  -27.1980 C.3   195  MET195      0.1736
     43  C          7.0480   -9.0880  -28.3080 C.2   195  MET195      0.2616
     44  O          7.0990   -8.7160  -29.4790 O.2   195  MET195     -0.2715
     45  CB         7.9010   -7.0170  -27.1870 C.3   195  MET195      0.0427
     46  CG         7.6100   -5.7910  -26.3330 C.3   195  MET195      0.0599
     47  SD         6.1220   -4.9240  -26.8840 S.3   195  MET195     -0.1393
     48  CE         6.6980   -4.1040  -28.3690 C.3   195  MET195      0.0692
     49  N          7.2230  -10.3620  -27.9590 N.am  196  ARG196     -0.1977
     50  CA         7.5440  -11.3660  -28.9700 C.3   196  ARG196      0.1597
     51  C          6.3170  -11.7070  -29.8130 C.2   196  ARG196      0.2287
     52  O          5.2960  -12.1010  -29.2700 O.2   196  ARG196     -0.2864
     53  CB         8.0980  -12.6480  -28.3420 C.3   196  ARG196      0.0334
     54  CG         8.6200  -13.6290  -29.3860 C.3   196  ARG196      0.0492
     55  CD         8.5360  -15.0780  -28.9460 C.3   196  ARG196      0.2205
     56  NE         9.7440  -15.5070  -28.2560 N.pl3 196  ARG196     -0.0865
     57  CZ        10.5430  -16.5140  -28.6190 C.cat 196  ARG196      0.5346
     58  NH1       11.6140  -16.7820  -27.8780 N.pl3 196  ARG196      0.1354
     59  NH2       10.2940  -17.2650  -29.6910 N.pl3 196  ARG196      0.1354
     60  N         19.3300  -21.6430  -23.6030 N.3   267  LEU267     -0.1231
     61  CA        18.3350  -20.5610  -23.6510 C.3   267  LEU267      0.1693
     62  C         18.1330  -19.8700  -22.2980 C.2   267  LEU267      0.2591
     63  O         17.8300  -18.6740  -22.2510 O.2   267  LEU267     -0.2718
     64  CB        16.9910  -21.0790  -24.1900 C.3   267  LEU267      0.0284
     65  CG        16.7220  -21.0450  -25.7070 C.3   267  LEU267      0.0019
     66  CD1       17.9460  -20.7290  -26.5570 C.3   267  LEU267      0.0001
     67  CD2       16.0750  -22.3440  -26.1620 C.3   267  LEU267      0.0001
     68  N         18.3090  -20.6130  -21.2070 N.am  268  ALA268     -0.1980
     69  CA        18.2570  -20.0270  -19.8630 C.3   268  ALA268      0.1597
     70  C         19.2930  -18.9120  -19.6840 C.2   268  ALA268      0.2287
     71  O         19.0470  -17.9530  -18.9640 O.2   268  ALA268     -0.2864
     72  CB        18.4600  -21.0990  -18.8060 C.3   268  ALA268      0.0319
     73  N         20.0410  -16.6020  -21.7060 N.3   270  THR270     -0.1203
     74  CA        19.5720  -15.3410  -22.2800 C.3   270  THR270      0.1994
     75  C         19.0230  -14.4060  -21.2000 C.2   270  THR270      0.2617
     76  O         19.1310  -13.1840  -21.3270 O.2   270  THR270     -0.2717
     77  CB        18.5100  -15.5570  -23.3830 C.3   270  THR270      0.1784
     78  OG1       17.3520  -16.2010  -22.8420 O.3   270  THR270     -0.2211
     79  CG2       19.0860  -16.4000  -24.5180 C.3   270  THR270      0.0376
     80  N         18.4560  -14.9820  -20.1380 N.am  271  ASP271     -0.1973
     81  CA        17.9410  -14.1990  -19.0070 C.3   271  ASP271      0.1709
     82  C         19.0240  -13.2810  -18.4360 C.2   271  ASP271      0.2293
     83  O         18.7810  -12.1100  -18.1880 O.2   271  ASP271     -0.2864
     84  CB        17.3970  -15.1160  -17.9000 C.3   271  ASP271      0.1436
     85  CG        16.0650  -15.7820  -18.2670 C.2   271  ASP271      0.3671
     86  OD1       15.4360  -15.4180  -19.2850 O.co2 271  ASP271     -0.2456
     87  OD2       15.6370  -16.6810  -17.5200 O.co2 271  ASP271     -0.2456
@<TRIPOS>BOND
     1     9     7   ar
     2     8     7   ar
     3    17    15    1
     4     7     6    1
     5    51    52    2
     6    51    50    1
     7    59    57    1
     8    44    43    2
     9    54    55    1
    10    54    53    1
    11     1     2    1
    12    15    14    1
    13    50    53    1
    14    50    49    1
    15    55    56    1
    16     6     5    1
    17    57    56    2
    18    57    58    1
    19    48    47    1
    20    43    49   am
    21    43    42    1
    22     5     2    1
    23     2     3    1
    24    14    16    1
    25    14    11    1
    26    42    45    1
    27    42    41    1
    28    45    46    1
    29     3     4    2
    30    47    46    1
    31    10    11    1
    32    11    12    1
    33    66    65    1
    34    67    65    1
    35    40    39    2
    36    41    39   am
    37    65    64    1
    38    39    38    1
    39    12    13    2
    40    12    18   am
    41    18    19    1
    42    79    77    1
    43    21    20    2
    44    64    61    1
    45    38    37    1
    46    61    60    1
    47    61    62    1
    48    27    26    1
    49    77    78    1
    50    77    74    1
    51    19    20    1
    52    19    22    1
    53    20    29   am
    54    32    31    2
    55    37    31   am
    56    31    30    1
    57    26    28    1
    58    26    25    2
    59    62    63    2
    60    62    68   am
    61    74    73    1
    62    74    75    1
    63    29    30    1
    64    33    30    1
    65    33    34    1
    66    22    23    1
    67    23    24    1
    68    36    34   ar
    69    24    25    1
    70    34    35   ar
    71    76    75    2
    72    68    69    1
    73    75    80   am
    74    80    81    1
    75    69    70    1
    76    69    72    1
    77    70    71    2
    78    86    85   ar
    79    81    82    1
    80    81    84    1
    81    82    83    2
    82    85    84    1
    83    85    87   ar
