@<TRIPOS>MOLECULE
tmp/4r5zD00.pdb
 112 106 0 0 0
SMALL
GASTEIGER

@<TRIPOS>ATOM
      1  N         29.3970   -5.9550  -47.5470 N.3    15  TYR15      -0.1241
      2  CA        29.2610   -6.1670  -46.1080 C.3    15  TYR15       0.1605
      3  C         30.6100   -6.0250  -45.4040 C.2    15  TYR15       0.2264
      4  O         31.5600   -6.7140  -45.7490 O.2    15  TYR15      -0.2867
      5  CB        28.6960   -7.5590  -45.8300 C.3    15  TYR15       0.0534
      6  CG        28.3250   -7.7840  -44.3850 C.ar   15  TYR15      -0.0201
      7  CD1       29.2610   -8.2500  -43.4620 C.ar   15  TYR15      -0.0009
      8  CD2       27.0370   -7.5260  -43.9390 C.ar   15  TYR15      -0.0009
      9  CE1       28.9190   -8.4530  -42.1350 C.ar   15  TYR15       0.0417
     10  CE2       26.6840   -7.7240  -42.6150 C.ar   15  TYR15       0.0417
     11  CZ        27.6260   -8.1850  -41.7140 C.ar   15  TYR15       0.1957
     12  OH        27.2470   -8.3830  -40.4010 O.3    15  TYR15      -0.2866
     13  N         32.5020   -6.5180  -41.8540 N.3    17  PRO17      -0.2102
     14  CA        32.2960   -7.2000  -40.5780 C.3    17  PRO17       0.1504
     15  C         32.7640   -6.3710  -39.3830 C.2    17  PRO17       0.2576
     16  O         33.4500   -5.3660  -39.5550 O.2    17  PRO17      -0.2718
     17  CB        33.1540   -8.4510  -40.7210 C.3    17  PRO17       0.0282
     18  CG        34.2840   -8.0120  -41.5860 C.3    17  PRO17       0.0208
     19  CD        33.6910   -7.0280  -42.5610 C.3    17  PRO17       0.0893
     20  N         32.3780   -6.7890  -38.1820 N.am   18  GLY18      -0.1957
     21  CA        32.8760   -6.1740  -36.9610 C.3    18  GLY18       0.1869
     22  C         34.3660   -6.4540  -36.8280 C.2    18  GLY18       0.2309
     23  O         34.8310   -7.5330  -37.1880 O.2    18  GLY18      -0.2863
     24  N         35.6530   -7.2140  -27.3770 N.3    26  LYS26      -0.1245
     25  CA        34.8400   -7.1450  -28.5840 C.3    26  LYS26       0.1561
     26  C         33.3570   -7.0230  -28.2350 C.2    26  LYS26       0.2260
     27  O         32.7550   -7.9610  -27.7140 O.2    26  LYS26      -0.2867
     28  CB        35.0810   -8.3540  -29.4910 C.3    26  LYS26       0.0271
     29  CG        34.5620   -8.1240  -30.9080 C.3    26  LYS26       0.0035
     30  CD        34.8150   -9.3070  -31.8320 C.3    26  LYS26       0.0206
     31  CE        34.1970   -9.0440  -33.2000 C.3    26  LYS26       0.1093
     32  NZ        34.0880  -10.2550  -34.0570 N.3    26  LYS26      -0.1314
     33  N         30.0770   -7.4860  -32.5690 N.3    29  SER29      -0.1217
     34  CA        29.5450   -8.5560  -33.4210 C.3    29  SER29       0.1889
     35  C         28.3860   -9.3500  -32.8280 C.2    29  SER29       0.2288
     36  O         28.0220  -10.4000  -33.3660 O.2    29  SER29      -0.2866
     37  CB        30.6750   -9.5170  -33.8070 C.3    29  SER29       0.2089
     38  OG        31.5330   -8.9200  -34.7520 O.3    29  SER29      -0.2183
     39  N         19.5600   -4.6380  -41.5800 N.3   110  PHE110     -0.1241
     40  CA        20.7010   -5.5240  -41.7810 C.3   110  PHE110      0.1605
     41  C         21.4920   -5.1050  -43.0240 C.2   110  PHE110      0.2264
     42  O         20.9780   -5.0920  -44.1430 O.2   110  PHE110     -0.2867
     43  CB        20.2360   -6.9850  -41.8710 C.3   110  PHE110      0.0534
     44  CG        21.3340   -8.0140  -41.6870 C.ar  110  PHE110     -0.0203
     45  CD1       22.5840   -7.6850  -41.1510 C.ar  110  PHE110     -0.0042
     46  CD2       21.0930   -9.3390  -42.0290 C.ar  110  PHE110     -0.0042
     47  CE1       23.5600   -8.6530  -40.9820 C.ar  110  PHE110     -0.0003
     48  CE2       22.0670  -10.3080  -41.8570 C.ar  110  PHE110     -0.0003
     49  CZ        23.3060   -9.9620  -41.3380 C.ar  110  PHE110     -0.0000
     50  N         18.3940   -5.2970  -36.5640 N.3   157  ASN157     -0.1240
     51  CA        19.8300   -5.0620  -36.5640 C.3   157  ASN157      0.1653
     52  C         20.0500   -3.9170  -37.5400 C.2   157  ASN157      0.2266
     53  O         19.8250   -4.1080  -38.7330 O.2   157  ASN157     -0.2867
     54  CB        20.5460   -6.3270  -37.0440 C.3   157  ASN157      0.1155
     55  CG        22.0290   -6.1180  -37.2930 C.2   157  ASN157      0.2627
     56  OD1       22.5750   -5.0490  -37.0570 O.2   157  ASN157     -0.2716
     57  ND2       22.6860   -7.1600  -37.7860 N.am  157  ASN157     -0.0877
     58  N         17.6160  -12.5410  -33.3030 N.3   187  TYR187     -0.1241
     59  CA        17.6890  -12.1640  -31.8800 C.3   187  TYR187      0.1605
     60  C         16.3980  -12.4130  -31.0950 C.2   187  TYR187      0.2264
     61  O         16.2390  -11.9010  -29.9820 O.2   187  TYR187     -0.2867
     62  CB        18.0950  -10.6950  -31.7630 C.3   187  TYR187      0.0534
     63  CG        19.3690  -10.3990  -32.4980 C.ar  187  TYR187     -0.0201
     64  CD1       20.6040  -10.6470  -31.9070 C.ar  187  TYR187     -0.0009
     65  CD2       19.3470   -9.9010  -33.7920 C.ar  187  TYR187     -0.0009
     66  CE1       21.7800  -10.3950  -32.5810 C.ar  187  TYR187      0.0417
     67  CE2       20.5180   -9.6460  -34.4750 C.ar  187  TYR187      0.0417
     68  CZ        21.7330   -9.8990  -33.8650 C.ar  187  TYR187      0.1957
     69  OH        22.9120   -9.6480  -34.5280 O.3   187  TYR187     -0.2866
     70  N         23.8930  -16.9170  -32.0770 N.3   217  LYS217     -0.1245
     71  CA        23.8090  -16.0150  -30.9190 C.3   217  LYS217      0.1561
     72  C         23.5030  -16.7900  -29.6440 C.2   217  LYS217      0.2260
     73  O         24.4270  -17.1900  -28.9440 O.2   217  LYS217     -0.2867
     74  CB        22.7800  -14.8940  -31.1440 C.3   217  LYS217      0.0271
     75  CG        22.7630  -14.2990  -32.5400 C.3   217  LYS217      0.0035
     76  CD        23.9900  -13.4640  -32.8120 C.3   217  LYS217      0.0206
     77  CE        24.0050  -13.0200  -34.2630 C.3   217  LYS217      0.1093
     78  NZ        25.1670  -12.1390  -34.5240 N.3   217  LYS217     -0.1314
     79  N         30.5410   -1.0760  -32.8110 N.3   322  ARG322     -0.1245
     80  CA        30.2510   -1.1490  -34.2500 C.3   322  ARG322      0.1563
     81  C         29.6030    0.1290  -34.8050 C.2   322  ARG322      0.2260
     82  O         28.4470    0.4230  -34.4790 O.2   322  ARG322     -0.2867
     83  CB        29.3470   -2.3530  -34.5140 C.3   322  ARG322      0.0307
     84  CG        29.0980   -2.6890  -35.9790 C.3   322  ARG322      0.0489
     85  CD        30.3230   -3.2660  -36.6620 C.3   322  ARG322      0.2205
     86  NE        29.9630   -4.0020  -37.8760 N.pl3 322  ARG322     -0.0865
     87  CZ        29.5050   -5.2540  -37.9090 C.cat 322  ARG322      0.5346
     88  NH1       29.2070   -5.8210  -39.0730 N.pl3 322  ARG322      0.1354
     89  NH2       29.3480   -5.9530  -36.7930 N.pl3 322  ARG322      0.1354
     90  N         27.9070    2.6850  -37.6340 N.3   324  TYR324     -0.1241
     91  CA        27.0520    2.6340  -38.8170 C.3   324  TYR324      0.1605
     92  C         26.9250    4.0350  -39.4100 C.2   324  TYR324      0.2264
     93  O         26.0360    4.8010  -39.0340 O.2   324  TYR324     -0.2867
     94  CB        25.6850    2.0560  -38.4580 C.3   324  TYR324      0.0534
     95  CG        25.7480    0.5760  -38.2020 C.ar  324  TYR324     -0.0201
     96  CD1       25.5920   -0.3280  -39.2420 C.ar  324  TYR324     -0.0009
     97  CD2       26.0120    0.0770  -36.9320 C.ar  324  TYR324     -0.0009
     98  CE1       25.6740   -1.6870  -39.0260 C.ar  324  TYR324      0.0417
     99  CE2       26.0930   -1.2830  -36.7090 C.ar  324  TYR324      0.0417
    100  CZ        25.9210   -2.1590  -37.7570 C.ar  324  TYR324      0.1957
    101  OH        26.0070   -3.5130  -37.5470 O.3   324  TYR324     -0.2866
    102  N         26.1710    0.5180  -32.5880 N.3   330  ARG330     -0.1245
    103  CA        25.6060   -0.5370  -31.7560 C.3   330  ARG330      0.1563
    104  C         26.6510   -1.2750  -30.9440 C.2   330  ARG330      0.2260
    105  O         27.7590   -1.5850  -31.4030 O.2   330  ARG330     -0.2867
    106  CB        24.6370   -1.4930  -32.4640 C.3   330  ARG330      0.0307
    107  CG        25.1630   -2.2600  -33.6270 C.3   330  ARG330      0.0489
    108  CD        24.5630   -3.6650  -33.6940 C.3   330  ARG330      0.2205
    109  NE        25.6720   -4.5970  -33.7750 N.pl3 330  ARG330     -0.0865
    110  CZ        25.8620   -5.5360  -34.6920 C.cat 330  ARG330      0.5346
    111  NH1       24.9740   -5.7860  -35.6500 N.pl3 330  ARG330      0.1354
    112  NH2       26.9660   -6.2690  -34.6070 N.pl3 330  ARG330      0.1354
@<TRIPOS>BOND
     1     1     2    1
     2     2     5    1
     3     2     3    1
     4     5     6    1
     5     4     3    2
     6     6     8   ar
     7     6     7   ar
     8    42    41    2
     9     8    10   ar
    10     7     9   ar
    11    41    40    1
    12    10    11   ar
    13    19    13    1
    14    19    18    1
    15     9    11   ar
    16    46    48   ar
    17    46    44   ar
    18    43    40    1
    19    43    44    1
    20    48    49   ar
    21    13    14    1
    22    40    39    1
    23    11    12    1
    24    44    45   ar
    25    18    17    1
    26    49    47   ar
    27    45    47   ar
    28    17    14    1
    29    14    15    1
    30    16    15    2
    31    92    93    2
    32    92    91    1
    33    15    20   am
    34    96    98   ar
    35    96    95   ar
    36    88    87    1
    37    98   100   ar
    38    91    94    1
    39    91    90    1
    40    53    52    2
    41    94    95    1
    42    95    97   ar
    43    20    21    1
    44    87    86    2
    45    87    89    1
    46    86    85    1
    47    57    55   am
    48   100   101    1
    49   100    99   ar
    50    52    51    1
    51    55    56    2
    52    55    54    1
    53    23    22    2
    54    54    51    1
    55    21    22    1
    56    97    99   ar
    57    85    84    1
    58    51    50    1
    59    84    83    1
    60   111   110    1
    61    81    82    2
    62    81    80    1
    63    38    37    1
    64   110   112    1
    65   110   109    2
    66    69    68    1
    67    78    77    1
    68    83    80    1
    69    67    68   ar
    70    67    65   ar
    71    77    76    1
    72    80    79    1
    73    32    31    1
    74    68    66   ar
    75    37    34    1
    76    65    63   ar
    77   109   108    1
    78   108   107    1
    79   107   106    1
    80    34    35    1
    81    34    33    1
    82    36    35    2
    83    58    59    1
    84    31    30    1
    85    76    75    1
    86   102   103    1
    87    66    64   ar
    88    75    74    1
    89    63    64   ar
    90    63    62    1
    91   106   103    1
    92    70    71    1
    93    59    62    1
    94    59    60    1
    95    30    29    1
    96   103   104    1
    97   105   104    2
    98    74    71    1
    99    60    61    2
   100    71    72    1
   101    29    28    1
   102    72    73    2
   103    28    25    1
   104    25    26    1
   105    25    24    1
   106    26    27    2
