@<TRIPOS>MOLECULE
tmp/4r67J00.pdb
 106 101 0 0 0
SMALL
GASTEIGER

@<TRIPOS>ATOM
      1  N        -49.0930   38.2710  -91.8250 N.3     1  SER1       -0.1217
      2  CA       -50.3930   38.8130  -91.4450 C.3     1  SER1        0.1889
      3  C        -51.2430   37.7750  -90.7190 C.2     1  SER1        0.2288
      4  O        -51.2100   36.5890  -91.0490 O.2     1  SER1       -0.2866
      5  CB       -51.1410   39.3320  -92.6750 C.3     1  SER1        0.2089
      6  OG       -52.4450   39.7640  -92.3280 O.3     1  SER1       -0.2183
      7  N        -54.5770   37.6530  -90.6200 N.3     3  MET3       -0.1245
      8  CA       -55.6760   37.2690  -91.5040 C.3     3  MET3        0.1570
      9  C        -55.2780   36.1520  -92.4640 C.2     3  MET3        0.2261
     10  O        -56.0880   35.2890  -92.7990 O.2     3  MET3       -0.2867
     11  CB       -56.1500   38.4780  -92.3100 C.3     3  MET3        0.0387
     12  CG       -56.9080   39.5200  -91.5080 C.3     3  MET3        0.0595
     13  SD       -58.5710   38.9810  -91.0720 S.3     3  MET3       -0.1393
     14  CE       -59.2620   40.5100  -90.4470 C.3     3  MET3        0.0692
     15  N        -63.0490   46.6080  -79.9640 N.3    98  ARG98      -0.1245
     16  CA       -62.3130   47.6130  -80.7300 C.3    98  ARG98       0.1563
     17  C        -60.8040   47.5420  -80.5310 C.2    98  ARG98       0.2260
     18  O        -60.0420   47.6880  -81.4840 O.2    98  ARG98      -0.2867
     19  CB       -62.8160   49.0150  -80.3750 C.3    98  ARG98       0.0307
     20  CG       -61.9740   50.1510  -80.9290 C.3    98  ARG98       0.0489
     21  CD       -61.9600   50.1560  -82.4490 C.3    98  ARG98       0.2205
     22  NE       -61.2480   51.3180  -82.9730 N.pl3  98  ARG98      -0.0865
     23  CZ       -59.9280   51.3850  -83.1100 C.cat  98  ARG98       0.5346
     24  NH1      -59.1700   50.3550  -82.7630 N.pl3  98  ARG98       0.1354
     25  NH2      -59.3630   52.4820  -83.5950 N.pl3  98  ARG98       0.1354
     26  N        -59.6070   43.1340  -81.3960 N.3   101  PRO101     -0.2116
     27  CA       -60.6090   42.7060  -82.3780 C.3   101  PRO101      0.1372
     28  C        -60.5020   41.2540  -82.8150 C.2   101  PRO101      0.2244
     29  O        -59.4140   40.6850  -82.8510 O.2   101  PRO101     -0.2868
     30  CB       -60.3380   43.6280  -83.5680 C.3   101  PRO101      0.0268
     31  CG       -58.8920   43.9230  -83.4730 C.3   101  PRO101      0.0207
     32  CD       -58.5690   43.9830  -82.0090 C.3   101  PRO101      0.0892
     33  N        -60.3160   38.6600  -85.6970 N.3   103  TYR103     -0.1241
     34  CA       -59.7150   38.8090  -87.0140 C.3   103  TYR103      0.1605
     35  C        -60.5620   38.1320  -88.0840 C.2   103  TYR103      0.2264
     36  O        -60.1910   37.0970  -88.6390 O.2   103  TYR103     -0.2867
     37  CB       -58.2670   38.3160  -87.0140 C.3   103  TYR103      0.0534
     38  CG       -57.3660   39.2030  -86.1890 C.ar  103  TYR103     -0.0201
     39  CD1      -56.9240   40.4220  -86.6860 C.ar  103  TYR103     -0.0009
     40  CD2      -56.9820   38.8420  -84.9030 C.ar  103  TYR103     -0.0009
     41  CE1      -56.1120   41.2490  -85.9340 C.ar  103  TYR103      0.0417
     42  CE2      -56.1710   39.6630  -84.1430 C.ar  103  TYR103      0.0417
     43  CZ       -55.7400   40.8650  -84.6640 C.ar  103  TYR103      0.1957
     44  OH       -54.9310   41.6890  -83.9170 O.3   103  TYR103     -0.2866
     45  N        -63.6490   39.3060  -91.3060 N.3   105  GLU105     -0.1245
     46  CA       -64.3700   40.3490  -92.0270 C.3   105  GLU105      0.1567
     47  C        -65.6630   39.7890  -92.5980 C.2   105  GLU105      0.2260
     48  O        -65.6680   39.2100  -93.6840 O.2   105  GLU105     -0.2867
     49  CB       -63.5060   40.9200  -93.1480 C.3   105  GLU105      0.0388
     50  CG       -62.2850   41.6750  -92.6620 C.3   105  GLU105      0.1160
     51  CD       -61.3100   41.9790  -93.7800 C.2   105  GLU105      0.3649
     52  OE1      -60.8390   41.0250  -94.4370 O.co2 105  GLU105     -0.2457
     53  OE2      -61.0200   43.1710  -94.0070 O.co2 105  GLU105     -0.2457
     54  N        -68.3060   44.1600  -93.4340 N.3   123  LEU123     -0.1231
     55  CA       -67.8520   44.9090  -92.2640 C.3   123  LEU123      0.1693
     56  C        -66.3500   44.7920  -91.9940 C.2   123  LEU123      0.2592
     57  O        -65.6950   43.8510  -92.4400 O.2   123  LEU123     -0.2718
     58  CB       -68.6360   44.4940  -91.0140 C.3   123  LEU123      0.0284
     59  CG       -70.1550   44.6920  -91.0070 C.3   123  LEU123      0.0019
     60  CD1      -70.8660   43.3770  -91.2850 C.3   123  LEU123      0.0001
     61  CD2      -70.6220   45.2950  -89.6910 C.3   123  LEU123      0.0001
     62  N        -65.8230   45.7650  -91.2530 N.am  124  ASP124     -0.1960
     63  CA       -64.4550   45.7290  -90.7400 C.3   124  ASP124      0.1840
     64  C        -64.2750   44.5810  -89.7640 C.2   124  ASP124      0.2622
     65  O        -65.2080   43.8330  -89.4860 O.2   124  ASP124     -0.2715
     66  CB       -64.1510   47.0160  -89.9730 C.3   124  ASP124      0.1450
     67  CG       -63.4710   48.0540  -90.8200 C.2   124  ASP124      0.3671
     68  OD1      -62.9860   47.7020  -91.9140 O.co2 124  ASP124     -0.2456
     69  OD2      -63.4050   49.2220  -90.3800 O.co2 124  ASP124     -0.2456
     70  N        -63.0710   44.4560  -89.2230 N.am  125  LEU125     -0.1963
     71  CA       -62.8590   43.5710  -88.0880 C.3   125  LEU125      0.1728
     72  C        -63.3290   44.2690  -86.8170 C.2   125  LEU125      0.2616
     73  O        -63.5900   43.6220  -85.8020 O.2   125  LEU125     -0.2715
     74  CB       -61.3920   43.1400  -87.9720 C.3   125  LEU125      0.0311
     75  CG       -60.2650   44.0640  -88.4430 C.3   125  LEU125      0.0022
     76  CD1      -60.2870   45.4080  -87.7380 C.3   125  LEU125      0.0001
     77  CD2      -58.9310   43.3820  -88.2250 C.3   125  LEU125      0.0001
     78  N        -63.4360   45.5940  -86.8840 N.am  126  ILE126     -0.1977
     79  CA       -63.9580   46.3760  -85.7680 C.3   126  ILE126      0.1596
     80  C        -65.4010   46.8170  -86.0050 C.2   126  ILE126      0.2287
     81  O        -65.9450   47.6250  -85.2500 O.2   126  ILE126     -0.2864
     82  CB       -63.0800   47.5980  -85.4490 C.3   126  ILE126      0.0276
     83  CG1      -62.8530   48.4450  -86.7010 C.3   126  ILE126      0.0022
     84  CG2      -61.7520   47.1580  -84.8520 C.3   126  ILE126      0.0022
     85  CD1      -61.9680   49.6540  -86.4550 C.3   126  ILE126      0.0001
     86  N        -67.2040   48.1510  -88.9760 N.3   128  CYS128     -0.1221
     87  CA       -67.6920   49.2580  -89.7860 C.3   128  CYS128      0.1794
     88  C        -68.4820   48.7270  -90.9750 C.2   128  CYS128      0.2443
     89  O        -67.9330   48.0350  -91.8290 O.2   128  CYS128     -0.2733
     90  CB       -66.5480   50.1380  -90.2750 C.3   128  CYS128      0.0970
     91  SG       -67.1090   51.4560  -91.3690 S.3   128  CYS128     -0.0800
     92  N        -69.7790   49.0530  -91.0320 N.am  129  PRO129     -0.2718
     93  CA       -70.6830   48.5340  -92.0630 C.3   129  PRO129      0.1535
     94  C        -70.5030   49.2160  -93.4140 C.2   129  PRO129      0.2598
     95  O        -70.1500   50.3930  -93.4820 O.2   129  PRO129     -0.2715
     96  CB       -72.0640   48.8600  -91.4960 C.3   129  PRO129      0.0310
     97  CG       -71.8440   50.0830  -90.6820 C.3   129  PRO129      0.0237
     98  CD       -70.4780   49.9290  -90.0750 C.3   129  PRO129      0.0939
     99  N        -70.7510   48.4650  -94.4800 N.am  130  MET130     -0.1978
    100  CA       -70.6910   48.9890  -95.8360 C.3   130  MET130      0.1605
    101  C        -71.6980   48.2460  -96.7060 C.2   130  MET130      0.2287
    102  O        -71.5190   47.0640  -96.9960 O.2   130  MET130     -0.2864
    103  CB       -69.2880   48.8180  -96.4170 C.3   130  MET130      0.0413
    104  CG       -69.1180   49.4230  -97.7990 C.3   130  MET130      0.0598
    105  SD       -67.6600   48.8080  -98.6590 S.3   130  MET130     -0.1393
    106  CE       -68.2460   47.2150  -99.2220 C.3   130  MET130      0.0692
@<TRIPOS>BOND
     1   106   105    1
     2   105   104    1
     3   104   103    1
     4   102   101    2
     5   101   100    1
     6   103   100    1
     7   100    99    1
     8    99    94   am
     9    52    51   ar
    10    53    51   ar
    11    51    50    1
    12    48    47    2
    13    95    94    2
    14    54    55    1
    15    94    93    1
    16    49    50    1
    17    49    46    1
    18    10     9    2
    19     5     6    1
    20     5     2    1
    21    47    46    1
    22     9     8    1
    23    57    56    2
    24    11    12    1
    25    11     8    1
    26    55    56    1
    27    55    58    1
    28    93    96    1
    29    93    92    1
    30    46    45    1
    31    56    62   am
    32    68    67   ar
    33    89    88    2
    34     1     2    1
    35    12    13    1
    36     8     7    1
    37    96    97    1
    38     2     3    1
    39    91    90    1
    40    60    59    1
    41    62    63    1
    42    13    14    1
    43     4     3    2
    44    92    88   am
    45    92    98    1
    46    58    59    1
    47    59    61    1
    48    88    87    1
    49    67    69   ar
    50    67    66    1
    51    63    66    1
    52    63    64    1
    53    97    98    1
    54    90    87    1
    55    87    86    1
    56    64    65    2
    57    64    70   am
    58    70    71    1
    59    36    35    2
    60    75    77    1
    61    75    74    1
    62    75    76    1
    63    71    74    1
    64    71    72    1
    65    35    34    1
    66    37    34    1
    67    37    38    1
    68    34    33    1
    69    78    72   am
    70    78    79    1
    71    72    73    2
    72    83    85    1
    73    83    82    1
    74    39    38   ar
    75    39    41   ar
    76    38    40   ar
    77    80    79    1
    78    80    81    2
    79    41    43   ar
    80    79    82    1
    81    82    84    1
    82    40    42   ar
    83    43    42   ar
    84    43    44    1
    85    25    23    1
    86    30    31    1
    87    30    27    1
    88    31    32    1
    89    23    22    2
    90    23    24    1
    91    22    21    1
    92    29    28    2
    93    28    27    1
    94    21    20    1
    95    27    26    1
    96    32    26    1
    97    18    17    2
    98    20    19    1
    99    16    17    1
   100    16    19    1
   101    16    15    1
