@<TRIPOS>MOLECULE
tmp/4r67W01.pdb
 148 139 0 0 0
SMALL
GASTEIGER

@<TRIPOS>ATOM
      1  N         -6.9330   56.8930  -63.4220 N.3     1  THR1       -0.1218
      2  CA        -5.7630   57.7350  -63.6430 C.3     1  THR1        0.1862
      3  C         -5.9540   59.1170  -63.0260 C.2     1  THR1        0.2287
      4  O         -6.9830   59.7610  -63.2290 O.2     1  THR1       -0.2866
      5  CB        -5.4550   57.8910  -65.1430 C.3     1  THR1        0.1770
      6  OG1       -5.1150   56.6150  -65.7000 O.3     1  THR1       -0.2211
      7  CG2       -4.2980   58.8560  -65.3520 C.3     1  THR1        0.0375
      8  N         -0.3240   59.3020  -60.3690 N.3    17  ASP17      -0.1239
      9  CA        -0.4040   58.2040  -59.4100 C.3    17  ASP17       0.1674
     10  C          0.1980   56.9590  -60.0500 C.2    17  ASP17       0.2266
     11  O          0.7770   57.0390  -61.1310 O.2    17  ASP17      -0.2867
     12  CB        -1.8470   57.9410  -58.9800 C.3    17  ASP17       0.1410
     13  CG        -2.6730   57.2920  -60.0750 C.2    17  ASP17       0.3668
     14  OD1       -2.6930   57.8230  -61.2070 O.co2  17  ASP17      -0.2456
     15  OD2       -3.3050   56.2500  -59.7970 O.co2  17  ASP17      -0.2456
     16  N         -1.5330   53.6190  -59.8230 N.3    19  ARG19      -0.1231
     17  CA        -2.4880   52.5170  -59.8160 C.3    19  ARG19       0.1694
     18  C         -2.9600   52.1520  -61.2210 C.2    19  ARG19       0.2592
     19  O         -3.4020   53.0100  -61.9810 O.2    19  ARG19      -0.2718
     20  CB        -3.6910   52.8390  -58.9290 C.3    19  ARG19       0.0321
     21  CG        -4.8040   51.8010  -59.0170 C.3    19  ARG19       0.0489
     22  CD        -5.9500   52.1240  -58.0730 C.3    19  ARG19       0.2205
     23  NE        -5.5900   51.8860  -56.6780 N.pl3  19  ARG19      -0.0865
     24  CZ        -6.3710   52.1830  -55.6440 C.cat  19  ARG19       0.5346
     25  NH1       -7.5580   52.7370  -55.8450 N.pl3  19  ARG19       0.1354
     26  NH2       -5.9620   51.9290  -54.4100 N.pl3  19  ARG19       0.1354
     27  N         -2.8560   50.8710  -61.5580 N.am   20  ALA20      -0.1966
     28  CA        -3.3960   50.3590  -62.8100 C.3    20  ALA20       0.1728
     29  C         -4.4300   49.2840  -62.5060 C.2    20  ALA20       0.2617
     30  O         -4.1540   48.3370  -61.7590 O.2    20  ALA20      -0.2715
     31  CB        -2.2890   49.8040  -63.6870 C.3    20  ALA20       0.0334
     32  N         -5.6160   49.4380  -63.0880 N.am   21  THR21      -0.1937
     33  CA        -6.7390   48.5610  -62.7870 C.3    21  THR21       0.2028
     34  C         -7.1920   47.7470  -63.9910 C.2    21  THR21       0.2642
     35  O         -7.0630   48.1840  -65.1340 O.2    21  THR21      -0.2714
     36  CB        -7.9520   49.3680  -62.2870 C.3    21  THR21       0.1808
     37  OG1       -8.3820   50.2740  -63.3120 O.3    21  THR21      -0.2208
     38  CG2       -7.5950   50.1580  -61.0380 C.3    21  THR21       0.0379
     39  N         -7.7110   46.5530  -63.7210 N.am   22  GLU22      -0.1963
     40  CA        -8.4870   45.8070  -64.7030 C.3    22  GLU22       0.1733
     41  C         -9.7920   45.3530  -64.0520 C.2    22  GLU22       0.2616
     42  O         -9.7950   44.5360  -63.1300 O.2    22  GLU22      -0.2715
     43  CB        -7.6990   44.6310  -65.2910 C.3    22  GLU22       0.0429
     44  CG        -7.1080   43.6660  -64.2810 C.3    22  GLU22       0.1163
     45  CD        -6.5410   42.4230  -64.9390 C.2    22  GLU22       0.3649
     46  OE1       -6.5260   42.3650  -66.1880 O.co2  22  GLU22      -0.2457
     47  OE2       -6.1160   41.5030  -64.2090 O.co2  22  GLU22      -0.2457
     48  N        -10.9030   45.9030  -64.5270 N.am   23  GLY23      -0.1955
     49  CA       -12.1690   45.7330  -63.8440 C.3    23  GLY23       0.1869
     50  C        -12.1690   46.6530  -62.6410 C.2    23  GLY23       0.2309
     51  O        -11.7030   47.7900  -62.7300 O.2    23  GLY23      -0.2863
     52  N         -4.5430   45.9360  -60.5230 N.3    27  ALA27      -0.1231
     53  CA        -3.6400   45.0000  -61.1790 C.3    27  ALA27       0.1694
     54  C         -2.1870   45.3770  -60.9230 C.2    27  ALA27       0.2592
     55  O         -1.3500   44.5120  -60.6710 O.2    27  ALA27      -0.2718
     56  CB        -3.9250   44.9380  -62.6720 C.3    27  ALA27       0.0304
     57  N         -1.8910   46.6720  -60.9870 N.am   28  ASP28      -0.1974
     58  CA        -0.5450   47.1560  -60.7110 C.3    28  ASP28       0.1709
     59  C         -0.5770   48.2260  -59.6220 C.2    28  ASP28       0.2293
     60  O         -1.2420   49.2540  -59.7680 O.2    28  ASP28      -0.2864
     61  CB         0.1030   47.7110  -61.9840 C.3    28  ASP28       0.1436
     62  CG         1.6170   47.8230  -61.8750 C.2    28  ASP28       0.3671
     63  OD1        2.1630   47.6140  -60.7710 O.co2  28  ASP28      -0.2456
     64  OD2        2.2620   48.1290  -62.8990 O.co2  28  ASP28      -0.2456
     65  N          2.7940   51.6080  -61.0910 N.3    31  CYS31      -0.1235
     66  CA         2.8890   51.7570  -62.5340 C.3    31  CYS31       0.1677
     67  C          3.4300   53.1400  -62.8800 C.2    31  CYS31       0.2270
     68  O          2.9180   54.1530  -62.4000 O.2    31  CYS31      -0.2867
     69  CB         1.5100   51.5440  -63.1700 C.3    31  CYS31       0.0956
     70  SG         1.3010   52.2680  -64.8110 S.3    31  CYS31      -0.0801
     71  N          3.5570   56.1920  -64.9390 N.3    33  LYS33      -0.1245
     72  CA         2.6680   56.8400  -65.8950 C.3    33  LYS33       0.1561
     73  C          3.2710   58.1230  -66.4450 C.2    33  LYS33       0.2260
     74  O          2.6300   58.8310  -67.2180 O.2    33  LYS33      -0.2867
     75  CB         1.3140   57.1380  -65.2490 C.3    33  LYS33       0.0271
     76  CG         0.6140   55.9060  -64.7080 C.3    33  LYS33       0.0035
     77  CD        -0.6630   56.2760  -63.9840 C.3    33  LYS33       0.0206
     78  CE        -1.3480   55.0450  -63.4060 C.3    33  LYS33       0.1093
     79  NZ        -2.6380   55.3770  -62.7340 N.3    33  LYS33      -0.1314
     80  N          6.0840   59.4320  -68.8260 N.3    35  HIS35      -0.1241
     81  CA         6.8790   58.8280  -69.8900 C.3    35  HIS35       0.1621
     82  C          7.9170   59.7610  -70.4900 C.2    35  HIS35       0.2264
     83  O          7.6980   60.9670  -70.6200 O.2    35  HIS35      -0.2867
     84  CB         5.9620   58.3220  -71.0020 C.3    35  HIS35       0.0745
     85  CG         4.9180   57.3590  -70.5330 C.ar   35  HIS35       0.0817
     86  ND1        5.0930   55.9920  -70.5740 N.ar   35  HIS35      -0.2268
     87  CD2        3.6850   57.5640  -70.0130 C.ar   35  HIS35       0.1154
     88  CE1        4.0150   55.3970  -70.1000 C.ar   35  HIS35       0.1986
     89  NE2        3.1450   56.3270  -69.7520 N.ar   35  HIS35      -0.2212
     90  N          0.5430   59.7040  -68.9700 N.3    45  GLY45      -0.1210
     91  CA        -0.4590   58.9600  -69.7060 C.3    45  GLY45       0.1956
     92  C         -1.5790   58.4020  -68.8510 C.2    45  GLY45       0.2612
     93  O         -1.3400   57.7480  -67.8360 O.2    45  GLY45      -0.2717
     94  N         -2.8110   58.6630  -69.2760 N.am   46  ALA46      -0.1965
     95  CA        -4.0010   58.1280  -68.6300 C.3    46  ALA46       0.1728
     96  C         -4.9300   57.5250  -69.6770 C.2    46  ALA46       0.2617
     97  O         -4.9740   57.9820  -70.8170 O.2    46  ALA46      -0.2715
     98  CB        -4.7170   59.2180  -67.8600 C.3    46  ALA46       0.0334
     99  N         -5.6770   56.4990  -69.2920 N.am   47  GLY47      -0.1940
    100  CA        -6.6000   55.8660  -70.2140 C.3    47  GLY47       0.2014
    101  C         -6.2430   54.4210  -70.4830 C.2    47  GLY47       0.2640
    102  O         -5.9340   53.6700  -69.5560 O.2    47  GLY47      -0.2714
    103  N         -6.2960   54.0270  -71.7510 N.am   48  THR48      -0.1936
    104  CA        -5.9220   52.6740  -72.1360 C.3    48  THR48       0.2028
    105  C         -4.4100   52.5510  -72.0470 C.2    48  THR48       0.2642
    106  O         -3.6820   53.2230  -72.7770 O.2    48  THR48      -0.2714
    107  CB        -6.3960   52.3360  -73.5570 C.3    48  THR48       0.1808
    108  OG1       -7.8230   52.4650  -73.6280 O.3    48  THR48      -0.2208
    109  CG2       -6.0010   50.9130  -73.9230 C.3    48  THR48       0.0379
    110  N         -3.9490   51.6960  -71.1410 N.am   49  ALA49      -0.1963
    111  CA        -2.5330   51.6110  -70.8010 C.3    49  ALA49       0.1728
    112  C         -1.6420   51.3520  -72.0100 C.2    49  ALA49       0.2616
    113  O         -0.7280   52.1290  -72.2900 O.2    49  ALA49      -0.2715
    114  CB        -2.3110   50.5510  -69.7390 C.3    49  ALA49       0.0334
    115  N         -1.9170   50.2680  -72.7280 N.am   50  ALA50      -0.1963
    116  CA        -1.1190   49.9020  -73.8940 C.3    50  ALA50       0.1728
    117  C         -1.0910   51.0230  -74.9270 C.2    50  ALA50       0.2616
    118  O         -0.0780   51.2390  -75.5940 O.2    50  ALA50      -0.2715
    119  CB        -1.6410   48.6140  -74.5150 C.3    50  ALA50       0.0334
    120  N         -2.2020   51.7410  -75.0480 N.am   51  ASP51      -0.1957
    121  CA        -2.2850   52.8430  -75.9980 C.3    51  ASP51       0.1840
    122  C         -1.3640   53.9910  -75.5990 C.2    51  ASP51       0.2622
    123  O         -0.6050   54.4940  -76.4230 O.2    51  ASP51      -0.2715
    124  CB        -3.7260   53.3370  -76.1530 C.3    51  ASP51       0.1450
    125  CG        -4.5840   52.3880  -76.9710 C.2    51  ASP51       0.3671
    126  OD1       -4.0200   51.5300  -77.6840 O.co2  51  ASP51      -0.2456
    127  OD2       -5.8260   52.5080  -76.9080 O.co2  51  ASP51      -0.2456
    128  N         -1.4270   54.3970  -74.3350 N.am   52  THR52      -0.1951
    129  CA        -0.5490   55.4490  -73.8340 C.3    52  THR52       0.1897
    130  C          0.9140   55.0490  -74.0010 C.2    52  THR52       0.2313
    131  O          1.7390   55.8490  -74.4520 O.2    52  THR52      -0.2863
    132  CB        -0.8310   55.7760  -72.3570 C.3    52  THR52       0.1794
    133  OG1       -0.8200   54.5690  -71.5860 O.3    52  THR52      -0.2208
    134  CG2       -2.1870   56.4460  -72.2120 C.3    52  THR52       0.0378
    135  N         -7.5540   62.0930  -66.3550 N.3   128  GLY128     -0.1210
    136  CA        -7.7650   60.8280  -65.6770 C.3   128  GLY128      0.1956
    137  C         -9.0720   60.7820  -64.9150 C.2   128  GLY128      0.2612
    138  O         -9.8010   61.7720  -64.8490 O.2   128  GLY128     -0.2717
    139  N         -9.3700   59.6240  -64.3340 N.am  129  SER129     -0.1952
    140  CA       -10.5940   59.4480  -63.5590 C.3   129  SER129      0.1924
    141  C        -10.6150   60.3340  -62.3110 C.2   129  SER129      0.2314
    142  O        -11.6800   60.6530  -61.7840 O.2   129  SER129     -0.2863
    143  CB       -10.7680   57.9790  -63.1660 C.3   129  SER129      0.2116
    144  OG        -9.6840   57.5360  -62.3650 O.3   129  SER129     -0.2180
    145  N        -10.3970   55.0080  -58.8390 N.3   168  GLY168     -0.1225
    146  CA        -9.5860   54.6100  -59.9750 C.3   168  GLY168      0.1811
    147  C         -8.1060   54.8690  -59.7640 C.2   168  GLY168      0.2280
    148  O         -7.2640   54.3220  -60.4760 O.2   168  GLY168     -0.2866
@<TRIPOS>BOND
     1   126   125   ar
     2   125   127   ar
     3   125   124    1
     4   123   122    2
     5   124   121    1
     6   121   122    1
     7   121   120    1
     8   122   128   am
     9   118   117    2
    10   120   117   am
    11   117   116    1
    12   119   116    1
    13   131   130    2
    14   128   129    1
    15   130   129    1
    16   109   107    1
    17   116   115    1
    18   129   132    1
    19   108   107    1
    20   107   104    1
    21   106   105    2
    22   115   112   am
    23   132   134    1
    24   132   133    1
    25   113   112    2
    26   104   105    1
    27   104   103    1
    28   105   110   am
    29   112   111    1
    30   103   101   am
    31   110   111    1
    32    84    85    1
    33    84    81    1
    34    97    96    2
    35   111   114    1
    36    83    82    2
    37    86    85   ar
    38    86    88   ar
    39    85    87   ar
    40    82    81    1
    41   101   100    1
    42   101   102    2
    43   100    99    1
    44    88    89   ar
    45    87    89   ar
    46    81    80    1
    47    91    90    1
    48    91    92    1
    49    96    99   am
    50    96    95    1
    51    94    92   am
    52    94    95    1
    53    92    93    2
    54    95    98    1
    55    74    73    2
    56    73    72    1
    57   135   136    1
    58    46    45   ar
    59    72    75    1
    60    72    71    1
    61     6     5    1
    62   136   137    1
    63     7     5    1
    64    43    40    1
    65    43    44    1
    66    75    76    1
    67     5     2    1
    68    35    34    2
    69    45    44    1
    70    45    47   ar
    71   137   138    2
    72   137   139   am
    73    70    69    1
    74    76    77    1
    75    40    41    1
    76    40    39    1
    77    48    41   am
    78    48    49    1
    79   139   140    1
    80    41    42    2
    81    34    39   am
    82    34    33    1
    83    77    78    1
    84    49    50    1
    85    31    28    1
    86     2     1    1
    87     2     3    1
    88   140   143    1
    89   140   141    1
    90    78    79    1
    91    37    36    1
    92     4     3    2
    93    69    66    1
    94   143   144    1
    95    32    33    1
    96    32    29   am
    97    64    62   ar
    98    67    66    1
    99    67    68    2
   100    28    29    1
   101    28    27    1
   102    33    36    1
   103    51    50    2
   104    56    53    1
   105    66    65    1
   106    29    30    2
   107   141   142    2
   108    36    38    1
   109    61    62    1
   110    61    58    1
   111    19    18    2
   112    62    63   ar
   113    27    18   am
   114    18    17    1
   115    14    13   ar
   116    53    54    1
   117    53    52    1
   118    11    10    2
   119    57    54   am
   120    57    58    1
   121    54    55    2
   122    58    59    1
   123   148   147    2
   124     8     9    1
   125    13    15   ar
   126    13    12    1
   127    10     9    1
   128   146   147    1
   129   146   145    1
   130    16    17    1
   131    17    20    1
   132    60    59    2
   133     9    12    1
   134    21    20    1
   135    21    22    1
   136    22    23    1
   137    23    24    2
   138    25    24    1
   139    24    26    1
