@<TRIPOS>MOLECULE
tmp/4r67L00.pdb
 143 134 0 0 0
SMALL
GASTEIGER

@<TRIPOS>ATOM
      1  N        -25.3540   21.5160  -60.6540 N.3     1  THR1       -0.1218
      2  CA       -26.0710   20.4520  -59.9610 C.3     1  THR1        0.1862
      3  C        -25.9180   19.1200  -60.6870 C.2     1  THR1        0.2287
      4  O        -25.3960   19.0650  -61.8000 O.2     1  THR1       -0.2866
      5  CB       -27.5690   20.7800  -59.8200 C.3     1  THR1        0.1770
      6  OG1      -27.7240   22.0660  -59.2080 O.3     1  THR1       -0.2211
      7  CG2      -28.2660   19.7300  -58.9670 C.3     1  THR1        0.0375
      8  N        -22.3700   21.0250  -54.9700 N.3    19  ARG19      -0.1231
      9  CA       -21.8100   22.2850  -55.4480 C.3    19  ARG19       0.1694
     10  C        -22.8890   23.3380  -55.6930 C.2    19  ARG19       0.2592
     11  O        -23.9780   23.0260  -56.1660 O.2    19  ARG19      -0.2718
     12  CB       -20.9790   22.0610  -56.7150 C.3    19  ARG19       0.0321
     13  CG       -20.3700   23.3300  -57.2930 C.3    19  ARG19       0.0489
     14  CD       -19.2760   23.0150  -58.3000 C.3    19  ARG19       0.2205
     15  NE       -18.1110   22.4100  -57.6620 N.pl3  19  ARG19      -0.0865
     16  CZ       -17.0020   22.0610  -58.3050 C.cat  19  ARG19       0.5346
     17  NH1      -16.9010   22.2580  -59.6130 N.pl3  19  ARG19       0.1354
     18  NH2      -15.9930   21.5160  -57.6400 N.pl3  19  ARG19       0.1354
     19  N        -22.5780   24.5830  -55.3470 N.am   20  ALA20      -0.1966
     20  CA       -23.4570   25.7150  -55.6030 C.3    20  ALA20       0.1728
     21  C        -22.6130   26.8600  -56.1320 C.2    20  ALA20       0.2617
     22  O        -21.6670   27.3060  -55.4720 O.2    20  ALA20      -0.2715
     23  CB       -24.1730   26.1310  -54.3380 C.3    20  ALA20       0.0334
     24  N        -22.9570   27.3310  -57.3260 N.am   21  THR21      -0.1937
     25  CA       -22.1670   28.3520  -57.9990 C.3    21  THR21       0.2028
     26  C        -22.9240   29.6620  -58.1490 C.2    21  THR21       0.2642
     27  O        -24.1550   29.6820  -58.1860 O.2    21  THR21      -0.2714
     28  CB       -21.7410   27.8880  -59.4030 C.3    21  THR21       0.1808
     29  OG1      -22.8880   27.8460  -60.2620 O.3    21  THR21      -0.2208
     30  CG2      -21.1040   26.5080  -59.3390 C.3    21  THR21       0.0379
     31  N        -22.1730   30.7550  -58.2300 N.am   22  ALA22      -0.1963
     32  CA       -22.7270   32.0600  -58.5620 C.3    22  ALA22       0.1728
     33  C        -21.9510   32.5890  -59.7560 C.2    22  ALA22       0.2616
     34  O        -21.0760   33.4420  -59.6140 O.2    22  ALA22      -0.2715
     35  CB       -22.6090   33.0050  -57.3880 C.3    22  ALA22       0.0334
     36  N        -22.2760   32.0720  -60.9360 N.am   23  GLY23      -0.1955
     37  CA       -21.4680   32.3130  -62.1130 C.3    23  GLY23       0.1869
     38  C        -20.4230   31.2190  -62.1850 C.2    23  GLY23       0.2309
     39  O        -20.7300   30.0500  -61.9540 O.2    23  GLY23      -0.2863
     40  N        -19.6610   29.0490  -54.9130 N.3    27  ALA27      -0.1231
     41  CA       -20.1040   29.6770  -53.6740 C.3    27  ALA27       0.1694
     42  C        -20.1390   28.6920  -52.5110 C.2    27  ALA27       0.2592
     43  O        -19.9300   29.0740  -51.3600 O.2    27  ALA27      -0.2718
     44  CB       -21.4690   30.3230  -53.8650 C.3    27  ALA27       0.0304
     45  N        -20.4060   27.4250  -52.8110 N.am   28  SER28      -0.1952
     46  CA       -20.4700   26.4120  -51.7630 C.3    28  SER28       0.1924
     47  C        -20.2230   25.0060  -52.2970 C.2    28  SER28       0.2314
     48  O        -20.4030   24.7440  -53.4810 O.2    28  SER28      -0.2863
     49  CB       -21.8230   26.4680  -51.0510 C.3    28  SER28       0.2116
     50  OG       -21.9330   25.4440  -50.0760 O.3    28  SER28      -0.2180
     51  N        -23.8260   21.8170  -49.8880 N.3    31  VAL31      -0.1245
     52  CA       -25.2660   22.0350  -50.0160 C.3    31  VAL31       0.1561
     53  C        -26.0600   20.7300  -49.9990 C.2    31  VAL31       0.2260
     54  O        -25.8140   19.8290  -50.8040 O.2    31  VAL31      -0.2867
     55  CB       -25.6160   22.8010  -51.3090 C.3    31  VAL31       0.0252
     56  CG1      -27.1190   22.9720  -51.4280 C.3    31  VAL31       0.0019
     57  CG2      -24.9240   24.1490  -51.3360 C.3    31  VAL31       0.0019
     58  N        -28.7850   18.9110  -51.2020 N.3    33  LYS33      -0.1245
     59  CA       -29.7030   19.0180  -52.3340 C.3    33  LYS33       0.1561
     60  C        -30.8410   18.0070  -52.2710 C.2    33  LYS33       0.2260
     61  O        -31.7220   18.0020  -53.1290 O.2    33  LYS33      -0.2867
     62  CB       -28.9440   18.8830  -53.6550 C.3    33  LYS33       0.0271
     63  CG       -28.0630   20.0790  -53.9680 C.3    33  LYS33       0.0035
     64  CD       -27.1430   19.8040  -55.1360 C.3    33  LYS33       0.0206
     65  CE       -26.3760   21.0550  -55.5140 C.3    33  LYS33       0.1093
     66  NZ       -25.4480   20.8290  -56.6550 N.3    33  LYS33      -0.1314
     67  N        -33.1360   18.5440  -55.6560 N.3    45  MET45      -0.1230
     68  CA       -33.1240   19.9890  -55.8040 C.3    45  MET45       0.1702
     69  C        -32.0600   20.4600  -56.8020 C.2    45  MET45       0.2592
     70  O        -30.8590   20.2720  -56.5920 O.2    45  MET45      -0.2718
     71  CB       -32.9370   20.6160  -54.4200 C.3    45  MET45       0.0401
     72  CG       -32.4350   22.0330  -54.3960 C.3    45  MET45       0.0596
     73  SD       -32.3550   22.6560  -52.7040 S.3    45  MET45      -0.1393
     74  CE       -33.9990   22.2650  -52.1430 C.3    45  MET45       0.0692
     75  N        -32.5170   21.0640  -57.8960 N.am   46  ALA46      -0.1966
     76  CA       -31.6300   21.5170  -58.9620 C.3    46  ALA46       0.1728
     77  C        -32.1630   22.7880  -59.6210 C.2    46  ALA46       0.2617
     78  O        -33.3690   22.9430  -59.8010 O.2    46  ALA46      -0.2715
     79  CB       -31.4540   20.4220  -59.9960 C.3    46  ALA46       0.0334
     80  N        -31.2580   23.6910  -59.9870 N.am   47  GLY47      -0.1940
     81  CA       -31.6450   24.9580  -60.5820 C.3    47  GLY47       0.2014
     82  C        -31.4500   26.1250  -59.6320 C.2    47  GLY47       0.2639
     83  O        -30.4240   26.2220  -58.9610 O.2    47  GLY47      -0.2714
     84  N        -32.4340   27.0170  -59.5770 N.am   48  GLY48      -0.1939
     85  CA       -32.3860   28.1450  -58.6650 C.3    48  GLY48       0.2014
     86  C        -32.4810   27.6840  -57.2230 C.2    48  GLY48       0.2639
     87  O        -33.4910   27.1040  -56.8160 O.2    48  GLY48      -0.2714
     88  N        -31.4280   27.9440  -56.4520 N.am   49  ALA49      -0.1963
     89  CA       -31.3300   27.4600  -55.0770 C.3    49  ALA49       0.1728
     90  C        -32.4880   27.9270  -54.1990 C.2    49  ALA49       0.2616
     91  O        -33.1960   27.1100  -53.6020 O.2    49  ALA49      -0.2715
     92  CB       -30.0080   27.8760  -54.4690 C.3    49  ALA49       0.0334
     93  N        -32.6770   29.2400  -54.1290 N.am   50  ALA50      -0.1963
     94  CA       -33.7520   29.8180  -53.3320 C.3    50  ALA50       0.1728
     95  C        -35.1200   29.2960  -53.7620 C.2    50  ALA50       0.2616
     96  O        -35.9590   28.9790  -52.9190 O.2    50  ALA50      -0.2715
     97  CB       -33.7170   31.3330  -53.4120 C.3    50  ALA50       0.0334
     98  N        -35.3340   29.2090  -55.0720 N.am   51  ASP51      -0.1957
     99  CA       -36.5980   28.7220  -55.6140 C.3    51  ASP51       0.1840
    100  C        -36.9030   27.3130  -55.1210 C.2    51  ASP51       0.2622
    101  O        -37.9530   27.0670  -54.5200 O.2    51  ASP51      -0.2715
    102  CB       -36.5800   28.7530  -57.1440 C.3    51  ASP51       0.1450
    103  CG       -36.6530   30.1660  -57.7020 C.2    51  ASP51       0.3671
    104  OD1      -37.1220   31.0730  -56.9800 O.co2  51  ASP51      -0.2456
    105  OD2      -36.2490   30.3680  -58.8670 O.co2  51  ASP51      -0.2456
    106  N        -35.9730   26.3970  -55.3700 N.am   52  CYS52      -0.1968
    107  CA       -36.1230   25.0090  -54.9490 C.3    52  CYS52       0.1712
    108  C        -36.3480   24.8900  -53.4450 C.2    52  CYS52       0.2296
    109  O        -37.2880   24.2260  -53.0010 O.2    52  CYS52      -0.2864
    110  CB       -34.8860   24.2020  -55.3330 C.3    52  CYS52       0.0983
    111  SG       -34.6150   23.9630  -57.0980 S.3    52  CYS52      -0.0798
    112  N        -40.1140   33.1790  -64.4860 N.3    94  GLY94      -0.1225
    113  CA       -38.6760   33.0160  -64.3840 C.3    94  GLY94       0.1811
    114  C        -38.1640   32.1560  -63.2440 C.2    94  GLY94       0.2280
    115  O        -37.0000   32.2620  -62.8670 O.2    94  GLY94      -0.2866
    116  N        -36.4970   29.1340  -61.9490 N.3    96  SER96      -0.1217
    117  CA       -35.6630   28.0400  -62.4260 C.3    96  SER96       0.1889
    118  C        -35.6580   26.9520  -61.3620 C.2    96  SER96       0.2288
    119  O        -35.1690   27.1650  -60.2520 O.2    96  SER96      -0.2866
    120  CB       -34.2410   28.5250  -62.7070 C.3    96  SER96       0.2089
    121  OG       -33.4560   27.4950  -63.2800 O.3    96  SER96      -0.2183
    122  N        -30.2330   18.2630  -63.7970 N.3   129  GLY129     -0.1210
    123  CA       -29.1750   19.2150  -63.5110 C.3   129  GLY129      0.1956
    124  C        -28.2280   19.4150  -64.6760 C.2   129  GLY129      0.2612
    125  O        -28.3550   18.7630  -65.7110 O.2   129  GLY129     -0.2717
    126  N        -27.2720   20.3210  -64.5030 N.am  130  SER130     -0.1952
    127  CA       -26.3150   20.6410  -65.5560 C.3   130  SER130      0.1924
    128  C        -25.4970   19.4290  -65.9980 C.2   130  SER130      0.2314
    129  O        -25.0820   19.3390  -67.1550 O.2   130  SER130     -0.2863
    130  CB       -25.3820   21.7650  -65.1010 C.3   130  SER130      0.2116
    131  OG       -24.6990   21.4070  -63.9150 O.3   130  SER130     -0.2180
    132  N        -19.8440   22.5450  -63.3870 N.3   169  TYR169     -0.1241
    133  CA       -20.7070   23.1320  -62.3710 C.3   169  TYR169      0.1605
    134  C        -21.2280   22.0800  -61.4000 C.2   169  TYR169      0.2264
    135  O        -22.1830   22.3160  -60.6650 O.2   169  TYR169     -0.2867
    136  CB       -21.8550   23.9040  -63.0300 C.3   169  TYR169      0.0534
    137  CG       -21.3740   25.1220  -63.7870 C.ar  169  TYR169     -0.0201
    138  CD1      -21.2310   26.3470  -63.1470 C.ar  169  TYR169     -0.0009
    139  CD2      -21.0390   25.0420  -65.1330 C.ar  169  TYR169     -0.0009
    140  CE1      -20.7810   27.4620  -63.8290 C.ar  169  TYR169      0.0417
    141  CE2      -20.5890   26.1530  -65.8230 C.ar  169  TYR169      0.0417
    142  CZ       -20.4620   27.3610  -65.1670 C.ar  169  TYR169      0.1957
    143  OH       -20.0150   28.4710  -65.8480 O.3   169  TYR169     -0.2866
@<TRIPOS>BOND
     1   129   128    2
     2   128   127    1
     3   143   142    1
     4   141   142   ar
     5   141   139   ar
     6   125   124    2
     7   127   130    1
     8   127   126    1
     9   142   140   ar
    10   139   137   ar
    11   130   131    1
    12   124   126   am
    13   124   123    1
    14   112   113    1
    15   113   114    1
    16   140   138   ar
    17   122   123    1
    18   137   138   ar
    19   137   136    1
    20   132   133    1
    21   121   120    1
    22   114   115    2
    23   136   133    1
    24   120   117    1
    25   117   116    1
    26   117   118    1
    27   133   134    1
    28    38    37    1
    29    38    39    2
    30    37    36    1
    31     4     3    2
    32   134   135    2
    33   118   119    2
    34    36    33   am
    35     3     2    1
    36     1     2    1
    37    81    80    1
    38    81    82    1
    39    29    28    1
    40    79    76    1
    41    80    77   am
    42     2     5    1
    43     5     6    1
    44     5     7    1
    45    78    77    2
    46    33    34    2
    47    33    32    1
    48    82    84   am
    49    82    83    2
    50    77    76    1
    51    17    16    1
    52    84    85    1
    53    28    30    1
    54    28    25    1
    55    76    75    1
    56   105   103   ar
    57    85    86    1
    58    32    31    1
    59    32    35    1
    60    16    15    2
    61    16    18    1
    62    14    15    1
    63    14    13    1
    64    31    26   am
    65    27    26    2
    66    26    25    1
    67    25    24    1
    68    75    69   am
    69   103   102    1
    70   103   104   ar
    71    24    21   am
    72    13    12    1
    73    86    87    2
    74    86    88   am
    75   102    99    1
    76   111   110    1
    77    69    70    2
    78    69    68    1
    79    12     9    1
    80    66    65    1
    81    88    89    1
    82    11    10    2
    83    21    20    1
    84    21    22    2
    85    68    67    1
    86    68    71    1
    87    10     9    1
    88    10    19   am
    89    99   100    1
    90    99    98    1
    91    20    19    1
    92    20    23    1
    93    65    64    1
    94     9     8    1
    95   106   100   am
    96   106   107    1
    97   110   107    1
    98    64    63    1
    99   100   101    2
   100    89    92    1
   101    89    90    1
   102    98    95   am
   103   107   108    1
   104    40    41    1
   105    71    72    1
   106    72    73    1
   107    90    93   am
   108    90    91    2
   109    93    94    1
   110    63    62    1
   111    44    41    1
   112    95    94    1
   113    95    96    2
   114    41    42    1
   115    62    59    1
   116    48    47    2
   117   108   109    2
   118    97    94    1
   119    61    60    2
   120    45    42   am
   121    45    46    1
   122    73    74    1
   123    42    43    2
   124    59    60    1
   125    59    58    1
   126    47    46    1
   127    46    49    1
   128    56    55    1
   129    57    55    1
   130    55    52    1
   131    49    50    1
   132    54    53    2
   133    52    53    1
   134    52    51    1
