@<TRIPOS>MOLECULE
tmp/4r67V00.pdb
 132 122 0 0 0
SMALL
GASTEIGER

@<TRIPOS>ATOM
      1  N        -20.2770   76.6140  -77.0610 N.3     1  THR1       -0.1218
      2  CA       -19.6260   77.7340  -77.7370 C.3     1  THR1        0.1862
      3  C        -20.6070   78.8260  -78.1620 C.2     1  THR1        0.2287
      4  O        -21.7740   78.5530  -78.4350 O.2     1  THR1       -0.2866
      5  CB       -18.8800   77.2430  -78.9920 C.3     1  THR1        0.1770
      6  OG1      -18.0880   76.1050  -78.6450 O.3     1  THR1       -0.2211
      7  CG2      -17.9780   78.3180  -79.5690 C.3     1  THR1        0.0375
      8  N        -15.4890   78.8940  -73.0890 N.3    19  ARG19      -0.1231
      9  CA       -15.8350   77.6600  -72.3920 C.3    19  ARG19       0.1694
     10  C        -15.7690   76.4320  -73.2960 C.2    19  ARG19       0.2593
     11  O        -16.3660   76.4030  -74.3670 O.2    19  ARG19      -0.2718
     12  CB       -17.2130   77.7710  -71.7390 C.3    19  ARG19       0.0321
     13  CG       -17.5920   76.5530  -70.9180 C.3    19  ARG19       0.0489
     14  CD       -18.8750   76.7750  -70.1370 C.3    19  ARG19       0.2205
     15  NE       -18.7090   77.7880  -69.1020 N.pl3  19  ARG19      -0.0865
     16  CZ       -19.6050   78.0370  -68.1540 C.cat  19  ARG19       0.5346
     17  NH1      -20.7310   77.3400  -68.1080 N.pl3  19  ARG19       0.1354
     18  NH2      -19.3730   78.9770  -67.2470 N.pl3  19  ARG19       0.1354
     19  N        -15.0260   75.4250  -72.8500 N.am   20  THR20      -0.1939
     20  CA       -14.9330   74.1480  -73.5450 C.3    20  THR20       0.2028
     21  C        -15.3320   73.0360  -72.5850 C.2    20  THR20       0.2643
     22  O        -14.6820   72.8270  -71.5490 O.2    20  THR20      -0.2714
     23  CB       -13.5130   73.8820  -74.0690 C.3    20  THR20       0.1808
     24  OG1      -13.1710   74.8680  -75.0510 O.3    20  THR20      -0.2208
     25  CG2      -13.4240   72.4950  -74.6960 C.3    20  THR20       0.0379
     26  N        -16.4000   72.3270  -72.9420 N.am   21  THR21      -0.1936
     27  CA       -17.0180   71.3520  -72.0540 C.3    21  THR21       0.2028
     28  C        -16.9950   69.9390  -72.6120 C.2    21  THR21       0.2643
     29  O        -17.1480   69.7280  -73.8120 O.2    21  THR21      -0.2714
     30  CB       -18.4940   71.6960  -71.7970 C.3    21  THR21       0.1808
     31  OG1      -19.2480   71.4760  -72.9950 O.3    21  THR21      -0.2208
     32  CG2      -18.6420   73.1430  -71.3690 C.3    21  THR21       0.0379
     33  N        -16.8070   68.9760  -71.7200 N.am   22  THR22      -0.1936
     34  CA       -17.0150   67.5730  -72.0330 C.3    22  THR22       0.2028
     35  C        -18.0520   67.0350  -71.0550 C.2    22  THR22       0.2642
     36  O        -17.7840   66.8780  -69.8630 O.2    22  THR22      -0.2714
     37  CB       -15.7140   66.7570  -71.9470 C.3    22  THR22       0.1808
     38  OG1      -16.0350   65.3720  -71.7800 O.3    22  THR22      -0.2208
     39  CG2      -14.8570   67.2170  -70.7720 C.3    22  THR22       0.0379
     40  N        -19.2490   66.7680  -71.5620 N.am   23  GLY23      -0.1954
     41  CA       -20.3710   66.4840  -70.6930 C.3    23  GLY23       0.1869
     42  C        -20.7880   67.7880  -70.0450 C.2    23  GLY23       0.2309
     43  O        -20.9270   68.8050  -70.7240 O.2    23  GLY23      -0.2863
     44  N        -13.8450   71.4730  -69.3300 N.3    27  ALA27      -0.1245
     45  CA       -12.4710   71.0250  -69.5340 C.3    27  ALA27       0.1562
     46  C        -11.5240   72.1920  -69.7800 C.2    27  ALA27       0.2260
     47  O        -10.3150   72.0640  -69.5910 O.2    27  ALA27      -0.2867
     48  CB       -12.3970   70.0270  -70.6800 C.3    27  ALA27       0.0290
     49  N        -10.6310   78.8190  -73.2070 N.3    31  THR31      -0.1218
     50  CA       -10.2550   78.4720  -74.5740 C.3    31  THR31       0.1862
     51  C        -10.1250   79.6820  -75.5040 C.2    31  THR31       0.2287
     52  O        -10.9140   80.6260  -75.4320 O.2    31  THR31      -0.2866
     53  CB       -11.2870   77.5000  -75.1810 C.3    31  THR31       0.1770
     54  OG1      -11.4880   76.4020  -74.2860 O.3    31  THR31      -0.2211
     55  CG2      -10.8170   76.9710  -76.5290 C.3    31  THR31       0.0375
     56  N        -10.9140   80.6120  -78.9000 N.3    33  LYS33      -0.1245
     57  CA       -11.7350   80.1230  -80.0040 C.3    33  LYS33       0.1561
     58  C        -11.5870   80.9530  -81.2750 C.2    33  LYS33       0.2260
     59  O        -12.2210   80.6620  -82.2880 O.2    33  LYS33      -0.2867
     60  CB       -13.2040   80.0530  -79.5870 C.3    33  LYS33       0.0271
     61  CG       -13.4530   79.1360  -78.4050 C.3    33  LYS33       0.0035
     62  CD       -14.9170   79.1160  -78.0200 C.3    33  LYS33       0.0206
     63  CE       -15.1510   78.2300  -76.8110 C.3    33  LYS33       0.1093
     64  NZ       -16.5960   78.1320  -76.4720 N.3    33  LYS33      -0.1314
     65  N        -14.3600   79.1150  -84.2510 N.3    45  ARG45      -0.1231
     66  CA       -14.6340   77.6860  -84.1840 C.3    45  ARG45       0.1694
     67  C        -15.7930   77.3600  -83.2510 C.2    45  ARG45       0.2593
     68  O        -15.9300   77.9550  -82.1860 O.2    45  ARG45      -0.2718
     69  CB       -13.3830   76.9370  -83.7200 C.3    45  ARG45       0.0321
     70  CG       -12.2130   77.0030  -84.6880 C.3    45  ARG45       0.0489
     71  CD       -10.8790   76.9500  -83.9520 C.3    45  ARG45       0.2205
     72  NE       -10.8300   75.9000  -82.9360 N.pl3  45  ARG45      -0.0865
     73  CZ       -10.5000   76.1060  -81.6640 C.cat  45  ARG45       0.5346
     74  NH1      -10.1860   77.3270  -81.2510 N.pl3  45  ARG45       0.1354
     75  NH2      -10.4800   75.0940  -80.8050 N.pl3  45  ARG45       0.1354
     76  N        -16.6290   76.4140  -83.6660 N.am   46  SER46      -0.1938
     77  CA       -17.6520   75.8520  -82.7920 C.3    46  SER46       0.2055
     78  C        -17.8700   74.3910  -83.1670 C.2    46  SER46       0.2644
     79  O        -17.6410   73.9950  -84.3090 O.2    46  SER46      -0.2714
     80  CB       -18.9630   76.6360  -82.8920 C.3    46  SER46       0.2130
     81  OG       -19.6110   76.4100  -84.1320 O.3    46  SER46      -0.2179
     82  N        -18.3050   73.5890  -82.2040 N.am   47  GLY47      -0.1939
     83  CA       -18.4940   72.1700  -82.4360 C.3    47  GLY47       0.2014
     84  C        -17.3870   71.3490  -81.8100 C.2    47  GLY47       0.2640
     85  O        -16.8460   71.7190  -80.7710 O.2    47  GLY47      -0.2714
     86  N        -17.0510   70.2300  -82.4390 N.am   48  SER48      -0.1935
     87  CA       -15.9870   69.3700  -81.9370 C.3    48  SER48       0.2055
     88  C        -14.6570   70.1130  -81.9100 C.2    48  SER48       0.2643
     89  O        -14.2580   70.7250  -82.9000 O.2    48  SER48      -0.2714
     90  CB       -15.8640   68.1080  -82.7920 C.3    48  SER48       0.2130
     91  OG       -14.7510   67.3230  -82.3880 O.3    48  SER48      -0.2179
     92  N        -13.9770   70.0600  -80.7700 N.am   49  ALA49      -0.1963
     93  CA       -12.6900   70.7250  -80.6230 C.3    49  ALA49       0.1728
     94  C        -11.6590   70.1120  -81.5620 C.2    49  ALA49       0.2616
     95  O        -10.9700   70.8260  -82.2920 O.2    49  ALA49      -0.2715
     96  CB       -12.2140   70.6460  -79.1870 C.3    49  ALA49       0.0334
     97  N        -11.5710   68.7860  -81.5450 N.am   50  ALA50      -0.1977
     98  CA       -10.6220   68.0650  -82.3840 C.3    50  ALA50       0.1597
     99  C        -10.8400   68.3750  -83.8600 C.2    50  ALA50       0.2287
    100  O         -9.8950   68.7130  -84.5800 O.2    50  ALA50      -0.2864
    101  CB       -10.7270   66.5700  -82.1330 C.3    50  ALA50       0.0319
    102  N        -12.5500   70.9360  -85.4070 N.3    52  THR52      -0.1218
    103  CA       -12.2750   72.3250  -85.7620 C.3    52  THR52       0.1862
    104  C        -10.7850   72.6540  -85.7240 C.2    52  THR52       0.2287
    105  O        -10.2950   73.4040  -86.5680 O.2    52  THR52      -0.2866
    106  CB       -13.0480   73.3240  -84.8710 C.3    52  THR52       0.1770
    107  OG1      -12.7410   73.0840  -83.4920 O.3    52  THR52      -0.2211
    108  CG2      -14.5400   73.1780  -85.0850 C.3    52  THR52       0.0375
    109  N        -18.0410   67.5370  -87.0440 N.3    95  MET95      -0.1245
    110  CA       -18.9930   68.3810  -86.3420 C.3    95  MET95       0.1570
    111  C        -18.3850   69.7640  -86.1800 C.2    95  MET95       0.2261
    112  O        -17.7560   70.0600  -85.1630 O.2    95  MET95      -0.2867
    113  CB       -19.3410   67.7960  -84.9760 C.3    95  MET95       0.0387
    114  CG       -20.3870   66.7000  -85.0190 C.3    95  MET95       0.0595
    115  SD       -20.8790   66.1940  -83.3630 S.3    95  MET95      -0.1393
    116  CE       -21.3140   67.7800  -82.6490 C.3    95  MET95       0.0692
    117  N        -22.6190   78.5720  -82.7450 N.3   129  GLY129     -0.1210
    118  CA       -22.4470   77.9320  -81.4530 C.3   129  GLY129      0.1956
    119  C        -23.7710   77.7240  -80.7450 C.2   129  GLY129      0.2612
    120  O        -24.7990   78.2620  -81.1600 O.2   129  GLY129     -0.2717
    121  N        -23.7450   76.9450  -79.6690 N.am  130  SER130     -0.1952
    122  CA       -24.9560   76.6170  -78.9240 C.3   130  SER130      0.1924
    123  C        -25.6580   77.8510  -78.3650 C.2   130  SER130      0.2314
    124  O        -26.8850   77.8880  -78.2830 O.2   130  SER130     -0.2863
    125  CB       -24.6340   75.6460  -77.7860 C.3   130  SER130      0.2116
    126  OG       -23.7410   76.2350  -76.8570 O.3   130  SER130     -0.2180
    127  N        -23.4720   76.0210  -71.8260 N.3   169  SER169     -0.1217
    128  CA       -22.3110   75.5460  -72.5670 C.3   169  SER169      0.1889
    129  C        -21.3930   76.6990  -72.9480 C.2   169  SER169      0.2288
    130  O        -20.2850   76.4870  -73.4290 O.2   169  SER169     -0.2866
    131  CB       -22.7480   74.7870  -73.8180 C.3   169  SER169      0.2089
    132  OG       -23.4490   73.6070  -73.4740 O.3   169  SER169     -0.2183
@<TRIPOS>BOND
     1   109   110    1
     2   105   104    2
     3   110   111    1
     4   110   113    1
     5   111   112    2
     6   103   104    1
     7   103   102    1
     8   103   106    1
     9   108   106    1
    10   114   113    1
    11   114   115    1
    12   106   107    1
    13    70    71    1
    14    70    69    1
    15   100    99    2
    16    79    78    2
    17    65    66    1
    18    66    69    1
    19    66    67    1
    20    81    80    1
    21    71    72    1
    22    99    98    1
    23    76    67   am
    24    76    77    1
    25   115   116    1
    26    67    68    2
    27    78    77    1
    28    78    82   am
    29    72    73    2
    30    89    88    2
    31    80    77    1
    32    90    91    1
    33    90    87    1
    34   117   118    1
    35    86    87    1
    36    86    84   am
    37    83    82    1
    38    83    84    1
    39    98   101    1
    40    98    97    1
    41    95    94    2
    42    59    58    2
    43    87    88    1
    44    88    92   am
    45    84    85    2
    46    73    74    1
    47    73    75    1
    48    94    97   am
    49    94    93    1
    50   118   119    1
    51    58    57    1
    52   120   119    2
    53    92    93    1
    54   119   121   am
    55    93    96    1
    56    57    60    1
    57    57    56    1
    58   121   122    1
    59    60    61    1
    60     7     5    1
    61     5     6    1
    62     5     2    1
    63   122   123    1
    64   122   125    1
    65     4     3    2
    66    61    62    1
    67   123   124    2
    68     3     2    1
    69    62    63    1
    70   125   126    1
    71     2     1    1
    72    63    64    1
    73    55    53    1
    74    51    52    2
    75    51    50    1
    76    53    50    1
    77    53    54    1
    78    24    23    1
    79    25    23    1
    80    50    49    1
    81    11    10    2
    82    23    20    1
    83   131   132    1
    84   131   128    1
    85    29    28    2
    86    20    19    1
    87    20    21    1
    88   130   129    2
    89    10    19   am
    90    10     9    1
    91     8     9    1
    92    31    30    1
    93   129   128    1
    94    26    21   am
    95    26    27    1
    96    28    27    1
    97    28    33   am
    98    21    22    2
    99   128   127    1
   100     9    12    1
   101    27    30    1
   102    34    37    1
   103    34    33    1
   104    34    35    1
   105    37    38    1
   106    37    39    1
   107    30    32    1
   108    12    13    1
   109    40    35   am
   110    40    41    1
   111    35    36    2
   112    13    14    1
   113    43    42    2
   114    41    42    1
   115    48    45    1
   116    14    15    1
   117    46    47    2
   118    46    45    1
   119    45    44    1
   120    15    16    2
   121    16    17    1
   122    16    18    1
