@<TRIPOS>MOLECULE
tmp/4r68A02.pdb
 161 153 0 0 0
SMALL
GASTEIGER

@<TRIPOS>ATOM
      1  N         36.1350    8.1470   19.0990 N.3    30  VAL30      -0.1245
      2  CA        34.9930    8.9200   19.5780 C.3    30  VAL30       0.1561
      3  C         33.7710    8.7550   18.6580 C.2    30  VAL30       0.2260
      4  O         32.6690    8.4180   19.1170 O.2    30  VAL30      -0.2867
      5  CB        35.3810   10.4060   19.7220 C.3    30  VAL30       0.0252
      6  CG1       34.1870   11.2540   20.1280 C.3    30  VAL30       0.0019
      7  CG2       36.5170   10.5500   20.7180 C.3    30  VAL30       0.0019
      8  N         46.8210   16.0260   17.4630 N.3    99  GLN99      -0.1245
      9  CA        47.6970   16.9710   18.1530 C.3    99  GLN99       0.1566
     10  C         49.1010   16.3830   18.2560 C.2    99  GLN99       0.2260
     11  O         49.2950   15.2940   18.8030 O.2    99  GLN99      -0.2867
     12  CB        47.1510   17.2900   19.5470 C.3    99  GLN99       0.0367
     13  CG        48.0120   18.2320   20.3920 C.3    99  GLN99       0.0905
     14  CD        47.5280   18.3400   21.8360 C.2    99  GLN99       0.2608
     15  OE1       47.0360   19.3900   22.2640 O.2    99  GLN99      -0.2717
     16  NE2       47.6680   17.2510   22.5940 N.am   99  GLN99      -0.0878
     17  N         47.9770   23.8650   22.2110 N.3   105  ARG105     -0.1245
     18  CA        46.5430   23.6990   22.0170 C.3   105  ARG105      0.1563
     19  C         46.0170   24.9290   21.2640 C.2   105  ARG105      0.2260
     20  O         44.9660   24.8770   20.6230 O.2   105  ARG105     -0.2867
     21  CB        45.8210   23.4770   23.3580 C.3   105  ARG105      0.0307
     22  CG        45.1260   22.1160   23.4610 C.3   105  ARG105      0.0489
     23  CD        45.4550   21.3480   24.7450 C.3   105  ARG105      0.2205
     24  NE        44.6580   21.8010   25.8870 N.pl3 105  ARG105     -0.0865
     25  CZ        44.4260   21.0780   26.9830 C.cat 105  ARG105      0.5346
     26  NH1       44.9170   19.8500   27.0980 N.pl3 105  ARG105      0.1354
     27  NH2       43.6960   21.5880   27.9670 N.pl3 105  ARG105      0.1354
     28  N         46.4800   24.2980   17.5440 N.3   108  LEU108     -0.1245
     29  CA        45.6740   23.1140   17.3020 C.3   108  LEU108      0.1561
     30  C         44.2900   23.5750   16.8630 C.2   108  LEU108      0.2260
     31  O         43.7170   23.0320   15.9230 O.2   108  LEU108     -0.2867
     32  CB        45.5600   22.2400   18.5460 C.3   108  LEU108      0.0270
     33  CG        44.5830   21.0690   18.3580 C.3   108  LEU108      0.0019
     34  CD1       45.0320   20.1500   17.2340 C.3   108  LEU108      0.0001
     35  CD2       44.3860   20.2780   19.6380 C.3   108  LEU108      0.0001
     36  N         37.5100   18.9210   19.7530 N.3   137  ASN137     -0.1226
     37  CA        38.1420   19.8500   20.6970 C.3   137  ASN137      0.1770
     38  C         38.9620   20.9390   20.0180 C.2   137  ASN137      0.2439
     39  O         39.4720   20.7250   18.9180 O.2   137  ASN137     -0.2733
     40  CB        39.0190   19.0840   21.6990 C.3   137  ASN137      0.1168
     41  CG        38.2620   18.7030   22.9530 C.2   137  ASN137      0.2627
     42  OD1       37.4100   19.4590   23.4250 O.2   137  ASN137     -0.2716
     43  ND2       38.5570   17.5180   23.4940 N.am  137  ASN137     -0.0877
     44  N         39.1100   22.1040   20.6770 N.am  138  PRO138     -0.2729
     45  CA        38.4520   22.4310   21.9490 C.3   138  PRO138      0.1401
     46  C         36.9980   22.7720   21.7020 C.2   138  PRO138      0.2269
     47  O         36.6870   23.6720   20.9180 O.2   138  PRO138     -0.2865
     48  CB        39.2390   23.6380   22.4780 C.3   138  PRO138      0.0296
     49  CG        39.9470   24.1930   21.2980 C.3   138  PRO138      0.0237
     50  CD        40.1460   23.0910   20.3040 C.3   138  PRO138      0.0939
     51  N         30.4130   15.4200   29.3430 N.3   164  LEU164     -0.1231
     52  CA        31.3040   14.3630   29.8170 C.3   164  LEU164      0.1693
     53  C         31.8980   14.6420   31.2040 C.2   164  LEU164      0.2592
     54  O         31.9640   13.7440   32.0450 O.2   164  LEU164     -0.2718
     55  CB        32.4060   14.0640   28.8040 C.3   164  LEU164      0.0284
     56  CG        33.4140   13.0100   29.2600 C.3   164  LEU164      0.0019
     57  CD1       32.7250   11.6850   29.6320 C.3   164  LEU164      0.0001
     58  CD2       34.4750   12.8000   28.1940 C.3   164  LEU164      0.0001
     59  N         32.3320   15.8760   31.4310 N.am  165  ASP165     -0.1974
     60  CA        32.8450   16.2810   32.7300 C.3   165  ASP165      0.1709
     61  C         31.8320   15.9630   33.8390 C.2   165  ASP165      0.2293
     62  O         32.1780   15.3700   34.8600 O.2   165  ASP165     -0.2864
     63  CB        33.1550   17.7810   32.7370 C.3   165  ASP165      0.1436
     64  CG        33.7840   18.2640   31.4320 C.2   165  ASP165      0.3671
     65  OD1       34.8480   18.9170   31.4960 O.co2 165  ASP165     -0.2456
     66  OD2       33.2000   18.0310   30.3520 O.co2 165  ASP165     -0.2456
     67  N         31.4890   12.1890   34.4960 N.3   168  ARG168     -0.1245
     68  CA        32.6180   11.6900   35.2680 C.3   168  ARG168      0.1563
     69  C         32.4550   12.0880   36.7320 C.2   168  ARG168      0.2260
     70  O         32.6790   11.2890   37.6390 O.2   168  ARG168     -0.2867
     71  CB        33.9240   12.2480   34.7140 C.3   168  ARG168      0.0307
     72  CG        34.3230   11.6200   33.3960 C.3   168  ARG168      0.0489
     73  CD        35.7820   11.9160   33.0580 C.3   168  ARG168      0.2205
     74  NE        36.2380   11.1160   31.9230 N.pl3 168  ARG168     -0.0865
     75  CZ        37.0070   11.5700   30.9390 C.cat 168  ARG168      0.5346
     76  NH1       37.3700   10.7500   29.9600 N.pl3 168  ARG168      0.1354
     77  NH2       37.4140   12.8350   30.9300 N.pl3 168  ARG168      0.1354
     78  N         34.5350   23.4280   28.9690 N.3   192  HIS192     -0.1226
     79  CA        34.8620   22.0160   29.0250 C.3   192  HIS192      0.1752
     80  C         36.3420   21.8170   29.3370 C.2   192  HIS192      0.2597
     81  O         37.1960   22.5250   28.8120 O.2   192  HIS192     -0.2718
     82  CB        34.4890   21.3660   27.6910 C.3   192  HIS192      0.0759
     83  CG        35.0770   20.0110   27.4860 C.ar  192  HIS192      0.0818
     84  ND1       34.7090   18.9130   28.2400 N.ar  192  HIS192     -0.2268
     85  CD2       36.0020   19.5630   26.6040 C.ar  192  HIS192      0.1154
     86  CE1       35.3860   17.8560   27.8320 C.ar  192  HIS192      0.1986
     87  NE2       36.1780   18.2220   26.8360 N.ar  192  HIS192     -0.2212
     88  N         36.6460   20.8710   30.2170 N.am  193  GLY193     -0.1942
     89  CA        38.0250   20.4830   30.4310 C.3   193  GLY193      0.2014
     90  C         38.6810   21.0530   31.6760 C.2   193  GLY193      0.2638
     91  O         38.0610   21.1190   32.7470 O.2   193  GLY193     -0.2714
     92  N         39.9460   21.4480   31.5310 N.am  194  ASP194     -0.1971
     93  CA        40.7410   21.9810   32.6340 C.3   194  ASP194      0.1709
     94  C         40.0020   23.0450   33.4580 C.2   194  ASP194      0.2293
     95  O         39.9970   22.9910   34.6850 O.2   194  ASP194     -0.2864
     96  CB        42.0550   22.5770   32.1070 C.3   194  ASP194      0.1436
     97  CG        42.9750   21.5370   31.4880 C.2   194  ASP194      0.3671
     98  OD1       42.9810   20.3750   31.9410 O.co2 194  ASP194     -0.2456
     99  OD2       43.7110   21.8970   30.5490 O.co2 194  ASP194     -0.2456
    100  N         38.1560   14.4460   38.0310 N.3   233  VAL233     -0.1231
    101  CA        37.5480   14.5260   36.7190 C.3   233  VAL233      0.1692
    102  C         38.5800   14.9740   35.6960 C.2   233  VAL233      0.2591
    103  O         38.7560   14.3260   34.6600 O.2   233  VAL233     -0.2718
    104  CB        36.3750   15.5090   36.6890 C.3   233  VAL233      0.0266
    105  CG1       36.0040   15.8140   35.2630 C.3   233  VAL233      0.0020
    106  CG2       35.1920   14.9490   37.4690 C.3   233  VAL233      0.0020
    107  N         39.2760   16.0750   35.9670 N.am  234  VAL234     -0.1980
    108  CA        40.2380   16.5220   34.9630 C.3   234  VAL234      0.1595
    109  C         41.4770   15.6380   34.9280 C.2   234  VAL234      0.2287
    110  O         42.0070   15.3680   33.8520 O.2   234  VAL234     -0.2864
    111  CB        40.5870   18.0340   35.0060 C.3   234  VAL234      0.0276
    112  CG1       39.4970   18.8370   35.6990 C.3   234  VAL234      0.0022
    113  CG2       41.9740   18.2710   35.5900 C.3   234  VAL234      0.0022
    114  N         41.0520   12.4490   32.8090 N.3   237  ALA237     -0.1231
    115  CA        41.1450   12.6290   31.3650 C.3   237  ALA237      0.1694
    116  C         42.5680   12.3280   30.8730 C.2   237  ALA237      0.2592
    117  O         42.7820   11.4840   29.9880 O.2   237  ALA237     -0.2718
    118  CB        40.7390   14.0320   30.9860 C.3   237  ALA237      0.0304
    119  N         43.5430   13.0200   31.4550 N.am  238  TYR238     -0.1976
    120  CA        44.9380   12.7910   31.1100 C.3   238  TYR238      0.1639
    121  C         45.3430   11.3620   31.4500 C.2   238  TYR238      0.2290
    122  O         46.1680   10.7660   30.7620 O.2   238  TYR238     -0.2864
    123  CB        45.8370   13.8020   31.8340 C.3   238  TYR238      0.0560
    124  CG        45.5180   15.2290   31.4600 C.ar  238  TYR238     -0.0198
    125  CD1       45.8460   15.7210   30.2090 C.ar  238  TYR238     -0.0009
    126  CD2       44.8540   16.0760   32.3420 C.ar  238  TYR238     -0.0009
    127  CE1       45.5520   17.0190   29.8520 C.ar  238  TYR238      0.0417
    128  CE2       44.5470   17.3880   31.9900 C.ar  238  TYR238      0.0417
    129  CZ        44.9020   17.8480   30.7410 C.ar  238  TYR238      0.1957
    130  OH        44.6160   19.1430   30.3650 O.3   238  TYR238     -0.2866
    131  N         44.0890    8.9180   28.7250 N.3   241  ILE241     -0.1245
    132  CA        44.8900    9.0650   27.5070 C.3   241  ILE241      0.1561
    133  C         46.2260    8.3560   27.7150 C.2   241  ILE241      0.2260
    134  O         46.6940    7.6380   26.8390 O.2   241  ILE241     -0.2867
    135  CB        45.1180   10.5450   27.0940 C.3   241  ILE241      0.0252
    136  CG1       43.7830   11.2550   26.8540 C.3   241  ILE241      0.0019
    137  CG2       45.9720   10.6210   25.8290 C.3   241  ILE241      0.0019
    138  CD1       42.9400   10.5620   25.8160 C.3   241  ILE241      0.0001
    139  N         45.4720    5.4200   25.4420 N.3   245  GLY245     -0.1210
    140  CA        45.8310    6.1530   24.2400 C.3   245  GLY245      0.1956
    141  C         44.7560    7.0470   23.6570 C.2   245  GLY245      0.2612
    142  O         45.0280    7.8400   22.7530 O.2   245  GLY245     -0.2717
    143  N         43.5390    6.9250   24.1770 N.am  246  TYR246     -0.1962
    144  CA        42.4010    7.6920   23.6820 C.3   246  TYR246      0.1771
    145  C         41.2070    7.4360   24.5940 C.2   246  TYR246      0.2620
    146  O         41.2410    6.5110   25.3910 O.2   246  TYR246     -0.2715
    147  CB        42.0810    7.2890   22.2380 C.3   246  TYR246      0.0574
    148  CG        41.7220    5.8300   22.0750 C.ar  246  TYR246     -0.0198
    149  CD1       40.3930    5.4140   22.1140 C.ar  246  TYR246     -0.0009
    150  CD2       42.7040    4.8680   21.8890 C.ar  246  TYR246     -0.0009
    151  CE1       40.0440    4.0780   21.9680 C.ar  246  TYR246      0.0417
    152  CE2       42.3720    3.5280   21.7390 C.ar  246  TYR246      0.0417
    153  CZ        41.0400    3.1380   21.7850 C.ar  246  TYR246      0.1957
    154  OH        40.7150    1.8150   21.6390 O.3   246  TYR246     -0.2866
    155  N         40.1680    8.2680   24.5040 N.am  247  THR247     -0.1951
    156  CA        38.9200    8.0090   25.2130 C.3   247  THR247      0.1897
    157  C         37.8330    7.6950   24.1910 C.2   247  THR247      0.2313
    158  O         37.8340    8.2160   23.0760 O.2   247  THR247     -0.2863
    159  CB        38.4400    9.2120   26.0700 C.3   247  THR247      0.1794
    160  OG1       38.3120   10.3730   25.2430 O.3   247  THR247     -0.2208
    161  CG2       39.4050    9.5210   27.1910 C.3   247  THR247      0.0378
@<TRIPOS>BOND
     1    31    30    2
     2    30    29    1
     3    34    33    1
     4    29    28    1
     5    29    32    1
     6     8     9    1
     7     9    10    1
     8     9    12    1
     9    10    11    2
    10    33    32    1
    11    33    35    1
    12     3     4    2
    13     3     2    1
    14    39    38    2
    15     1     2    1
    16    12    13    1
    17     2     5    1
    18     5     6    1
    19     5     7    1
    20    36    37    1
    21    38    44   am
    22    38    37    1
    23    50    44    1
    24    50    49    1
    25    13    14    1
    26    20    19    2
    27    44    45    1
    28    37    40    1
    29    47    46    2
    30    19    18    1
    31    49    48    1
    32   154   153    1
    33    40    41    1
    34    46    45    1
    35   152   153   ar
    36   152   150   ar
    37   153   151   ar
    38    14    15    2
    39    14    16   am
    40   150   148   ar
    41    45    48    1
    42   151   149   ar
    43    18    17    1
    44    18    21    1
    45   148   149   ar
    46   148   147    1
    47   147   144    1
    48   142   141    2
    49    41    42    2
    50    41    43   am
    51   158   157    2
    52    21    22    1
    53    22    23    1
    54   141   143   am
    55   141   140    1
    56   144   143    1
    57   144   145    1
    58   157   156    1
    59   140   139    1
    60   155   145   am
    61   155   156    1
    62   145   146    2
    63    23    24    1
    64   156   159    1
    65   160   159    1
    66   138   136    1
    67   137   135    1
    68    24    25    2
    69   159   161    1
    70    85    87   ar
    71    85    83   ar
    72    87    86   ar
    73   134   133    2
    74   136   135    1
    75    25    26    1
    76    25    27    1
    77   135   132    1
    78    83    82    1
    79    83    84   ar
    80   132   133    1
    81   132   131    1
    82    82    79    1
    83    86    84   ar
    84    58    56    1
    85    55    56    1
    86    55    52    1
    87    81    80    2
    88    78    79    1
    89    79    80    1
    90    56    57    1
    91    80    88   am
    92    51    52    1
    93    52    53    1
    94   127   125   ar
    95   127   129   ar
    96    76    75    1
    97   117   116    2
    98   125   124   ar
    99    88    89    1
   100    66    64   ar
   101   130   129    1
   102    89    90    1
   103    99    97   ar
   104   129   128   ar
   105   122   121    2
   106   116   115    1
   107   116   119   am
   108    77    75    1
   109    75    74    2
   110   118   115    1
   111   120   121    1
   112   120   119    1
   113   120   123    1
   114    53    59   am
   115    53    54    2
   116   115   114    1
   117    59    60    1
   118    64    65   ar
   119    64    63    1
   120   124   123    1
   121   124   126   ar
   122    97    98   ar
   123    97    96    1
   124    92    90   am
   125    92    93    1
   126    90    91    2
   127    74    73    1
   128   128   126   ar
   129    96    93    1
   130    93    94    1
   131    60    63    1
   132    60    61    1
   133    73    72    1
   134    72    71    1
   135    94    95    2
   136    61    62    2
   137   110   109    2
   138    67    68    1
   139   103   102    2
   140    71    68    1
   141   109   108    1
   142   108   111    1
   143   108   107    1
   144   111   113    1
   145   111   112    1
   146   105   104    1
   147    68    69    1
   148   102   107   am
   149   102   101    1
   150   104   101    1
   151   104   106    1
   152   101   100    1
   153    69    70    2
