@<TRIPOS>MOLECULE
tmp/4r69A02.pdb
 146 139 0 0 0
SMALL
GASTEIGER

@<TRIPOS>ATOM
      1  N         36.8120    8.1460   18.9370 N.3    30  VAL30      -0.1245
      2  CA        35.6440    8.8140   19.5230 C.3    30  VAL30       0.1561
      3  C         34.4030    8.5880   18.6350 C.2    30  VAL30       0.2260
      4  O         33.3830    8.1040   19.1310 O.2    30  VAL30      -0.2867
      5  CB        35.9180   10.3220   19.8050 C.3    30  VAL30       0.0252
      6  CG1       34.6540   11.0500   20.2540 C.3    30  VAL30       0.0019
      7  CG2       37.0260   10.4940   20.8370 C.3    30  VAL30       0.0019
      8  N         43.7960   13.3790   17.7260 N.3    98  ARG98      -0.1231
      9  CA        43.9340   13.5430   19.1710 C.3    98  ARG98       0.1694
     10  C         44.6810   14.8330   19.6040 C.2    98  ARG98       0.2591
     11  O         44.0260   15.7340   20.1420 O.2    98  ARG98      -0.2718
     12  CB        44.5580   12.2820   19.7880 C.3    98  ARG98       0.0321
     13  CG        43.5280   11.1850   20.0050 C.3    98  ARG98       0.0489
     14  CD        44.1600    9.8200   20.0880 C.3    98  ARG98       0.2205
     15  NE        43.2750    8.8050   19.5220 N.pl3  98  ARG98      -0.0865
     16  CZ        43.6950    7.7480   18.8350 C.cat  98  ARG98       0.5346
     17  NH1       44.9910    7.5570   18.6230 N.pl3  98  ARG98       0.1354
     18  NH2       42.8210    6.8760   18.3510 N.pl3  98  ARG98       0.1354
     19  N         46.0300   14.9000   19.4130 N.am   99  GLN99      -0.1979
     20  CA        46.9190   16.0240   19.7670 C.3    99  GLN99       0.1601
     21  C         48.3930   15.6030   19.6480 C.2    99  GLN99       0.2287
     22  O         48.8990   14.8150   20.4540 O.2    99  GLN99      -0.2864
     23  CB        46.6410   16.5670   21.1880 C.3    99  GLN99       0.0394
     24  CG        46.7660   18.0850   21.2980 C.3    99  GLN99       0.0908
     25  CD        46.2140   18.6320   22.5970 C.2    99  GLN99       0.2608
     26  OE1       45.0600   18.3890   22.9700 O.2    99  GLN99      -0.2717
     27  NE2       47.0100   19.4320   23.2920 N.am   99  GLN99      -0.0878
     28  N         38.1000   18.6740   19.7050 N.3   131  ASN131     -0.1240
     29  CA        38.7160   19.6470   20.6140 C.3   131  ASN131      0.1653
     30  C         39.5600   20.7390   19.9480 C.2   131  ASN131      0.2266
     31  O         40.1940   20.4650   18.9310 O.2   131  ASN131     -0.2867
     32  CB        39.5380   18.9410   21.6860 C.3   131  ASN131      0.1155
     33  CG        38.7350   18.5720   22.8990 C.2   131  ASN131      0.2627
     34  OD1       37.9700   19.3710   23.4470 O.2   131  ASN131     -0.2716
     35  ND2       38.9310   17.3630   23.3670 N.am  131  ASN131     -0.0877
     36  N         30.9740   15.1430   29.4330 N.3   158  LEU158     -0.1231
     37  CA        31.8930   14.0840   29.8650 C.3   158  LEU158      0.1693
     38  C         32.5400   14.4320   31.2220 C.2   158  LEU158      0.2592
     39  O         32.7490   13.5430   32.0510 O.2   158  LEU158     -0.2718
     40  CB        32.9760   13.8370   28.7940 C.3   158  LEU158      0.0284
     41  CG        34.1140   12.8460   29.1290 C.3   158  LEU158      0.0019
     42  CD1       33.6040   11.4410   29.3200 C.3   158  LEU158      0.0001
     43  CD2       35.1500   12.8440   28.0550 C.3   158  LEU158      0.0001
     44  N         32.8410   15.7280   31.4400 N.am  159  ASP159     -0.1974
     45  CA        33.4260   16.2420   32.6800 C.3   159  ASP159      0.1709
     46  C         32.4880   15.9550   33.8500 C.2   159  ASP159      0.2293
     47  O         32.9340   15.4460   34.8780 O.2   159  ASP159     -0.2864
     48  CB        33.6890   17.7540   32.5840 C.3   159  ASP159      0.1436
     49  CG        34.4960   18.2010   31.3900 C.2   159  ASP159      0.3671
     50  OD1       34.0760   17.9110   30.2550 O.co2 159  ASP159     -0.2456
     51  OD2       35.5180   18.9020   31.5920 O.co2 159  ASP159     -0.2456
     52  N         32.1680   12.1420   34.4390 N.3   162  ARG162     -0.1245
     53  CA        33.3340   11.6480   35.1690 C.3   162  ARG162      0.1563
     54  C         33.2450   12.0460   36.6350 C.2   162  ARG162      0.2260
     55  O         33.5890   11.2480   37.5040 O.2   162  ARG162     -0.2867
     56  CB        34.6310   12.1870   34.5510 C.3   162  ARG162      0.0307
     57  CG        35.1050   11.3790   33.3640 C.3   162  ARG162      0.0489
     58  CD        36.3860   11.9310   32.7900 C.3   162  ARG162      0.2205
     59  NE        36.9280   11.0280   31.7730 N.pl3 162  ARG162     -0.0865
     60  CZ        37.5890   11.4200   30.6890 C.cat 162  ARG162      0.5346
     61  NH1       38.0390   10.5270   29.8230 N.pl3 162  ARG162      0.1354
     62  NH2       37.8010   12.7090   30.4610 N.pl3 162  ARG162      0.1354
     63  N         35.3830   23.2930   28.8240 N.3   186  HIS186     -0.1226
     64  CA        35.6780   21.8600   28.8740 C.3   186  HIS186      0.1752
     65  C         37.1820   21.6330   29.0060 C.2   186  HIS186      0.2597
     66  O         37.9690   22.2870   28.3170 O.2   186  HIS186     -0.2718
     67  CB        35.1380   21.1340   27.6270 C.3   186  HIS186      0.0759
     68  CG        35.8020   19.8120   27.3570 C.ar  186  HIS186      0.0818
     69  ND1       35.5450   18.7100   28.1400 N.ar  186  HIS186     -0.2268
     70  CD2       36.7330   19.4770   26.4310 C.ar  186  HIS186      0.1154
     71  CE1       36.3010   17.7380   27.6610 C.ar  186  HIS186      0.1986
     72  NE2       37.0290   18.1490   26.6290 N.ar  186  HIS186     -0.2212
     73  N         37.5550   20.7020   29.8740 N.am  187  GLY187     -0.1942
     74  CA        38.9480   20.3460   30.0830 C.3   187  GLY187      0.2014
     75  C         39.4840   20.7330   31.4370 C.2   187  GLY187      0.2638
     76  O         38.8290   20.5080   32.4590 O.2   187  GLY187     -0.2714
     77  N         40.7010   21.2890   31.4380 N.am  188  ASP188     -0.1971
     78  CA        41.4380   21.7060   32.6330 C.3   188  ASP188      0.1709
     79  C         40.7790   22.8800   33.3510 C.2   188  ASP188      0.2293
     80  O         40.6830   22.8790   34.5790 O.2   188  ASP188     -0.2864
     81  CB        42.9030   22.0480   32.2710 C.3   188  ASP188      0.1436
     82  CG        43.6370   21.0260   31.4120 C.2   188  ASP188      0.3671
     83  OD1       43.1380   19.8850   31.2790 O.co2 188  ASP188     -0.2456
     84  OD2       44.7070   21.3680   30.8700 O.co2 188  ASP188     -0.2456
     85  N         39.0340   14.3560   37.8420 N.3   227  VAL227     -0.1231
     86  CA        38.3400   14.4090   36.5440 C.3   227  VAL227      0.1692
     87  C         39.3930   14.7790   35.4840 C.2   227  VAL227      0.2591
     88  O         39.4700   14.1330   34.4320 O.2   227  VAL227     -0.2718
     89  CB        37.1390   15.4060   36.5330 C.3   227  VAL227      0.0266
     90  CG1       36.4770   15.4810   35.1590 C.3   227  VAL227      0.0020
     91  CG2       36.1060   15.0490   37.5900 C.3   227  VAL227      0.0020
     92  N         40.2300   15.7860   35.7990 N.am  228  VAL228     -0.1980
     93  CA        41.3060   16.2660   34.9290 C.3   228  VAL228      0.1595
     94  C         42.4320   15.2270   34.8470 C.2   228  VAL228      0.2287
     95  O         42.8150   14.8440   33.7420 O.2   228  VAL228     -0.2864
     96  CB        41.8010   17.6880   35.3240 C.3   228  VAL228      0.0276
     97  CG1       42.9220   18.1650   34.4000 C.3   228  VAL228      0.0022
     98  CG2       40.6450   18.6920   35.3260 C.3   228  VAL228      0.0022
     99  N         41.5580   11.9580   32.7780 N.3   231  ALA231     -0.1231
    100  CA        41.5550   12.2260   31.3460 C.3   231  ALA231      0.1694
    101  C         42.9320   11.9540   30.7360 C.2   231  ALA231      0.2592
    102  O         43.0330   11.1790   29.7850 O.2   231  ALA231     -0.2718
    103  CB        41.1370   13.6560   31.0990 C.3   231  ALA231      0.0304
    104  N         43.9870   12.5220   31.3420 N.am  232  TYR232     -0.1976
    105  CA        45.3720   12.3560   30.9130 C.3   232  TYR232      0.1639
    106  C         45.9020   10.9530   31.2330 C.2   232  TYR232      0.2290
    107  O         46.7440   10.4410   30.4890 O.2   232  TYR232     -0.2864
    108  CB        46.2600   13.4600   31.5240 C.3   232  TYR232      0.0560
    109  CG        45.9110   14.8470   31.0240 C.ar  232  TYR232     -0.0198
    110  CD1       46.3960   15.3140   29.8070 C.ar  232  TYR232     -0.0009
    111  CD2       45.0770   15.6870   31.7590 C.ar  232  TYR232     -0.0009
    112  CE1       46.0630   16.5850   29.3340 C.ar  232  TYR232      0.0417
    113  CE2       44.7220   16.9530   31.2870 C.ar  232  TYR232      0.0417
    114  CZ        45.2150   17.3960   30.0710 C.ar  232  TYR232      0.1957
    115  OH        44.8840   18.6450   29.6020 O.3   232  TYR232     -0.2866
    116  N         44.7490    8.4160   28.6260 N.3   235  ILE235     -0.1245
    117  CA        45.5950    8.7110   27.4670 C.3   235  ILE235      0.1561
    118  C         46.9780    8.0570   27.6420 C.2   235  ILE235      0.2260
    119  O         47.5090    7.4910   26.6830 O.2   235  ILE235     -0.2867
    120  CB        45.6570   10.2520   27.2220 C.3   235  ILE235      0.0252
    121  CG1       44.2900   10.8190   26.7750 C.3   235  ILE235      0.0019
    122  CG2       46.7860   10.6800   26.2680 C.3   235  ILE235      0.0019
    123  CD1       43.6510   10.1780   25.5500 C.3   235  ILE235      0.0001
    124  N         46.1070    5.1130   25.3550 N.3   239  GLY239     -0.1210
    125  CA        46.4680    5.9370   24.2020 C.3   239  GLY239      0.1956
    126  C         45.3800    6.8390   23.6520 C.2   239  GLY239      0.2612
    127  O         45.6700    7.7560   22.8790 O.2   239  GLY239     -0.2717
    128  N         44.1180    6.5780   24.0360 N.am  240  TYR240     -0.1962
    129  CA        42.9420    7.3220   23.5840 C.3   240  TYR240      0.1771
    130  C         41.7900    7.1850   24.5900 C.2   240  TYR240      0.2620
    131  O         41.9430    6.5000   25.6000 O.2   240  TYR240     -0.2715
    132  CB        42.5210    6.8400   22.1730 C.3   240  TYR240      0.0574
    133  CG        42.0140    5.4150   22.1030 C.ar  240  TYR240     -0.0198
    134  CD1       42.8960    4.3420   22.0130 C.ar  240  TYR240     -0.0009
    135  CD2       40.6500    5.1400   22.0750 C.ar  240  TYR240     -0.0009
    136  CE1       42.4330    3.0260   21.9370 C.ar  240  TYR240      0.0417
    137  CE2       40.1750    3.8320   21.9690 C.ar  240  TYR240      0.0417
    138  CZ        41.0700    2.7770   21.9100 C.ar  240  TYR240      0.1957
    139  OH        40.6030    1.4890   21.8240 O.3   240  TYR240     -0.2866
    140  N         40.6580    7.8560   24.3230 N.am  241  THR241     -0.1951
    141  CA        39.4210    7.7450   25.0960 C.3   241  THR241      0.1897
    142  C         38.2870    7.5480   24.1060 C.2   241  THR241      0.2313
    143  O         38.2240    8.2740   23.1100 O.2   241  THR241     -0.2863
    144  CB        39.2100    8.8750   26.1210 C.3   241  THR241      0.1794
    145  OG1       38.0590    8.5600   26.9020 O.3   241  THR241     -0.2208
    146  CG2       39.0440   10.2430   25.4970 C.3   241  THR241      0.0378
@<TRIPOS>BOND
     1     8     9    1
     2    18    16    1
     3    17    16    1
     4     3     4    2
     5     3     2    1
     6    16    15    2
     7    31    30    2
     8     1     2    1
     9     9    10    1
    10     9    12    1
    11    19    10   am
    12    19    20    1
    13    15    14    1
    14     2     5    1
    15    10    11    2
    16    21    20    1
    17    21    22    2
    18    28    29    1
    19    20    23    1
    20    12    13    1
    21     5     6    1
    22     5     7    1
    23    30    29    1
    24    13    14    1
    25    29    32    1
    26    23    24    1
    27    24    25    1
    28    32    33    1
    29   139   138    1
    30   138   136   ar
    31   138   137   ar
    32   136   134   ar
    33   137   135   ar
    34   134   133   ar
    35   135   133   ar
    36   133   132    1
    37   132   129    1
    38    25    26    2
    39    25    27   am
    40   127   126    2
    41    33    35   am
    42    33    34    2
    43   143   142    2
    44   129   128    1
    45   129   130    1
    46   126   128   am
    47   126   125    1
    48   142   141    1
    49   125   124    1
    50   140   130   am
    51   140   141    1
    52   130   131    2
    53   141   144    1
    54   146   144    1
    55   123   121    1
    56   144   145    1
    57   122   120    1
    58    70    72   ar
    59    70    68   ar
    60    72    71   ar
    61   119   118    2
    62   121   120    1
    63   120   117    1
    64    68    67    1
    65    68    69   ar
    66   117   118    1
    67   117   116    1
    68    67    64    1
    69    71    69   ar
    70    43    41    1
    71    66    65    2
    72    40    41    1
    73    40    37    1
    74    63    64    1
    75    64    65    1
    76    65    73   am
    77    41    42    1
    78   112   110   ar
    79   112   114   ar
    80    36    37    1
    81   115   114    1
    82   102   101    2
    83   110   109   ar
    84    61    60    1
    85    37    38    1
    86    73    74    1
    87   114   113   ar
    88    74    75    1
    89    50    49   ar
    90    62    60    1
    91   107   106    2
    92    60    59    2
    93   101   104   am
    94   101   100    1
    95    84    82   ar
    96   105   106    1
    97   105   104    1
    98   105   108    1
    99   109   108    1
   100   109   111   ar
   101   103   100    1
   102    38    44   am
   103    38    39    2
   104    83    82   ar
   105   113   111   ar
   106   100    99    1
   107    49    51   ar
   108    49    48    1
   109    82    81    1
   110    75    77   am
   111    75    76    2
   112    77    78    1
   113    44    45    1
   114    59    58    1
   115    81    78    1
   116    48    45    1
   117    78    79    1
   118    45    46    1
   119    58    57    1
   120    79    80    2
   121    57    56    1
   122    95    94    2
   123    46    47    2
   124    97    96    1
   125    88    87    2
   126    52    53    1
   127    56    53    1
   128    94    93    1
   129    93    96    1
   130    93    92    1
   131    90    89    1
   132    53    54    1
   133    96    98    1
   134    87    92   am
   135    87    86    1
   136    89    86    1
   137    89    91    1
   138    86    85    1
   139    54    55    2
