@<TRIPOS>MOLECULE
tmp/4r6aB01.pdb
 122 119 0 0 0
SMALL
GASTEIGER

@<TRIPOS>ATOM
      1  N        -27.3580  -34.1170    7.6880 N.3   216  PHE216     -0.1227
      2  CA       -26.2090  -33.3380    7.3010 C.3   216  PHE216      0.1736
      3  C        -26.1220  -32.0230    8.0650 C.2   216  PHE216      0.2595
      4  O        -27.0780  -31.2430    8.1280 O.2   216  PHE216     -0.2718
      5  CB       -26.1510  -33.1010    5.7890 C.3   216  PHE216      0.0547
      6  CG       -25.0860  -32.1450    5.3910 C.ar  216  PHE216     -0.0202
      7  CD1      -23.7540  -32.4850    5.5320 C.ar  216  PHE216     -0.0042
      8  CD2      -25.4020  -30.8990    4.9180 C.ar  216  PHE216     -0.0042
      9  CE1      -22.7520  -31.6070    5.1690 C.ar  216  PHE216     -0.0003
     10  CE2      -24.4210  -30.0230    4.5230 C.ar  216  PHE216     -0.0003
     11  CZ       -23.0840  -30.3620    4.6640 C.ar  216  PHE216     -0.0000
     12  N        -24.9520  -31.7660    8.6450 N.am  217  ASN217     -0.1974
     13  CA       -24.7210  -30.5350    9.3920 C.3   217  ASN217      0.1688
     14  C        -25.6490  -30.3750   10.6200 C.2   217  ASN217      0.2292
     15  O        -25.9950  -29.2790   11.0310 O.2   217  ASN217     -0.2864
     16  CB       -24.8330  -29.3060    8.4590 C.3   217  ASN217      0.1181
     17  CG       -24.1890  -28.0490    9.0720 C.2   217  ASN217      0.2629
     18  OD1      -23.1340  -28.1280    9.7150 O.2   217  ASN217     -0.2716
     19  ND2      -24.8660  -26.9100    8.9440 N.am  217  ASN217     -0.0877
     20  N        -34.8800  -24.7540    4.6630 N.3   301  PHE301     -0.1241
     21  CA       -33.7480  -25.6520    4.7210 C.3   301  PHE301      0.1605
     22  C        -34.0050  -26.9190    3.9750 C.2   301  PHE301      0.2264
     23  O        -33.7720  -27.9960    4.4920 O.2   301  PHE301     -0.2867
     24  CB       -33.3100  -25.9360    6.1600 C.3   301  PHE301      0.0534
     25  CG       -32.7330  -24.7430    6.8350 C.ar  301  PHE301     -0.0203
     26  CD1      -31.4190  -24.3830    6.6030 C.ar  301  PHE301     -0.0042
     27  CD2      -33.5160  -23.9510    7.6600 C.ar  301  PHE301     -0.0042
     28  CE1      -30.8670  -23.2550    7.1840 C.ar  301  PHE301     -0.0003
     29  CE2      -32.9840  -22.8030    8.2480 C.ar  301  PHE301     -0.0003
     30  CZ       -31.6450  -22.4700    8.0190 C.ar  301  PHE301     -0.0000
     31  N        -32.5130  -26.9390    0.8700 N.3   303  TYR303     -0.1227
     32  CA       -31.3830  -26.9060   -0.0600 C.3   303  TYR303      0.1736
     33  C        -30.8350  -28.2690   -0.4780 C.2   303  TYR303      0.2595
     34  O        -30.7720  -29.2120    0.2950 O.2   303  TYR303     -0.2718
     35  CB       -30.2170  -26.1000    0.5140 C.3   303  TYR303      0.0548
     36  CG       -29.5280  -26.7500    1.6740 C.ar  303  TYR303     -0.0200
     37  CD1      -30.0490  -26.6530    2.9560 C.ar  303  TYR303     -0.0009
     38  CD2      -28.3440  -27.4590    1.4930 C.ar  303  TYR303     -0.0009
     39  CE1      -29.3990  -27.2250    4.0490 C.ar  303  TYR303      0.0417
     40  CE2      -27.6930  -28.0470    2.5560 C.ar  303  TYR303      0.0417
     41  CZ       -28.2200  -27.9300    3.8290 C.ar  303  TYR303      0.1957
     42  OH       -27.5600  -28.5030    4.8930 O.3   303  TYR303     -0.2866
     43  N        -30.4210  -28.3370   -1.7280 N.am  304  ILE304     -0.1966
     44  CA       -29.6520  -29.4680   -2.2180 C.3   304  ILE304      0.1727
     45  C        -28.1810  -29.2640   -1.8860 C.2   304  ILE304      0.2616
     46  O        -27.5740  -28.2800   -2.3040 O.2   304  ILE304     -0.2715
     47  CB       -29.8290  -29.6010   -3.7410 C.3   304  ILE304      0.0290
     48  CG1      -31.2080  -30.1810   -4.0150 C.3   304  ILE304      0.0022
     49  CG2      -28.7130  -30.4750   -4.3520 C.3   304  ILE304      0.0023
     50  CD1      -31.6130  -30.1730   -5.4870 C.3   304  ILE304      0.0001
     51  N        -27.5980  -30.2020   -1.1530 N.am  305  LYS305     -0.1963
     52  CA       -26.2610  -30.0230   -0.6280 C.3   305  LYS305      0.1728
     53  C        -25.2910  -29.8450   -1.7790 C.2   305  LYS305      0.2617
     54  O        -25.3940  -30.5160   -2.7990 O.2   305  LYS305     -0.2715
     55  CB       -25.8730  -31.2110    0.2370 C.3   305  LYS305      0.0311
     56  CG       -24.4760  -31.1220    0.8440 C.3   305  LYS305      0.0038
     57  CD       -24.1510  -32.3780    1.6280 C.3   305  LYS305      0.0206
     58  CE       -22.6540  -32.5700    1.7230 C.3   305  LYS305      0.1093
     59  NZ       -22.3170  -33.9370    2.2150 N.3   305  LYS305     -0.1314
     60  N        -24.3500  -28.9250   -1.6210 N.am  306  GLY306     -0.1940
     61  CA       -23.4810  -28.5480   -2.6980 C.3   306  GLY306      0.2014
     62  C        -24.1060  -27.9650   -3.9200 C.2   306  GLY306      0.2640
     63  O        -23.4480  -27.9080   -4.9360 O.2   306  GLY306     -0.2714
     64  N        -25.3420  -27.4910   -3.8440 N.am  307  SER307     -0.1935
     65  CA       -25.9580  -26.7970   -4.9870 C.3   307  SER307      0.2055
     66  C        -26.3780  -25.3830   -4.6710 C.2   307  SER307      0.2643
     67  O        -27.1260  -25.1540   -3.7230 O.2   307  SER307     -0.2714
     68  CB       -27.1820  -27.5570   -5.5240 C.3   307  SER307      0.2130
     69  OG       -27.6690  -26.9040   -6.6970 O.3   307  SER307     -0.2179
     70  N        -25.9710  -24.4680   -5.5520 N.am  308  TYR308     -0.1973
     71  CA       -26.1640  -23.0200   -5.4480 C.3   308  TYR308      0.1639
     72  C        -26.7660  -22.5290   -6.7610 C.2   308  TYR308      0.2290
     73  O        -26.1210  -21.7710   -7.4780 O.2   308  TYR308     -0.2864
     74  CB       -24.7890  -22.3310   -5.2860 C.3   308  TYR308      0.0560
     75  CG       -24.7270  -20.8780   -4.7950 C.ar  308  TYR308     -0.0198
     76  CD1      -25.8310  -20.2320   -4.2270 C.ar  308  TYR308     -0.0009
     77  CD2      -23.5200  -20.1790   -4.8100 C.ar  308  TYR308     -0.0009
     78  CE1      -25.7350  -18.9440   -3.7060 C.ar  308  TYR308      0.0417
     79  CE2      -23.4080  -18.8820   -4.2620 C.ar  308  TYR308      0.0417
     80  CZ       -24.5260  -18.2840   -3.7040 C.ar  308  TYR308      0.1957
     81  OH       -24.4780  -17.0160   -3.1740 O.3   308  TYR308     -0.2866
     82  N        -33.0150  -20.9620    3.5090 N.3   331  GLY331     -0.1225
     83  CA       -32.1300  -22.1280    3.2870 C.3   331  GLY331      0.1811
     84  C        -32.4840  -22.9940    2.0990 C.2   331  GLY331      0.2280
     85  O        -32.2910  -24.1990    2.1280 O.2   331  GLY331     -0.2866
     86  N        -31.2930  -21.7750   -0.8670 N.3   333  VAL333     -0.1245
     87  CA       -29.9410  -21.4190   -1.2930 C.3   333  VAL333      0.1561
     88  C        -29.9320  -21.1840   -2.8050 C.2   333  VAL333      0.2260
     89  O        -30.0660  -22.1310   -3.5710 O.2   333  VAL333     -0.2867
     90  CB       -28.8660  -22.4420   -0.9100 C.3   333  VAL333      0.0252
     91  CG1      -27.4990  -21.9340   -1.3470 C.3   333  VAL333      0.0019
     92  CG2      -28.8670  -22.7240    0.6100 C.3   333  VAL333      0.0019
     93  N        -31.3140  -16.4450    4.9790 N.3   358  ILE358     -0.1245
     94  CA       -30.3030  -17.5410    4.8680 C.3   358  ILE358      0.1561
     95  C        -30.3460  -18.3400    3.5620 C.2   358  ILE358      0.2260
     96  O        -30.4150  -19.5440    3.5550 O.2   358  ILE358     -0.2867
     97  CB       -30.3260  -18.4820    6.0740 C.3   358  ILE358      0.0252
     98  CG1      -30.5070  -17.6500    7.3490 C.3   358  ILE358      0.0019
     99  CG2      -28.9840  -19.2250    6.1790 C.3   358  ILE358      0.0019
    100  CD1      -30.7150  -18.4170    8.6310 C.3   358  ILE358      0.0001
    101  N        -28.0410  -17.1180    0.8950 N.3   360  PHE360     -0.1241
    102  CA       -26.8560  -16.6080    0.1400 C.3   360  PHE360      0.1605
    103  C        -27.2900  -15.9580   -1.1790 C.2   360  PHE360      0.2264
    104  O        -26.6030  -16.0340   -2.2050 O.2   360  PHE360     -0.2867
    105  CB       -25.7740  -17.7130   -0.0310 C.3   360  PHE360      0.0534
    106  CG       -25.3200  -18.2700    1.2690 C.ar  360  PHE360     -0.0203
    107  CD1      -26.0000  -19.3240    1.8740 C.ar  360  PHE360     -0.0042
    108  CD2      -24.2610  -17.6920    1.9420 C.ar  360  PHE360     -0.0042
    109  CE1      -25.6430  -19.7580    3.1270 C.ar  360  PHE360     -0.0003
    110  CE2      -23.8970  -18.1310    3.1920 C.ar  360  PHE360     -0.0003
    111  CZ       -24.6100  -19.1520    3.7950 C.ar  360  PHE360     -0.0000
    112  N        -26.5090  -12.3060    1.0070 N.3   384  ARG384     -0.1245
    113  CA       -25.3110  -11.5930    0.5670 C.3   384  ARG384      0.1563
    114  C        -25.6800  -10.4520   -0.3210 C.2   384  ARG384      0.2260
    115  O        -25.0480  -10.2460   -1.3590 O.2   384  ARG384     -0.2867
    116  CB       -24.4280  -12.4720   -0.2890 C.3   384  ARG384      0.0307
    117  CG       -23.9130  -13.7000    0.3640 C.3   384  ARG384      0.0489
    118  CD       -23.3520  -14.5770   -0.7390 C.3   384  ARG384      0.2205
    119  NE       -22.1590  -15.2850   -0.2840 N.pl3 384  ARG384     -0.0865
    120  CZ       -21.3760  -16.0310   -1.0580 C.cat 384  ARG384      0.5346
    121  NH1      -20.3140  -16.6400   -0.5080 N.pl3 384  ARG384      0.1354
    122  NH2      -21.6700  -16.1780   -2.3580 N.pl3 384  ARG384      0.1354
@<TRIPOS>BOND
     1    73    72    2
     2    72    71    1
     3    69    68    1
     4    70    71    1
     5    70    66   am
     6    68    65    1
     7    50    48    1
     8    71    74    1
     9    74    75    1
    10    65    66    1
    11    65    64    1
    12    63    62    2
    13    77    75   ar
    14    77    79   ar
    15    75    76   ar
    16    66    67    2
    17    49    47    1
    18    79    80   ar
    19    76    78   ar
    20    48    47    1
    21    62    64   am
    22    62    61    1
    23    47    44    1
    24    78    80   ar
    25    80    81    1
    26    89    88    2
    27    88    87    1
    28    54    53    2
    29    61    60    1
    30   122   120    1
    31    46    45    2
    32    44    45    1
    33    44    43    1
    34   104   103    2
    35    45    51   am
    36    53    60   am
    37    53    52    1
    38    43    33   am
    39   115   114    2
    40    91    90    1
    41    87    90    1
    42    87    86    1
    43   103   102    1
    44    51    52    1
    45   120   121    1
    46   120   119    2
    47    90    92    1
    48   118   119    1
    49   118   117    1
    50    52    55    1
    51    33    32    1
    52    33    34    2
    53   114   113    1
    54   116   117    1
    55   116   113    1
    56    32    35    1
    57    32    31    1
    58   105   102    1
    59   105   106    1
    60   102   101    1
    61    55    56    1
    62    35    36    1
    63   113   112    1
    64    56    57    1
    65   106   107   ar
    66   106   108   ar
    67    38    36   ar
    68    38    40   ar
    69    57    58    1
    70    36    37   ar
    71    58    59    1
    72   107   109   ar
    73   108   110   ar
    74    84    85    2
    75    84    83    1
    76    40    41   ar
    77    37    39   ar
    78   109   111   ar
    79   110   111   ar
    80    83    82    1
    81    96    95    2
    82    95    94    1
    83    41    39   ar
    84    41    42    1
    85    22    23    2
    86    22    21    1
    87    10    11   ar
    88    10     8   ar
    89    20    21    1
    90    11     9   ar
    91    21    24    1
    92    94    93    1
    93    94    97    1
    94     8     6   ar
    95     9     7   ar
    96     6     7   ar
    97     6     5    1
    98     5     2    1
    99    97    99    1
   100    97    98    1
   101    24    25    1
   102    26    25   ar
   103    26    28   ar
   104    25    27   ar
   105    28    30   ar
   106     2     1    1
   107     2     3    1
   108    98   100    1
   109    27    29   ar
   110    30    29   ar
   111     3     4    2
   112     3    12   am
   113    16    17    1
   114    16    13    1
   115    12    13    1
   116    19    17   am
   117    17    18    2
   118    13    14    1
   119    14    15    2
