@<TRIPOS>MOLECULE
tmp/4r6eA00.pdb
 140 136 0 0 0
SMALL
GASTEIGER

@<TRIPOS>ATOM
      1  N        -59.8470   28.1470   33.9360 N.3    99  GLN99      -0.1245
      2  CA       -60.8580   27.3160   33.2870 C.3    99  GLN99       0.1566
      3  C        -61.4630   26.3070   34.2600 C.2    99  GLN99       0.2260
      4  O        -62.6730   26.1160   34.2470 O.2    99  GLN99      -0.2867
      5  CB       -60.2690   26.5990   32.0660 C.3    99  GLN99       0.0367
      6  CG       -60.8250   27.1460   30.7700 C.3    99  GLN99       0.0905
      7  CD       -60.5260   26.1680   29.6540 C.2    99  GLN99       0.2608
      8  OE1      -61.1960   25.1400   29.4900 O.2    99  GLN99      -0.2717
      9  NE2      -59.5210   26.4750   28.8440 N.am   99  GLN99      -0.0878
     10  N        -63.7070   28.3860   36.4720 N.3   102  ALA102     -0.1231
     11  CA       -64.8930   28.8470   35.7390 C.3   102  ALA102      0.1694
     12  C        -65.8920   27.6920   35.6110 C.2   102  ALA102      0.2591
     13  O        -67.0830   27.9160   35.7440 O.2   102  ALA102     -0.2718
     14  CB       -64.4990   29.3870   34.3670 C.3   102  ALA102      0.0304
     15  N        -65.3890   26.4710   35.3910 N.am  103  GLU103     -0.1979
     16  CA       -66.1950   25.2390   35.3270 C.3   103  GLU103      0.1602
     17  C        -66.8970   25.0120   36.6900 C.2   103  GLU103      0.2287
     18  O        -68.0800   24.7070   36.7270 O.2   103  GLU103     -0.2864
     19  CB       -65.2910   24.0360   34.9760 C.3   103  GLU103      0.0415
     20  CG       -66.0420   22.8460   34.4020 C.3   103  GLU103      0.1163
     21  CD       -65.2160   21.5740   34.2930 C.2   103  GLU103      0.3649
     22  OE1      -64.3650   21.4940   33.3760 O.co2 103  GLU103     -0.2457
     23  OE2      -65.4240   20.6570   35.1230 O.co2 103  GLU103     -0.2457
     24  N        -69.7290   27.6310   37.0360 N.3   106  ASP106     -0.1239
     25  CA       -70.8840   27.2700   36.1910 C.3   106  ASP106      0.1674
     26  C        -71.7660   26.2780   36.9270 C.2   106  ASP106      0.2266
     27  O        -72.9720   26.4380   36.9380 O.2   106  ASP106     -0.2867
     28  CB       -70.4440   26.6390   34.8350 C.3   106  ASP106      0.1410
     29  CG       -69.5950   27.5090   33.9090 C.2   106  ASP106      0.3668
     30  OD1      -69.5880   28.7470   34.0830 O.co2 106  ASP106     -0.2456
     31  OD2      -68.9400   26.9510   33.0150 O.co2 106  ASP106     -0.2456
     32  N        -77.3890   17.5280   24.1050 N.3   202  HIS202     -0.1226
     33  CA       -76.7350   18.4440   25.0420 C.3   202  HIS202      0.1752
     34  C        -76.6250   17.7500   26.3900 C.2   202  HIS202      0.2596
     35  O        -77.6400   17.4570   27.0160 O.2   202  HIS202     -0.2718
     36  CB       -77.4420   19.8000   25.1580 C.3   202  HIS202      0.0759
     37  CG       -76.6930   20.7360   26.0630 C.ar  202  HIS202      0.0818
     38  ND1      -75.7630   21.6220   25.5640 N.ar  202  HIS202     -0.2268
     39  CD2      -76.7230   20.8470   27.4140 C.ar  202  HIS202      0.1154
     40  CE1      -75.2500   22.2500   26.6160 C.ar  202  HIS202      0.1986
     41  NE2      -75.8120   21.8390   27.7520 N.ar  202  HIS202     -0.2212
     42  N        -75.3990   17.4740   26.8040 N.am  203  GLY203     -0.1957
     43  CA       -75.1060   16.8350   28.0850 C.3   203  GLY203      0.1869
     44  C        -74.6710   17.8550   29.1240 C.2   203  GLY203      0.2309
     45  O        -74.0850   18.8990   28.7950 O.2   203  GLY203     -0.2863
     46  N        -62.1700   32.8440   27.9190 N.3   227  THR227     -0.1203
     47  CA       -61.2760   31.7180   27.6630 C.3   227  THR227      0.1994
     48  C        -61.9860   30.3840   27.8970 C.2   227  THR227      0.2618
     49  O        -62.8710   30.3170   28.7410 O.2   227  THR227     -0.2717
     50  CB       -59.9770   31.8750   28.4970 C.3   227  THR227      0.1784
     51  OG1      -60.2470   32.3910   29.7970 O.3   227  THR227     -0.2211
     52  CG2      -58.9440   32.7730   27.7790 C.3   227  THR227      0.0376
     53  N        -61.5800   29.3450   27.1590 N.am  228  GLY228     -0.1942
     54  CA       -62.1480   28.0010   27.2790 C.3   228  GLY228      0.2014
     55  C        -63.3500   27.7320   26.3990 C.2   228  GLY228      0.2639
     56  O        -63.9690   26.6680   26.4930 O.2   228  GLY228     -0.2714
     57  N        -63.6960   28.6950   25.5490 N.am  229  TYR229     -0.1959
     58  CA       -64.8310   28.5880   24.6390 C.3   229  TYR229      0.1771
     59  C        -64.2700   28.5920   23.2310 C.2   229  TYR229      0.2619
     60  O        -63.9320   29.6620   22.7020 O.2   229  TYR229     -0.2715
     61  CB       -65.8160   29.7570   24.8760 C.3   229  TYR229      0.0574
     62  CG       -66.6430   29.6170   26.1320 C.ar  229  TYR229     -0.0198
     63  CD1      -67.7870   28.8190   26.1520 C.ar  229  TYR229     -0.0009
     64  CD2      -66.3050   30.3120   27.3000 C.ar  229  TYR229     -0.0009
     65  CE1      -68.5500   28.6750   27.3100 C.ar  229  TYR229      0.0417
     66  CE2      -67.0660   30.1790   28.4670 C.ar  229  TYR229      0.0417
     67  CZ       -68.1750   29.3450   28.4690 C.ar  229  TYR229      0.1957
     68  OH       -68.9170   29.1720   29.6080 O.3   229  TYR229     -0.2866
     69  N        -64.1260   27.3940   22.6410 N.am  230  MET230     -0.1977
     70  CA       -63.5750   27.2050   21.2880 C.3   230  MET230      0.1605
     71  C        -64.2580   28.1200   20.2420 C.2   230  MET230      0.2287
     72  O        -63.5840   28.6900   19.3750 O.2   230  MET230     -0.2864
     73  CB       -63.7000   25.7530   20.8610 C.3   230  MET230      0.0413
     74  CG       -62.8480   25.4230   19.6640 C.3   230  MET230      0.0598
     75  SD       -62.9060   23.6970   19.1210 S.3   230  MET230     -0.1393
     76  CE       -61.9090   23.7630   17.6910 C.3   230  MET230      0.0692
     77  N        -73.7310   24.9640   23.1090 N.3   236  TYR236     -0.1227
     78  CA       -73.0540   23.9140   22.3390 C.3   236  TYR236      0.1736
     79  C        -73.8480   22.6090   22.3100 C.2   236  TYR236      0.2595
     80  O        -74.3850   22.1810   23.3320 O.2   236  TYR236     -0.2718
     81  CB       -71.6640   23.6470   22.9440 C.3   236  TYR236      0.0548
     82  CG       -70.6420   24.7580   22.7180 C.ar  236  TYR236     -0.0200
     83  CD1      -70.7910   26.0100   23.3200 C.ar  236  TYR236     -0.0009
     84  CD2      -69.4750   24.5200   21.9900 C.ar  236  TYR236     -0.0009
     85  CE1      -69.8380   27.0210   23.1370 C.ar  236  TYR236      0.0417
     86  CE2      -68.5050   25.5090   21.8290 C.ar  236  TYR236      0.0417
     87  CZ       -68.6970   26.7630   22.3920 C.ar  236  TYR236      0.1957
     88  OH       -67.7590   27.7390   22.2000 O.3   236  TYR236     -0.2866
     89  N        -73.8700   21.9570   21.1440 N.am  237  PHE237     -0.1962
     90  CA       -74.5820   20.6900   20.9090 C.3   237  PHE237      0.1771
     91  C        -73.7580   19.7520   20.0810 C.2   237  PHE237      0.2619
     92  O        -72.9080   20.2150   19.3300 O.2   237  PHE237     -0.2715
     93  CB       -75.9060   20.9330   20.1410 C.3   237  PHE237      0.0574
     94  CG       -76.9120   21.8030   20.8420 C.ar  237  PHE237     -0.0200
     95  CD1      -76.8860   23.1810   20.6890 C.ar  237  PHE237     -0.0042
     96  CD2      -77.9090   21.2410   21.6230 C.ar  237  PHE237     -0.0042
     97  CE1      -77.8110   23.9850   21.3460 C.ar  237  PHE237     -0.0003
     98  CE2      -78.8410   22.0480   22.2730 C.ar  237  PHE237     -0.0003
     99  CZ       -78.7680   23.4060   22.1530 C.ar  237  PHE237     -0.0000
    100  N        -74.0430   18.4390   20.1730 N.am  238  ALA238     -0.1977
    101  CA       -73.3590   17.4370   19.3650 C.3   238  ALA238      0.1597
    102  C        -74.3810   16.6240   18.5660 C.2   238  ALA238      0.2287
    103  O        -75.5540   16.5720   18.9380 O.2   238  ALA238     -0.2864
    104  CB       -72.5490   16.5060   20.2650 C.3   238  ALA238      0.0319
    105  N        -70.3150   12.3350   22.6180 N.3   243  LYS243     -0.1231
    106  CA       -69.6200   13.6130   22.7740 C.3   243  LYS243      0.1693
    107  C        -70.3470   14.4460   23.8330 C.2   243  LYS243      0.2592
    108  O        -69.7020   15.0260   24.6920 O.2   243  LYS243     -0.2718
    109  CB       -69.5050   14.3660   21.4310 C.3   243  LYS243      0.0285
    110  CG       -68.7080   15.6790   21.5460 C.3   243  LYS243      0.0035
    111  CD       -68.2910   16.2300   20.2110 C.3   243  LYS243      0.0206
    112  CE       -67.7320   17.6310   20.3180 C.3   243  LYS243      0.1093
    113  NZ       -67.1300   18.0820   19.0270 N.3   243  LYS243     -0.1314
    114  N        -71.6790   14.4840   23.7870 N.am  244  SER244     -0.1952
    115  CA       -72.4560   15.2020   24.8010 C.3   244  SER244      0.1924
    116  C        -72.4830   14.4110   26.1210 C.2   244  SER244      0.2314
    117  O        -72.4510   15.0190   27.1880 O.2   244  SER244     -0.2863
    118  CB       -73.8800   15.4400   24.3100 C.3   244  SER244      0.2116
    119  OG       -73.9250   16.5090   23.3770 O.3   244  SER244     -0.2180
    120  N        -70.0520   15.2170   28.8350 N.3   247  TYR247     -0.1241
    121  CA       -70.3130   16.4070   29.6380 C.3   247  TYR247      0.1605
    122  C        -71.2660   16.1270   30.8120 C.2   247  TYR247      0.2264
    123  O        -71.4920   17.0310   31.6180 O.2   247  TYR247     -0.2867
    124  CB       -70.8280   17.5580   28.7600 C.3   247  TYR247      0.0534
    125  CG       -69.7370   18.1160   27.8810 C.ar  247  TYR247     -0.0201
    126  CD1      -68.7960   19.0150   28.3860 C.ar  247  TYR247     -0.0009
    127  CD2      -69.5800   17.6760   26.5750 C.ar  247  TYR247     -0.0009
    128  CE1      -67.7570   19.4970   27.5880 C.ar  247  TYR247      0.0417
    129  CE2      -68.5390   18.1390   25.7770 C.ar  247  TYR247      0.0417
    130  CZ       -67.6510   19.0740   26.2760 C.ar  247  TYR247      0.1957
    131  OH       -66.6180   19.5010   25.4820 O.3   247  TYR247     -0.2866
    132  N        -69.7450   19.7870   16.1850 N.3   328  GLU328     -0.1245
    133  CA       -70.3910   20.5060   17.2630 C.3   328  GLU328      0.1567
    134  C        -71.1160   21.6740   16.6410 C.2   328  GLU328      0.2260
    135  O        -70.7480   22.1050   15.5630 O.2   328  GLU328     -0.2867
    136  CB       -69.4760   20.8940   18.4220 C.3   328  GLU328      0.0388
    137  CG       -68.2590   21.7170   18.0720 C.3   328  GLU328      0.1160
    138  CD       -67.3420   21.8190   19.2690 C.2   328  GLU328      0.3649
    139  OE1      -67.2830   22.9060   19.8840 O.co2 328  GLU328     -0.2457
    140  OE2      -66.7710   20.7800   19.6590 O.co2 328  GLU328     -0.2457
@<TRIPOS>BOND
     1   135   134    2
     2   132   133    1
     3   134   133    1
     4   133   136    1
     5    76    75    1
     6   137   136    1
     7   137   138    1
     8   102   103    2
     9   102   101    1
    10   113   112    1
    11    75    74    1
    12   138   140   ar
    13   138   139   ar
    14    92    91    2
    15   101   100    1
    16   101   104    1
    17    72    71    2
    18    74    73    1
    19    91   100   am
    20    91    90    1
    21    93    94    1
    22    93    90    1
    23   111   112    1
    24   111   110    1
    25    71    70    1
    26    95    94   ar
    27    95    97   ar
    28    94    96   ar
    29    73    70    1
    30    90    89    1
    31    89    79   am
    32    70    69    1
    33    97    99   ar
    34   109   110    1
    35   109   106    1
    36    96    98   ar
    37    86    84   ar
    38    86    87   ar
    39    84    82   ar
    40    99    98   ar
    41    88    87    1
    42    79    78    1
    43    79    80    2
    44    78    81    1
    45    78    77    1
    46    87    85   ar
    47   105   106    1
    48    69    59   am
    49    60    59    2
    50    82    81    1
    51    82    83   ar
    52   106   107    1
    53    85    83   ar
    54    59    58    1
    55   119   118    1
    56   114   107   am
    57   114   115    1
    58   107   108    2
    59    32    33    1
    60   118   115    1
    61    58    61    1
    62    58    57    1
    63   115   116    1
    64    61    62    1
    65    33    36    1
    66    33    34    1
    67    36    37    1
    68   131   130    1
    69    57    55   am
    70    38    37   ar
    71    38    40   ar
    72   129   130   ar
    73   129   127   ar
    74    37    39   ar
    75   116   117    2
    76    62    63   ar
    77    62    64   ar
    78    63    65   ar
    79   130   128   ar
    80    34    42   am
    81    34    35    2
    82    55    56    2
    83    55    54    1
    84   127   125   ar
    85    40    41   ar
    86    42    43    1
    87    53    54    1
    88    53    48   am
    89    64    66   ar
    90    65    67   ar
    91    39    41   ar
    92   128   126   ar
    93    47    48    1
    94    47    46    1
    95    47    50    1
    96    52    50    1
    97   125   126   ar
    98   125   124    1
    99    48    49    2
   100    43    44    1
   101    66    67   ar
   102    67    68    1
   103    50    51    1
   104   124   121    1
   105    45    44    2
   106   120   121    1
   107     9     7   am
   108     8     7    2
   109   121   122    1
   110     7     6    1
   111     6     5    1
   112   122   123    2
   113     5     2    1
   114    31    29   ar
   115     2     1    1
   116     2     3    1
   117    22    21   ar
   118    29    30   ar
   119    29    28    1
   120     4     3    2
   121    21    20    1
   122    21    23   ar
   123    14    11    1
   124    20    19    1
   125    28    25    1
   126    19    16    1
   127    16    15    1
   128    16    17    1
   129    15    12   am
   130    12    11    1
   131    12    13    2
   132    11    10    1
   133    25    26    1
   134    25    24    1
   135    17    18    2
   136    26    27    2
