@<TRIPOS>MOLECULE
tmp/4r6iA00.pdb
 144 133 0 0 0
SMALL
GASTEIGER

@<TRIPOS>ATOM
      1  N         49.3650   49.8970   45.2870 N.3    13  LEU13      -0.1245
      2  CA        49.6180   50.8090   46.4060 C.3    13  LEU13       0.1561
      3  C         50.4920   51.9690   45.9630 C.2    13  LEU13       0.2260
      4  O         50.2050   53.1160   46.2630 O.2    13  LEU13      -0.2867
      5  CB        50.2450   50.0830   47.5820 C.3    13  LEU13       0.0270
      6  CG        49.3610   49.0330   48.2990 C.3    13  LEU13       0.0019
      7  CD1       50.1620   48.2420   49.3310 C.3    13  LEU13       0.0001
      8  CD2       48.1510   49.6430   48.9840 C.3    13  LEU13       0.0001
      9  N         48.5170   54.4660   43.8550 N.3    16  LEU16      -0.1231
     10  CA        47.5600   55.2120   44.6650 C.3    16  LEU16       0.1693
     11  C         48.2750   56.2650   45.4720 C.2    16  LEU16       0.2591
     12  O         47.8790   57.4280   45.4760 O.2    16  LEU16      -0.2718
     13  CB        46.7870   54.2980   45.6020 C.3    16  LEU16       0.0284
     14  CG        45.7590   55.0050   46.4940 C.3    16  LEU16       0.0019
     15  CD1       44.6830   55.6680   45.6480 C.3    16  LEU16       0.0001
     16  CD2       45.1480   54.0120   47.4670 C.3    16  LEU16       0.0001
     17  N         49.3430   55.8690   46.1410 N.am   17  LEU17      -0.1980
     18  CA        50.1030   56.8080   46.9530 C.3    17  LEU17       0.1596
     19  C         50.5340   57.9790   46.1290 C.2    17  LEU17       0.2287
     20  O         50.5840   59.0930   46.6260 O.2    17  LEU17      -0.2864
     21  CB        51.3420   56.1420   47.5590 C.3    17  LEU17       0.0297
     22  CG        52.2000   57.0730   48.3920 C.3    17  LEU17       0.0022
     23  CD1       51.4410   57.4760   49.6430 C.3    17  LEU17       0.0001
     24  CD2       53.5440   56.4590   48.7450 C.3    17  LEU17       0.0001
     25  N         47.2980   60.3070   45.4020 N.3    20  ILE20      -0.1245
     26  CA        46.9970   61.0760   46.6110 C.3    20  ILE20       0.1561
     27  C         47.8780   62.2900   46.7670 C.2    20  ILE20       0.2260
     28  O         47.3930   63.3750   47.0650 O.2    20  ILE20      -0.2867
     29  CB        47.1510   60.1960   47.8570 C.3    20  ILE20       0.0252
     30  CG1       45.9130   59.3160   48.0250 C.3    20  ILE20       0.0019
     31  CG2       47.3520   61.0420   49.0890 C.3    20  ILE20       0.0019
     32  CD1       46.1410   58.1160   48.9240 C.3    20  ILE20       0.0001
     33  N         38.9750   55.8250   48.8560 N.3    32  LEU32      -0.1245
     34  CA        40.1790   55.0030   48.8770 C.3    32  LEU32       0.1561
     35  C         39.8310   53.5140   48.8640 C.2    32  LEU32       0.2260
     36  O         40.3910   52.7470   48.0840 O.2    32  LEU32      -0.2867
     37  CB        41.0460   55.3130   50.1170 C.3    32  LEU32       0.0270
     38  CG        41.5100   56.7710   50.2550 C.3    32  LEU32       0.0019
     39  CD1       42.3710   56.9680   51.4940 C.3    32  LEU32       0.0001
     40  CD2       42.2530   57.2430   49.0110 C.3    32  LEU32       0.0001
     41  N         41.3260   50.9040   45.8740 N.3    36  LEU36      -0.1245
     42  CA        41.9910   49.6370   46.1900 C.3    36  LEU36       0.1561
     43  C         41.0710   48.4100   46.1600 C.2    36  LEU36       0.2260
     44  O         41.5590   47.2970   46.0430 O.2    36  LEU36      -0.2867
     45  CB        42.6110   49.6940   47.5860 C.3    36  LEU36       0.0270
     46  CG        43.6910   50.7320   47.8230 C.3    36  LEU36       0.0019
     47  CD1       44.1420   50.6580   49.2690 C.3    36  LEU36       0.0001
     48  CD2       44.8700   50.4980   46.8930 C.3    36  LEU36       0.0001
     49  N         41.5450   50.0110   54.4910 N.3    43  VAL43      -0.1245
     50  CA        42.0160   51.3510   54.2330 C.3    43  VAL43       0.1561
     51  C         42.6850   51.9400   55.4870 C.2    43  VAL43       0.2260
     52  O         43.7620   52.5330   55.3830 O.2    43  VAL43      -0.2867
     53  CB        40.8910   52.2370   53.7490 C.3    43  VAL43       0.0252
     54  CG1       41.3650   53.6690   53.6530 C.3    43  VAL43       0.0019
     55  CG2       40.4300   51.7550   52.3890 C.3    43  VAL43       0.0019
     56  N         46.1780   50.6450   56.4240 N.3    46  TYR46      -0.1227
     57  CA        47.1740   51.2130   55.5170 C.3    46  TYR46       0.1736
     58  C         47.5430   52.6410   55.8920 C.2    46  TYR46       0.2595
     59  O         48.7320   52.9890   55.8740 O.2    46  TYR46      -0.2718
     60  CB        46.6960   51.2130   54.0530 C.3    46  TYR46       0.0548
     61  CG        46.6880   49.8770   53.3460 C.ar   46  TYR46      -0.0200
     62  CD1       47.7510   48.9910   53.4530 C.ar   46  TYR46      -0.0009
     63  CD2       45.6280   49.5260   52.5190 C.ar   46  TYR46      -0.0009
     64  CE1       47.7310   47.7680   52.7930 C.ar   46  TYR46       0.0417
     65  CE2       45.6000   48.3160   51.8590 C.ar   46  TYR46       0.0417
     66  CZ        46.6500   47.4410   51.9930 C.ar   46  TYR46       0.1957
     67  OH        46.6160   46.2410   51.3180 O.3    46  TYR46      -0.2866
     68  N         46.5350   53.4730   56.1720 N.am   47  LEU47      -0.1980
     69  CA        46.7780   54.8090   56.7530 C.3    47  LEU47       0.1596
     70  C         47.6130   54.7240   58.0240 C.2    47  LEU47       0.2287
     71  O         48.4520   55.5710   58.2710 O.2    47  LEU47      -0.2864
     72  CB        45.4820   55.5150   57.0870 C.3    47  LEU47       0.0297
     73  CG        44.7040   55.8740   55.8430 C.3    47  LEU47       0.0022
     74  CD1       43.3900   56.4870   56.2590 C.3    47  LEU47       0.0001
     75  CD2       45.4700   56.8060   54.9110 C.3    47  LEU47       0.0001
     76  N         49.9520   52.4010   58.7130 N.3    49  LEU49      -0.1231
     77  CA        51.3340   52.2240   58.2580 C.3    49  LEU49       0.1693
     78  C         51.8800   53.5100   57.6420 C.2    49  LEU49       0.2591
     79  O         53.0270   53.8920   57.8820 O.2    49  LEU49      -0.2718
     80  CB        51.4240   51.1060   57.2190 C.3    49  LEU49       0.0284
     81  CG        51.1640   49.6750   57.7050 C.3    49  LEU49       0.0019
     82  CD1       50.9340   48.7280   56.5290 C.3    49  LEU49       0.0001
     83  CD2       52.3060   49.1850   58.5890 C.3    49  LEU49       0.0001
     84  N         51.0510   54.1700   56.8460 N.am   50  LEU50      -0.1980
     85  CA        51.4660   55.3710   56.1600 C.3    50  LEU50       0.1596
     86  C         51.9040   56.4080   57.1940 C.2    50  LEU50       0.2287
     87  O         53.0510   56.8730   57.1600 O.2    50  LEU50      -0.2864
     88  CB        50.3340   55.9030   55.2680 C.3    50  LEU50       0.0297
     89  CG        50.6750   57.0840   54.3590 C.3    50  LEU50       0.0022
     90  CD1       51.7520   56.7430   53.3370 C.3    50  LEU50       0.0001
     91  CD2       49.4280   57.5930   53.6610 C.3    50  LEU50       0.0001
     92  N         55.0690   55.6630   58.9110 N.3    53  GLU53      -0.1245
     93  CA        56.3050   55.4300   58.1270 C.3    53  GLU53       0.1567
     94  C         56.7630   56.5940   57.2310 C.2    53  GLU53       0.2260
     95  O         57.8950   56.5810   56.7530 O.2    53  GLU53      -0.2867
     96  CB        56.2390   54.0880   57.3920 C.3    53  GLU53       0.0388
     97  CG        56.0570   52.8820   58.3390 C.3    53  GLU53       0.1160
     98  CD        57.3540   52.2860   58.9100 C.2    53  GLU53       0.3649
     99  OE1       58.4700   52.6200   58.4510 O.co2  53  GLU53      -0.2457
    100  OE2       57.2650   51.4360   59.8260 O.co2  53  GLU53      -0.2457
    101  N         58.8970   55.8830   50.9890 N.3    81  VAL81      -0.1245
    102  CA        57.7600   55.0400   51.3690 C.3    81  VAL81       0.1561
    103  C         57.5360   53.9550   50.3270 C.2    81  VAL81       0.2260
    104  O         57.1320   52.8310   50.6590 O.2    81  VAL81      -0.2867
    105  CB        56.4660   55.8450   51.4900 C.3    81  VAL81       0.0252
    106  CG1       55.3110   54.9210   51.8430 C.3    81  VAL81       0.0019
    107  CG2       56.6050   56.9490   52.5270 C.3    81  VAL81       0.0019
    108  N         59.5850   51.0070   50.9880 N.3    84  LYS84      -0.1231
    109  CA        59.1090   50.2460   52.1120 C.3    84  LYS84       0.1693
    110  C         57.9830   49.3210   51.6860 C.2    84  LYS84       0.2591
    111  O         57.9180   48.2070   52.1300 O.2    84  LYS84      -0.2718
    112  CB        58.6750   51.1790   53.2270 C.3    84  LYS84       0.0285
    113  CG        59.8570   51.7850   53.9580 C.3    84  LYS84       0.0035
    114  CD        59.3860   52.9190   54.8590 C.3    84  LYS84       0.0206
    115  CE        60.3970   53.2430   55.9530 C.3    84  LYS84       0.1093
    116  NZ        59.7790   54.2330   56.8790 N.3    84  LYS84      -0.1314
    117  N         57.1100   49.8040   50.8120 N.am   85  ILE85      -0.1980
    118  CA        55.9970   49.0340   50.3180 C.3    85  ILE85       0.1595
    119  C         56.4900   47.8250   49.5810 C.2    85  ILE85       0.2287
    120  O         55.8940   46.7670   49.6580 O.2    85  ILE85      -0.2864
    121  CB        55.1790   49.8410   49.3180 C.3    85  ILE85       0.0276
    122  CG1       54.3850   50.9110   50.0410 C.3    85  ILE85       0.0022
    123  CG2       54.2090   48.9330   48.5730 C.3    85  ILE85       0.0022
    124  CD1       53.7080   51.8660   49.0940 C.3    85  ILE85       0.0001
    125  N         59.6750   46.4240   49.9390 N.3    87  ARG87      -0.1231
    126  CA        60.4960   45.5360   50.7910 C.3    87  ARG87       0.1694
    127  C         59.5810   44.6820   51.6750 C.2    87  ARG87       0.2591
    128  O         59.9280   43.5730   52.0570 O.2    87  ARG87      -0.2718
    129  CB        61.5200   46.3320   51.6330 C.3    87  ARG87       0.0321
    130  CG        62.9170   46.4490   51.0120 C.3    87  ARG87       0.0489
    131  CD        63.9190   47.1940   51.8940 C.3    87  ARG87       0.2205
    132  NE        63.7650   48.6560   51.7570 N.pl3  87  ARG87      -0.0865
    133  CZ        63.2720   49.5000   52.6830 C.cat  87  ARG87       0.5346
    134  NH1       62.8770   49.0760   53.9000 N.pl3  87  ARG87       0.1354
    135  NH2       63.1720   50.8010   52.3820 N.pl3  87  ARG87       0.1354
    136  N         58.3780   45.1830   51.9260 N.am   88  LYS88      -0.1980
    137  CA        57.3780   44.4700   52.6890 C.3    88  LYS88       0.1596
    138  C         56.4930   43.5000   51.8840 C.2    88  LYS88       0.2287
    139  O         55.9180   42.5960   52.4580 O.2    88  LYS88      -0.2864
    140  CB        56.4920   45.5010   53.4090 C.3    88  LYS88       0.0298
    141  CG        55.3670   44.9180   54.2450 C.3    88  LYS88       0.0038
    142  CD        54.8100   45.9360   55.2330 C.3    88  LYS88       0.0206
    143  CE        53.3530   45.6670   55.5850 C.3    88  LYS88       0.1093
    144  NZ        53.1590   44.2530   55.9890 N.3    88  LYS88      -0.1314
@<TRIPOS>BOND
     1     9    10    1
     2    10    11    1
     3    10    13    1
     4     1     2    1
     5    25    26    1
     6    11    12    2
     7    11    17   am
     8    13    14    1
     9    15    14    1
    10    41    42    1
    11     3     4    2
    12     3     2    1
    13    44    43    2
    14    19    20    2
    15    19    18    1
    16    17    18    1
    17    43    42    1
    18    42    45    1
    19     2     5    1
    20    14    16    1
    21    26    27    1
    22    26    29    1
    23    27    28    2
    24    48    46    1
    25    18    21    1
    26    21    22    1
    27     5     6    1
    28    45    46    1
    29    46    47    1
    30    29    30    1
    31    29    31    1
    32    30    32    1
    33    36    35    2
    34     6     8    1
    35     6     7    1
    36    22    24    1
    37    22    23    1
    38   123   121    1
    39    33    34    1
    40    35    34    1
    41    34    37    1
    42    40    38    1
    43   124   122    1
    44   121   122    1
    45   121   118    1
    46   119   120    2
    47   119   118    1
    48   125   126    1
    49    37    38    1
    50    38    39    1
    51   118   117    1
    52   103   104    2
    53   103   102    1
    54   126   129    1
    55   126   127    1
    56   117   110   am
    57   108   109    1
    58   101   102    1
    59   130   129    1
    60   130   131    1
    61    67    66    1
    62   102   105    1
    63   105   106    1
    64   105   107    1
    65   127   136   am
    66   127   128    2
    67   110   109    1
    68   110   111    2
    69   132   131    1
    70   132   133    2
    71    65    66   ar
    72    65    63   ar
    73   138   139    2
    74   138   137    1
    75   136   137    1
    76    66    64   ar
    77   109   112    1
    78   135   133    1
    79    55    53    1
    80    63    61   ar
    81   133   134    1
    82   137   140    1
    83    64    62   ar
    84   112   113    1
    85    90    89    1
    86    61    62   ar
    87    61    60    1
    88   140   141    1
    89    54    53    1
    90    91    89    1
    91    53    50    1
    92   113   114    1
    93    60    57    1
    94    50    49    1
    95    50    51    1
    96   141   142    1
    97    89    88    1
    98   114   115    1
    99    75    73    1
   100   142   143    1
   101    88    85    1
   102    52    51    2
   103    57    58    1
   104    57    56    1
   105   143   144    1
   106    73    74    1
   107    73    72    1
   108    59    58    2
   109    58    68   am
   110   115   116    1
   111    85    84    1
   112    85    86    1
   113    68    69    1
   114    82    81    1
   115    69    72    1
   116    69    70    1
   117    95    94    2
   118    84    78   am
   119    87    86    2
   120    80    81    1
   121    80    77    1
   122    94    93    1
   123    96    93    1
   124    96    97    1
   125    78    79    2
   126    78    77    1
   127    81    83    1
   128    70    71    2
   129    93    92    1
   130    77    76    1
   131    97    98    1
   132    99    98   ar
   133    98   100   ar
