@<TRIPOS>MOLECULE
tmp/4r6pG00.pdb
 147 144 0 0 0
SMALL
GASTEIGER

@<TRIPOS>ATOM
      1  N         -8.4570   -1.5980    4.1870 N.3     8  ALA8       -0.1245
      2  CA        -7.9490   -2.4890    5.2320 C.3     8  ALA8        0.1562
      3  C         -9.0810   -3.0270    6.0860 C.2     8  ALA8        0.2260
      4  O        -10.0640   -2.3050    6.3500 O.2     8  ALA8       -0.2867
      5  CB        -6.9530   -1.7620    6.1250 C.3     8  ALA8        0.0290
      6  N          6.2260  -11.4010  -12.1710 N.3    72  THR72      -0.1218
      7  CA         5.6850  -10.4510  -13.1210 C.3    72  THR72       0.1862
      8  C          6.3590  -10.7110  -14.4620 C.2    72  THR72       0.2287
      9  O          7.4910  -11.2210  -14.5230 O.2    72  THR72      -0.2866
     10  CB         5.8520   -8.9830  -12.6920 C.3    72  THR72       0.1770
     11  OG1        7.2370   -8.7030  -12.5500 O.3    72  THR72      -0.2211
     12  CG2        5.1470   -8.7380  -11.3500 C.3    72  THR72       0.0375
     13  N          3.2080   -5.6000  -18.9790 N.3    79  VAL79      -0.1231
     14  CA         3.7840   -6.1690  -17.7470 C.3    79  VAL79       0.1692
     15  C          2.6050   -6.4530  -16.8210 C.2    79  VAL79       0.2592
     16  O          1.7990   -5.5660  -16.5470 O.2    79  VAL79      -0.2718
     17  CB         4.8150   -5.2430  -17.0500 C.3    79  VAL79       0.0266
     18  CG1        5.3260   -5.9010  -15.7730 C.3    79  VAL79       0.0020
     19  CG2        5.9820   -4.9310  -18.0010 C.3    79  VAL79       0.0020
     20  N          2.5070   -7.7010  -16.3820 N.am   80  VAL80      -0.1966
     21  CA         1.4090   -8.1470  -15.5190 C.3    80  VAL80       0.1727
     22  C          1.8990   -9.1880  -14.5070 C.2    80  VAL80       0.2616
     23  O          3.0230   -9.7010  -14.5880 O.2    80  VAL80      -0.2715
     24  CB         0.2440   -8.7270  -16.3500 C.3    80  VAL80       0.0290
     25  CG1       -0.3440   -7.6440  -17.2490 C.3    80  VAL80       0.0023
     26  CG2        0.7530   -9.8750  -17.2060 C.3    80  VAL80       0.0023
     27  N          1.0410   -9.5080  -13.5450 N.am   81  VAL81      -0.1977
     28  CA         1.3360  -10.5580  -12.5950 C.3    81  VAL81       0.1596
     29  C          0.9510  -11.8830  -13.2290 C.2    81  VAL81       0.2287
     30  O         -0.2320  -12.1480  -13.4370 O.2    81  VAL81      -0.2864
     31  CB         0.5890  -10.3160  -11.2520 C.3    81  VAL81       0.0276
     32  CG1        0.8690  -11.4450  -10.2660 C.3    81  VAL81       0.0022
     33  CG2        0.9970   -8.9560  -10.6700 C.3    81  VAL81       0.0022
     34  N          8.9560  -11.9940   -7.3590 N.3   104  PHE104     -0.1227
     35  CA         8.8780  -11.1460   -6.1850 C.3   104  PHE104      0.1736
     36  C          8.3620  -12.0250   -5.0440 C.2   104  PHE104      0.2595
     37  O          7.7730  -13.0900   -5.2670 O.2   104  PHE104     -0.2718
     38  CB         7.9680   -9.9250   -6.4210 C.3   104  PHE104      0.0547
     39  CG         6.5080  -10.2900   -6.6750 C.ar  104  PHE104     -0.0202
     40  CD1        5.6170  -10.3920   -5.6240 C.ar  104  PHE104     -0.0042
     41  CD2        6.0480  -10.5490   -7.9760 C.ar  104  PHE104     -0.0042
     42  CE1        4.2880  -10.7580   -5.8450 C.ar  104  PHE104     -0.0003
     43  CE2        4.7240  -10.8680   -8.2160 C.ar  104  PHE104     -0.0003
     44  CZ         3.8420  -11.0030   -7.1410 C.ar  104  PHE104     -0.0000
     45  N          8.6510  -11.6070   -3.8150 N.am  105  ASN105     -0.1960
     46  CA         8.0960  -12.2980   -2.6580 C.3   105  ASN105      0.1819
     47  C          8.0510  -11.4000   -1.4350 C.2   105  ASN105      0.2621
     48  O          8.9190  -10.5390   -1.2240 O.2   105  ASN105     -0.2715
     49  CB         8.8620  -13.5830   -2.3490 C.3   105  ASN105      0.1195
     50  CG        10.2620  -13.3170   -1.8240 C.2   105  ASN105      0.2630
     51  OD1       11.0390  -12.6040   -2.4390 O.2   105  ASN105     -0.2716
     52  ND2       10.5980  -13.9280   -0.7080 N.am  105  ASN105     -0.0877
     53  N          7.0010  -11.5960   -0.6490 N.am  106  LEU106     -0.1977
     54  CA         6.8240  -10.8140    0.5740 C.3   106  LEU106      0.1596
     55  C          6.5720  -11.8400    1.6580 C.2   106  LEU106      0.2287
     56  O          5.4190  -12.2210    1.8890 O.2   106  LEU106     -0.2864
     57  CB         5.6350   -9.8570    0.4660 C.3   106  LEU106      0.0297
     58  CG         5.3990   -9.1320    1.8080 C.3   106  LEU106      0.0022
     59  CD1        6.4280   -8.0290    1.9830 C.3   106  LEU106      0.0001
     60  CD2        3.9700   -8.6290    1.9070 C.3   106  LEU106      0.0001
     61  N         -3.9830   -7.4380    5.5390 N.3   114  VAL114     -0.1245
     62  CA        -5.3770   -7.0540    5.8710 C.3   114  VAL114      0.1561
     63  C         -6.1420   -6.3870    4.7470 C.2   114  VAL114      0.2260
     64  O         -7.2560   -5.8710    4.9620 O.2   114  VAL114     -0.2867
     65  CB        -5.4290   -6.1420    7.1360 C.3   114  VAL114      0.0252
     66  CG1       -4.9860   -6.9590    8.3740 C.3   114  VAL114      0.0019
     67  CG2       -4.5580   -4.9120    6.9600 C.3   114  VAL114      0.0019
     68  N         -4.9920   -3.8360   -2.8800 N.3   117  LYS117     -0.1245
     69  CA        -5.3490   -2.8600   -3.8780 C.3   117  LYS117      0.1561
     70  C         -4.5500   -3.1780   -5.1390 C.2   117  LYS117      0.2260
     71  O         -3.5860   -3.9180   -5.0810 O.2   117  LYS117     -0.2867
     72  CB        -5.0400   -1.4620   -3.3710 C.3   117  LYS117      0.0271
     73  CG        -3.5690   -1.2530   -3.0560 C.3   117  LYS117      0.0035
     74  CD        -3.3660    0.0530   -2.2710 C.3   117  LYS117      0.0206
     75  CE        -3.6480    1.2730   -3.1310 C.3   117  LYS117      0.1093
     76  NZ        -2.5890    1.5050   -4.1290 N.3   117  LYS117     -0.1314
     77  N         -2.6050   -6.1980  -13.3700 N.3   125  ASP125     -0.1225
     78  CA        -1.4750   -5.3420  -13.7810 C.3   125  ASP125      0.1805
     79  C         -0.4440   -5.2140  -12.6750 C.2   125  ASP125      0.2598
     80  O          0.7660   -5.3810  -12.8920 O.2   125  ASP125     -0.2718
     81  CB        -1.9650   -3.9420  -14.1640 C.3   125  ASP125      0.1424
     82  CG        -3.0310   -3.9810  -15.2580 C.2   125  ASP125      0.3668
     83  OD1       -2.7590   -4.5860  -16.3050 O.co2 125  ASP125     -0.2456
     84  OD2       -4.1420   -3.4540  -15.0260 O.co2 125  ASP125     -0.2456
     85  N         -0.9430   -4.8990  -11.4850 N.am  126  TYR126     -0.1962
     86  CA        -0.1000   -4.7400  -10.3130 C.3   126  TYR126      0.1771
     87  C         -0.9730   -4.8390   -9.0580 C.2   126  TYR126      0.2620
     88  O         -2.2040   -4.7140   -9.1330 O.2   126  TYR126     -0.2715
     89  CB         0.6300   -3.3720  -10.3420 C.3   126  TYR126      0.0574
     90  CG        -0.2490   -2.1450  -10.3730 C.ar  126  TYR126     -0.0198
     91  CD1       -0.8020   -1.6160   -9.1880 C.ar  126  TYR126     -0.0009
     92  CD2       -0.5200   -1.4930  -11.5920 C.ar  126  TYR126     -0.0009
     93  CE1       -1.6170   -0.4870   -9.2320 C.ar  126  TYR126      0.0417
     94  CE2       -1.3120   -0.3630  -11.6380 C.ar  126  TYR126      0.0417
     95  CZ        -1.8510    0.1380  -10.4650 C.ar  126  TYR126      0.1957
     96  OH        -2.6320    1.2560  -10.5520 O.3   126  TYR126     -0.2866
     97  N         -0.3470   -5.0830   -7.9150 N.am  127  PHE127     -0.1960
     98  CA        -1.0990   -5.0400   -6.6690 C.3   127  PHE127      0.1771
     99  C         -0.2040   -4.6280   -5.5050 C.2   127  PHE127      0.2620
    100  O          1.0190   -4.7140   -5.6040 O.2   127  PHE127     -0.2715
    101  CB        -1.7600   -6.4030   -6.3780 C.3   127  PHE127      0.0574
    102  CG        -0.8060   -7.4630   -5.8730 C.ar  127  PHE127     -0.0200
    103  CD1        0.0600   -8.1190   -6.7480 C.ar  127  PHE127     -0.0042
    104  CD2       -0.7190   -7.7670   -4.5070 C.ar  127  PHE127     -0.0042
    105  CE1        0.9580   -9.0660   -6.2910 C.ar  127  PHE127     -0.0003
    106  CE2        0.1810   -8.7260   -4.0440 C.ar  127  PHE127     -0.0003
    107  CZ         1.0300   -9.3830   -4.9380 C.ar  127  PHE127     -0.0000
    108  N         -0.8440   -4.1790   -4.4230 N.am  128  SER128     -0.1936
    109  CA        -0.1710   -3.8240   -3.1500 C.3   128  SER128      0.2055
    110  C         -0.9820   -4.4720   -2.0250 C.2   128  SER128      0.2643
    111  O         -2.1520   -4.8830   -2.2180 O.2   128  SER128     -0.2714
    112  CB        -0.1230   -2.3090   -2.9360 C.3   128  SER128      0.2130
    113  OG         0.6500   -1.6990   -3.9550 O.3   128  SER128     -0.2179
    114  N         -0.3910   -4.5170   -0.8330 N.am  129  MET129     -0.1962
    115  CA        -1.0390   -5.1590    0.3110 C.3   129  MET129      0.1736
    116  C         -0.9630   -4.2800    1.5320 C.2   129  MET129      0.2616
    117  O          0.0760   -3.7120    1.8200 O.2   129  MET129     -0.2715
    118  CB        -0.3590   -6.4990    0.6300 C.3   129  MET129      0.0427
    119  CG        -0.6650   -7.5620   -0.4240 C.3   129  MET129      0.0599
    120  SD         0.1170   -9.1240   -0.1180 S.3   129  MET129     -0.1393
    121  CE         1.8210   -8.8160   -0.5480 C.3   129  MET129      0.0692
    122  N         -2.0760   -4.1760    2.2380 N.am  130  TYR130     -0.1960
    123  CA        -2.1130   -3.5190    3.5150 C.3   130  TYR130      0.1771
    124  C         -1.6320   -4.4960    4.5690 C.2   130  TYR130      0.2619
    125  O         -2.0220   -5.6740    4.5650 O.2   130  TYR130     -0.2715
    126  CB        -3.5620   -3.1310    3.8240 C.3   130  TYR130      0.0574
    127  CG        -4.1740   -2.0300    2.9770 C.ar  130  TYR130     -0.0198
    128  CD1       -4.6580   -2.2890    1.6660 C.ar  130  TYR130     -0.0009
    129  CD2       -4.3440   -0.7460    3.5050 C.ar  130  TYR130     -0.0009
    130  CE1       -5.2470   -1.2600    0.9130 C.ar  130  TYR130      0.0417
    131  CE2       -4.9210    0.2740    2.7650 C.ar  130  TYR130      0.0417
    132  CZ        -5.4010    0.0030    1.4760 C.ar  130  TYR130      0.1957
    133  OH        -5.9950    1.0420    0.7670 O.3   130  TYR130     -0.2866
    134  N         -0.7970   -4.0290    5.4870 N.am  131  LEU131     -0.1963
    135  CA        -0.2950   -4.9080    6.5400 C.3   131  LEU131      0.1728
    136  C         -0.5890   -4.2520    7.8990 C.2   131  LEU131      0.2616
    137  O         -0.5160   -3.0130    8.0400 O.2   131  LEU131     -0.2715
    138  CB         1.2270   -5.0720    6.4330 C.3   131  LEU131      0.0311
    139  CG         1.8360   -5.5710    5.1230 C.3   131  LEU131      0.0022
    140  CD1        3.3590   -5.6090    5.3060 C.3   131  LEU131      0.0001
    141  CD2        1.2920   -6.9640    4.8290 C.3   131  LEU131      0.0001
    142  N         -0.8900   -5.0850    8.8840 N.am  132  SER132     -0.1950
    143  CA        -1.1520   -4.5940   10.2130 C.3   132  SER132      0.1924
    144  C         -0.6680   -5.6010   11.2310 C.2   132  SER132      0.2314
    145  O         -0.4020   -6.7290   10.9010 O.2   132  SER132     -0.2863
    146  CB        -2.6580   -4.3580   10.3900 C.3   132  SER132      0.2116
    147  OG        -2.8750   -3.6050   11.5800 O.3   132  SER132     -0.2180
@<TRIPOS>BOND
     1    13    14    1
     2    19    17    1
     3    14    17    1
     4    14    15    1
     5    25    24    1
     6    26    24    1
     7    17    18    1
     8    15    16    2
     9    15    20   am
    10    20    21    1
    11    24    21    1
    12    83    82   ar
    13    21    22    1
    14    82    84   ar
    15    82    81    1
    16    23    22    2
    17     9     8    2
    18    22    27   am
    19     8     7    1
    20    81    78    1
    21    78    77    1
    22    78    79    1
    23    27    28    1
    24    30    29    2
    25    29    28    1
    26     7    10    1
    27     7     6    1
    28    80    79    2
    29    10    11    1
    30    10    12    1
    31    79    85   am
    32    28    31    1
    33    94    92   ar
    34    94    95   ar
    35    92    90   ar
    36    85    86    1
    37    31    33    1
    38    31    32    1
    39    96    95    1
    40    95    93   ar
    41    90    89    1
    42    90    91   ar
    43    89    86    1
    44    86    87    1
    45    93    91   ar
    46    88    87    2
    47    87    97   am
    48    43    41   ar
    49    43    44   ar
    50    41    39   ar
    51    97    98    1
    52    34    35    1
    53    44    42   ar
    54   103   105   ar
    55   103   102   ar
    56    39    38    1
    57    39    40   ar
    58    98   101    1
    59    98    99    1
    60    38    35    1
    61   101   102    1
    62   105   107   ar
    63    35    36    1
    64   102   104   ar
    65    42    40   ar
    66   100    99    2
    67    99   108   am
    68    37    36    2
    69    70    71    2
    70    70    69    1
    71    36    45   am
    72   107   106   ar
    73   104   106   ar
    74   108   109    1
    75    76    75    1
    76   113   112    1
    77    69    72    1
    78    69    68    1
    79    45    46    1
    80    72    73    1
    81   109   112    1
    82   109   110    1
    83    75    74    1
    84    73    74    1
    85    46    49    1
    86    46    47    1
    87    51    50    2
    88    49    50    1
    89   111   110    2
    90   110   114   am
    91    50    52   am
    92    47    48    2
    93    47    53   am
    94   114   115    1
    95    53    54    1
    96   121   120    1
    97   119   120    1
    98   119   118    1
    99   115   118    1
   100   115   116    1
   101    57    54    1
   102    57    58    1
   103    54    55    1
   104   133   132    1
   105   130   132   ar
   106   130   128   ar
   107   132   131   ar
   108   116   117    2
   109   116   122   am
   110    55    56    2
   111   128   127   ar
   112    58    60    1
   113    58    59    1
   114   122   123    1
   115   131   129   ar
   116   127   129   ar
   117   127   126    1
   118   123   126    1
   119   123   124    1
   120     1     2    1
   121   125   124    2
   122   124   134   am
   123    63    64    2
   124    63    62    1
   125   141   139    1
   126   139   140    1
   127   139   138    1
   128     2     3    1
   129     2     5    1
   130   134   135    1
   131    61    62    1
   132    62    65    1
   133     3     4    2
   134   138   135    1
   135   135   136    1
   136    67    65    1
   137    65    66    1
   138   136   137    2
   139   136   142   am
   140   142   143    1
   141   143   146    1
   142   143   144    1
   143   146   147    1
   144   145   144    2
