@<TRIPOS>MOLECULE
tmp/4r6pE00.pdb
 74 73 0 0 0
SMALL
GASTEIGER

@<TRIPOS>ATOM
      1  N         12.4460   -7.2790   -4.0590 N.3   105  ASN105     -0.1225
      2  CA        12.2370   -5.8690   -3.8500 C.3   105  ASN105      0.1785
      3  C         11.0980   -5.6360   -2.8750 C.2   105  ASN105      0.2597
      4  O         10.0880   -6.3370   -2.9070 O.2   105  ASN105     -0.2718
      5  CB        12.0130   -5.1270   -5.1790 C.3   105  ASN105      0.1169
      6  CG        10.6570   -5.4020   -5.8020 C.2   105  ASN105      0.2627
      7  OD1       10.2500   -6.5480   -5.9700 O.2   105  ASN105     -0.2716
      8  ND2        9.9580   -4.3340   -6.1710 N.am  105  ASN105     -0.0877
      9  N         11.2840   -4.6510   -2.0150 N.am  106  LEU106     -0.1966
     10  CA        10.2280   -4.2770   -1.0730 C.3   106  LEU106      0.1713
     11  C          9.9290   -2.8160   -1.3130 C.2   106  LEU106      0.2458
     12  O         10.6120   -1.9870   -0.7800 O.2   106  LEU106     -0.2730
     13  CB        10.7010   -4.5000    0.3710 C.3   106  LEU106      0.0310
     14  CG         9.6360   -4.1470    1.4160 C.3   106  LEU106      0.0022
     15  CD1        8.4400   -5.0730    1.3040 C.3   106  LEU106      0.0001
     16  CD2       10.2720   -4.2130    2.7780 C.3   106  LEU106      0.0001
     17  N          8.9210   -2.4990   -2.1500 N.am  107  PRO107     -0.2716
     18  CA         8.4630   -1.1190   -2.2890 C.3   107  PRO107      0.1536
     19  C          7.4470   -0.8270   -1.1930 C.2   107  PRO107      0.2598
     20  O          6.7540   -1.7380   -0.7400 O.2   107  PRO107     -0.2715
     21  CB         7.7930   -1.0790   -3.6750 C.3   107  PRO107      0.0310
     22  CG         7.6430   -2.4820   -4.0880 C.3   107  PRO107      0.0237
     23  CD         8.2290   -3.4160   -3.0710 C.3   107  PRO107      0.0939
     24  N          7.4360    0.4060   -0.7230 N.am  108  ILE108     -0.1964
     25  CA         6.5260    0.8180    0.3710 C.3   108  ILE108      0.1727
     26  C          5.6580    1.9540   -0.1360 C.2   108  ILE108      0.2616
     27  O          6.1700    2.9940   -0.5570 O.2   108  ILE108     -0.2715
     28  CB         7.3040    1.2630    1.6320 C.3   108  ILE108      0.0290
     29  CG1        8.1970    0.1160    2.1200 C.3   108  ILE108      0.0022
     30  CG2        6.3310    1.7120    2.7350 C.3   108  ILE108      0.0023
     31  CD1        9.2900    0.5510    3.0600 C.3   108  ILE108      0.0001
     32  N          4.3470    1.7620   -0.1240 N.am  109  GLU109     -0.1963
     33  CA         3.4130    2.8560   -0.4380 C.3   109  GLU109      0.1733
     34  C          3.0920    3.7470    0.7490 C.2   109  GLU109      0.2616
     35  O          2.8440    4.9520    0.5890 O.2   109  GLU109     -0.2715
     36  CB         2.0910    2.3170   -0.9810 C.3   109  GLU109      0.0429
     37  CG         2.0750    2.0080   -2.4510 C.3   109  GLU109      0.1163
     38  CD         0.6740    1.7560   -2.9600 C.2   109  GLU109      0.3649
     39  OE1        0.5200    0.8200   -3.7560 O.co2 109  GLU109     -0.2457
     40  OE2       -0.2720    2.4840   -2.5580 O.co2 109  GLU109     -0.2457
     41  N          3.0080    3.1600    1.9390 N.am  110  ASN110     -0.1958
     42  CA         2.7340    3.9120    3.1410 C.3   110  ASN110      0.1819
     43  C          3.4380    3.2520    4.2940 C.2   110  ASN110      0.2621
     44  O          3.3210    2.0520    4.4840 O.2   110  ASN110     -0.2715
     45  CB         1.2220    3.9850    3.4460 C.3   110  ASN110      0.1195
     46  CG         0.8870    5.0880    4.4440 C.2   110  ASN110      0.2630
     47  OD1        1.4130    6.1900    4.3510 O.2   110  ASN110     -0.2716
     48  ND2        0.0120    4.7880    5.4110 N.am  110  ASN110     -0.0877
     49  N          4.1410    4.0440    5.0910 N.am  111  GLY111     -0.1954
     50  CA         4.8860    3.4800    6.2010 C.3   111  GLY111      0.1869
     51  C          6.3840    3.6450    6.0060 C.2   111  GLY111      0.2309
     52  O          6.8340    4.1180    4.9640 O.2   111  GLY111     -0.2863
     53  N          8.7320   -2.5710    9.9710 N.3   131  LEU131     -0.1231
     54  CA         8.0010   -1.5210    9.3010 C.3   131  LEU131      0.1693
     55  C          7.0130   -0.9380   10.2910 C.2   131  LEU131      0.2593
     56  O          6.4070   -1.6800   11.0970 O.2   131  LEU131     -0.2718
     57  CB         7.1750   -2.0410    8.1150 C.3   131  LEU131      0.0284
     58  CG         7.8880   -2.8500    7.0480 C.3   131  LEU131      0.0019
     59  CD1        6.8960   -3.3170    5.9720 C.3   131  LEU131      0.0001
     60  CD2        8.9960   -1.9490    6.5060 C.3   131  LEU131      0.0001
     61  N          6.8450    0.3810   10.1980 N.am  132  SER132     -0.1938
     62  CA         5.8750    1.0560   11.0500 C.3   132  SER132      0.2055
     63  C          5.2550    2.2280   10.3280 C.2   132  SER132      0.2642
     64  O          5.7670    2.6860    9.3280 O.2   132  SER132     -0.2714
     65  CB         6.5690    1.5740   12.3100 C.3   132  SER132      0.2130
     66  OG         5.5680    1.8480   13.2790 O.3   132  SER132     -0.2179
     67  N          4.1300    2.7070   10.8490 N.am  133  LEU133     -0.1977
     68  CA         3.6690    4.0660   10.5530 C.3   133  LEU133      0.1596
     69  C          4.4020    5.0890   11.4480 C.2   133  LEU133      0.2287
     70  O          5.0080    4.7420   12.4510 O.2   133  LEU133     -0.2864
     71  CB         2.1580    4.1790   10.8150 C.3   133  LEU133      0.0297
     72  CG         1.2390    3.2700    9.9970 C.3   133  LEU133      0.0022
     73  CD1       -0.1360    3.2800   10.6480 C.3   133  LEU133      0.0001
     74  CD2        1.1770    3.7610    8.5650 C.3   133  LEU133      0.0001
@<TRIPOS>BOND
     1     8     6   am
     2     7     6    2
     3     6     5    1
     4     5     2    1
     5    22    21    1
     6    22    23    1
     7     1     2    1
     8     2     3    1
     9    39    38   ar
    10    21    18    1
    11    23    17    1
    12    38    40   ar
    13    38    37    1
    14     4     3    2
    15     3     9   am
    16    37    36    1
    17    18    17    1
    18    18    19    1
    19    17    11   am
    20     9    10    1
    21    11    10    1
    22    11    12    2
    23    19    20    2
    24    19    24   am
    25    10    13    1
    26    36    33    1
    27    24    25    1
    28    27    26    2
    29    33    32    1
    30    33    34    1
    31    26    32   am
    32    26    25    1
    33    25    28    1
    34    13    14    1
    35    35    34    2
    36    34    41   am
    37    15    14    1
    38    14    16    1
    39    28    29    1
    40    28    30    1
    41    41    42    1
    42    29    31    1
    43    42    45    1
    44    42    43    1
    45    45    46    1
    46    43    44    2
    47    43    49   am
    48    47    46    2
    49    46    48   am
    50    52    51    2
    51    49    50    1
    52    59    58    1
    53    51    50    1
    54    60    58    1
    55    58    57    1
    56    57    54    1
    57    74    72    1
    58    54    53    1
    59    54    55    1
    60    64    63    2
    61    72    73    1
    62    72    71    1
    63    61    55   am
    64    61    62    1
    65    55    56    2
    66    63    67   am
    67    63    62    1
    68    68    71    1
    69    68    67    1
    70    68    69    1
    71    62    65    1
    72    69    70    2
    73    65    66    1
