@<TRIPOS>MOLECULE
tmp/4r6tE03.pdb
 94 94 0 0 0
SMALL
GASTEIGER

@<TRIPOS>ATOM
      1  N        108.9900   39.1840   -6.4660 N.3   114  GLU114     -0.1245
      2  CA       108.2050   38.1270   -5.8420 C.3   114  GLU114      0.1567
      3  C        106.7340   38.5250   -5.7950 C.2   114  GLU114      0.2260
      4  O        105.8490   37.7000   -6.0170 O.2   114  GLU114     -0.2867
      5  CB       108.7300   37.8270   -4.4340 C.3   114  GLU114      0.0388
      6  CG       108.8630   39.0590   -3.5520 C.3   114  GLU114      0.1160
      7  CD       107.6190   39.3360   -2.7290 C.2   114  GLU114      0.3649
      8  OE1      107.6330   40.3050   -1.9420 O.co2 114  GLU114     -0.2457
      9  OE2      106.6190   38.6050   -2.8840 O.co2 114  GLU114     -0.2457
     10  N        106.8740   42.4020    4.1960 N.3   410  TYR410     -0.1241
     11  CA       108.1970   42.1260    4.7400 C.3   410  TYR410      0.1605
     12  C        108.1350   41.7890    6.2240 C.2   410  TYR410      0.2264
     13  O        107.5200   42.5100    7.0090 O.2   410  TYR410     -0.2867
     14  CB       109.1370   43.3180    4.5280 C.3   410  TYR410      0.0534
     15  CG       109.6320   43.4960    3.1090 C.ar  410  TYR410     -0.0201
     16  CD1      110.8280   44.1540    2.8510 C.ar  410  TYR410     -0.0009
     17  CD2      108.9030   43.0190    2.0290 C.ar  410  TYR410     -0.0009
     18  CE1      111.2890   44.3220    1.5600 C.ar  410  TYR410      0.0417
     19  CE2      109.3560   43.1840    0.7320 C.ar  410  TYR410      0.0417
     20  CZ       110.5490   43.8360    0.5040 C.ar  410  TYR410      0.1957
     21  OH       111.0030   44.0040   -0.7850 O.3   410  TYR410     -0.2866
     22  N        119.0900   36.8460    5.5260 N.3   425  LEU425     -0.1245
     23  CA       118.7560   37.7530    4.4300 C.3   425  LEU425      0.1561
     24  C        118.9780   37.1030    3.0670 C.2   425  LEU425      0.2260
     25  O        118.1840   37.2910    2.1450 O.2   425  LEU425     -0.2867
     26  CB       119.5740   39.0420    4.5370 C.3   425  LEU425      0.0270
     27  CG       119.2900   39.9120    5.7640 C.3   425  LEU425      0.0019
     28  CD1      120.2300   41.1070    5.8100 C.3   425  LEU425      0.0001
     29  CD2      117.8370   40.3640    5.7860 C.3   425  LEU425      0.0001
     30  N        116.3270   34.7940    2.3400 N.3   428  SER428     -0.1202
     31  CA       115.1640   35.5800    1.9460 C.3   428  SER428      0.2020
     32  C        115.1500   35.7840    0.4350 C.2   428  SER428      0.2618
     33  O        114.0940   35.7480   -0.1960 O.2   428  SER428     -0.2717
     34  CB       115.1540   36.9310    2.6660 C.3   428  SER428      0.2103
     35  OG       114.0320   37.7080    2.2820 O.3   428  SER428     -0.2182
     36  N        116.3300   36.0040   -0.1370 N.am  429  LYS429     -0.1979
     37  CA       116.4580   36.2240   -1.5720 C.3   429  LYS429      0.1596
     38  C        116.1260   34.9650   -2.3640 C.2   429  LYS429      0.2287
     39  O        115.3890   35.0170   -3.3480 O.2   429  LYS429     -0.2864
     40  CB       117.8770   36.6800   -1.9240 C.3   429  LYS429      0.0298
     41  CG       118.2290   38.0990   -1.5130 C.3   429  LYS429      0.0038
     42  CD       119.6230   38.4610   -2.0090 C.3   429  LYS429      0.0206
     43  CE       120.0780   39.8120   -1.4820 C.3   429  LYS429      0.1093
     44  NZ       119.2680   40.9290   -2.0410 N.3   429  LYS429     -0.1314
     45  N        112.5360   33.8060   -1.6950 N.3   432  ASN432     -0.1240
     46  CA       111.5820   34.8230   -2.1240 C.3   432  ASN432      0.1653
     47  C        110.5290   35.1080   -1.0570 C.2   432  ASN432      0.2266
     48  O        109.4040   35.4980   -1.3650 O.2   432  ASN432     -0.2867
     49  CB       110.9170   34.4120   -3.4380 C.3   432  ASN432      0.1155
     50  CG       111.8370   34.5870   -4.6320 C.2   432  ASN432      0.2627
     51  OD1      112.0800   35.7070   -5.0810 O.2   432  ASN432     -0.2716
     52  ND2      112.3670   33.4800   -5.1410 N.am  432  ASN432     -0.0877
     53  N        110.1830   37.7480    1.6250 N.3   434  PRO434     -0.2102
     54  CA       110.7840   39.0500    1.9330 C.3   434  PRO434      0.1504
     55  C        111.0590   39.2610    3.4160 C.2   434  PRO434      0.2576
     56  O        110.1930   39.0220    4.2580 O.2   434  PRO434     -0.2718
     57  CB       109.7310   40.0490    1.4410 C.3   434  PRO434      0.0282
     58  CG       108.8800   39.2880    0.4910 C.3   434  PRO434      0.0208
     59  CD       108.8620   37.8850    0.9920 C.3   434  PRO434      0.0893
     60  N        112.2700   39.7110    3.7190 N.am  435  VAL435     -0.1966
     61  CA       112.6650   40.0100    5.0870 C.3   435  VAL435      0.1727
     62  C        113.5750   41.2310    5.1110 C.2   435  VAL435      0.2616
     63  O        114.4420   41.3840    4.2510 O.2   435  VAL435     -0.2715
     64  CB       113.3820   38.8190    5.7440 C.3   435  VAL435      0.0290
     65  CG1      114.0170   39.2440    7.0590 C.3   435  VAL435      0.0023
     66  CG2      112.4090   37.6690    5.9590 C.3   435  VAL435      0.0023
     67  N        113.3740   42.1010    6.0930 N.am  436  TRP436     -0.1960
     68  CA       114.1980   43.2940    6.2190 C.3   436  TRP436      0.1771
     69  C        114.8850   43.3400    7.5790 C.2   436  TRP436      0.2619
     70  O        114.2930   42.9900    8.6010 O.2   436  TRP436     -0.2715
     71  CB       113.3670   44.5580    6.0000 C.3   436  TRP436      0.0590
     72  CG       114.2070   45.7720    5.7430 C.ar  436  TRP436      0.0006
     73  CD1      114.6390   46.6790    6.6660 C.ar  436  TRP436      0.0946
     74  CD2      114.7320   46.2020    4.4810 C.ar  436  TRP436      0.0152
     75  NE1      115.3930   47.6520    6.0560 N.ar  436  TRP436     -0.2442
     76  CE2      115.4660   47.3820    4.7140 C.ar  436  TRP436      0.0810
     77  CE3      114.6500   45.7060    3.1760 C.ar  436  TRP436      0.0012
     78  CZ2      116.1130   48.0740    3.6920 C.ar  436  TRP436      0.0191
     79  CZ3      115.2940   46.3940    2.1620 C.ar  436  TRP436      0.0001
     80  CH2      116.0150   47.5650    2.4260 C.ar  436  TRP436      0.0015
     81  N        116.1410   43.7710    7.5760 N.am  437  TRP437     -0.1974
     82  CA       116.9440   43.8190    8.7880 C.3   437  TRP437      0.1640
     83  C        116.5720   45.0350    9.6300 C.2   437  TRP437      0.2290
     84  O        116.6680   46.1730    9.1720 O.2   437  TRP437     -0.2864
     85  CB       118.4330   43.8470    8.4310 C.3   437  TRP437      0.0576
     86  CG       119.3570   43.8440    9.6090 C.ar  437  TRP437      0.0006
     87  CD1      119.0540   43.4970   10.8930 C.ar  437  TRP437      0.0946
     88  CD2      120.7430   44.2070    9.6080 C.ar  437  TRP437      0.0152
     89  NE1      120.1650   43.6220   11.6910 N.ar  437  TRP437     -0.2442
     90  CE2      121.2150   44.0560   10.9260 C.ar  437  TRP437      0.0810
     91  CE3      121.6300   44.6450    8.6200 C.ar  437  TRP437      0.0012
     92  CZ2      122.5340   44.3280   11.2820 C.ar  437  TRP437      0.0191
     93  CZ3      122.9380   44.9140    8.9750 C.ar  437  TRP437      0.0001
     94  CH2      123.3780   44.7540   10.2940 C.ar  437  TRP437      0.0015
@<TRIPOS>BOND
     1     1     2    1
     2     4     3    2
     3     2     3    1
     4     2     5    1
     5    52    50   am
     6    51    50    2
     7    50    49    1
     8     5     6    1
     9     6     7    1
    10    49    46    1
    11    39    38    2
    12     9     7   ar
    13     7     8   ar
    14    38    37    1
    15    46    45    1
    16    46    47    1
    17    44    43    1
    18    42    41    1
    19    42    43    1
    20    40    37    1
    21    40    41    1
    22    37    36    1
    23    48    47    2
    24    21    20    1
    25    33    32    2
    26    36    32   am
    27    32    31    1
    28    58    59    1
    29    58    57    1
    30    20    19   ar
    31    20    18   ar
    32    19    17   ar
    33    59    53    1
    34    57    54    1
    35    18    16   ar
    36    53    54    1
    37    54    55    1
    38    31    30    1
    39    31    34    1
    40    17    15   ar
    41    25    24    2
    42    79    80   ar
    43    79    77   ar
    44    35    34    1
    45    80    78   ar
    46    16    15   ar
    47    24    23    1
    48    15    14    1
    49    77    74   ar
    50    55    60   am
    51    55    56    2
    52    78    76   ar
    53    60    61    1
    54    10    11    1
    55    63    62    2
    56    23    26    1
    57    23    22    1
    58    74    76   ar
    59    74    72   ar
    60    14    11    1
    61    26    27    1
    62    76    75   ar
    63    11    12    1
    64    61    62    1
    65    61    64    1
    66    62    67   am
    67    72    71    1
    68    72    73   ar
    69    64    66    1
    70    64    65    1
    71    27    29    1
    72    27    28    1
    73    71    68    1
    74    75    73   ar
    75    67    68    1
    76    68    69    1
    77    12    13    2
    78    81    69   am
    79    81    82    1
    80    69    70    2
    81    85    82    1
    82    85    86    1
    83    91    93   ar
    84    91    88   ar
    85    82    83    1
    86    93    94   ar
    87    84    83    2
    88    88    86   ar
    89    88    90   ar
    90    86    87   ar
    91    94    92   ar
    92    87    89   ar
    93    90    92   ar
    94    90    89   ar
