@<TRIPOS>MOLECULE
tmp/4r6tD01.pdb
 193 181 0 0 0
SMALL
GASTEIGER

@<TRIPOS>ATOM
      1  N         64.8890   32.7570   22.6330 N.3   284  LYS284     -0.1245
      2  CA        66.2960   32.8030   23.0130 C.3   284  LYS284      0.1561
      3  C         66.4290   32.7960   24.5320 C.2   284  LYS284      0.2260
      4  O         65.7940   33.5940   25.2220 O.2   284  LYS284     -0.2867
      5  CB        66.9750   34.0380   22.4210 C.3   284  LYS284      0.0271
      6  CG        68.4370   34.1850   22.8040 C.3   284  LYS284      0.0035
      7  CD        69.0170   35.4850   22.2720 C.3   284  LYS284      0.0206
      8  CE        70.4430   35.6940   22.7590 C.3   284  LYS284      0.1093
      9  NZ        71.0250   36.9620   22.2420 N.3   284  LYS284     -0.1314
     10  N         74.5230   37.2450   29.3210 N.3   289  ASP289     -0.1239
     11  CA        75.4060   37.4590   28.1810 C.3   289  ASP289      0.1674
     12  C         76.5720   38.3700   28.5410 C.2   289  ASP289      0.2266
     13  O         76.4490   39.5940   28.5100 O.2   289  ASP289     -0.2867
     14  CB        74.6280   38.0560   27.0070 C.3   289  ASP289      0.1410
     15  CG        75.3940   37.9790   25.7020 C.2   289  ASP289      0.3668
     16  OD1       76.5550   37.5200   25.7140 O.co2 289  ASP289     -0.2456
     17  OD2       74.8360   38.3870   24.6630 O.co2 289  ASP289     -0.2456
     18  N         81.8950   42.0800   26.6330 N.3   296  LYS296     -0.1245
     19  CA        81.1990   43.3580   26.5560 C.3   296  LYS296      0.1561
     20  C         81.9020   44.4010   27.4150 C.2   296  LYS296      0.2260
     21  O         81.5020   44.6610   28.5500 O.2   296  LYS296     -0.2867
     22  CB        79.7390   43.2100   26.9890 C.3   296  LYS296      0.0271
     23  CG        78.9120   42.3390   26.0650 C.3   296  LYS296      0.0035
     24  CD        77.4830   42.1990   26.5580 C.3   296  LYS296      0.0206
     25  CE        76.6760   41.3120   25.6260 C.3   296  LYS296      0.1093
     26  NZ        76.5160   41.9460   24.2870 N.3   296  LYS296     -0.1314
     27  N         78.6660   51.4780   26.2660 N.3   300  GLY300     -0.1210
     28  CA        77.3270   51.3420   25.7260 C.3   300  GLY300      0.1956
     29  C         76.9460   49.8950   25.4790 C.2   300  GLY300      0.2613
     30  O         75.8970   49.6130   24.8990 O.2   300  GLY300     -0.2717
     31  N         77.8010   48.9760   25.9170 N.am  301  SER301     -0.1938
     32  CA        77.5480   47.5520   25.7340 C.3   301  SER301      0.2055
     33  C         76.5450   47.0480   26.7670 C.2   301  SER301      0.2642
     34  O         75.9570   45.9790   26.6010 O.2   301  SER301     -0.2714
     35  CB        78.8520   46.7550   25.8180 C.3   301  SER301      0.2130
     36  OG        79.5420   47.0250   27.0260 O.3   301  SER301     -0.2179
     37  N         76.3540   47.8320   27.8260 N.am  302  MET302     -0.1976
     38  CA        75.3300   47.5610   28.8350 C.3   302  MET302      0.1605
     39  C         75.3900   46.1390   29.3860 C.2   302  MET302      0.2287
     40  O         74.4170   45.3890   29.2980 O.2   302  MET302     -0.2864
     41  CB        73.9430   47.8240   28.2470 C.3   302  MET302      0.0413
     42  CG        73.6380   49.2920   28.0040 C.3   302  MET302      0.0598
     43  SD        71.9280   49.5700   27.5070 S.3   302  MET302     -0.1393
     44  CE        72.1580   50.6690   26.1110 C.3   302  MET302      0.0692
     45  N         72.8840   44.7740   32.0250 N.3   305  LEU305     -0.1231
     46  CA        71.5160   44.5110   31.5920 C.3   305  LEU305      0.1693
     47  C         71.3500   43.0880   31.0640 C.2   305  LEU305      0.2591
     48  O         70.2320   42.5910   30.9300 O.2   305  LEU305     -0.2718
     49  CB        71.1010   45.5160   30.5140 C.3   305  LEU305      0.0284
     50  CG        69.7480   45.2910   29.8320 C.3   305  LEU305      0.0019
     51  CD1       68.6060   45.5420   30.8030 C.3   305  LEU305      0.0001
     52  CD2       69.6100   46.1660   28.5950 C.3   305  LEU305      0.0001
     53  N         72.4700   42.4290   30.7900 N.am  306  MET306     -0.1979
     54  CA        72.4610   41.1790   30.0360 C.3   306  MET306      0.1605
     55  C         71.8760   39.9800   30.7840 C.2   306  MET306      0.2287
     56  O         72.0320   38.8390   30.3490 O.2   306  MET306     -0.2864
     57  CB        73.8770   40.8540   29.5640 C.3   306  MET306      0.0413
     58  CG        74.3500   41.7870   28.4640 C.3   306  MET306      0.0598
     59  SD        73.1270   41.8990   27.1400 S.3   306  MET306     -0.1393
     60  CE        73.5590   43.4720   26.4000 C.3   306  MET306      0.0692
     61  N         68.8180   39.9690   30.9060 N.3   308  PHE308     -0.1227
     62  CA        67.5680   39.9690   30.1530 C.3   308  PHE308      0.1736
     63  C         67.6860   39.2220   28.8280 C.2   308  PHE308      0.2595
     64  O         66.7410   39.1940   28.0390 O.2   308  PHE308     -0.2718
     65  CB        67.0990   41.4080   29.8990 C.3   308  PHE308      0.0547
     66  CG        67.6190   42.0080   28.6160 C.ar  308  PHE308     -0.0202
     67  CD1       66.7540   42.6500   27.7440 C.ar  308  PHE308     -0.0042
     68  CD2       68.9640   41.9440   28.2870 C.ar  308  PHE308     -0.0042
     69  CE1       67.2170   43.2050   26.5650 C.ar  308  PHE308     -0.0003
     70  CE2       69.4330   42.4960   27.1090 C.ar  308  PHE308     -0.0003
     71  CZ        68.5570   43.1290   26.2480 C.ar  308  PHE308     -0.0000
     72  N         68.8400   38.6060   28.5900 N.am  309  ASP309     -0.1974
     73  CA        69.1050   37.9630   27.3070 C.3   309  ASP309      0.1709
     74  C         68.3210   36.6620   27.1620 C.2   309  ASP309      0.2293
     75  O         68.4780   35.9330   26.1820 O.2   309  ASP309     -0.2864
     76  CB        70.6000   37.6970   27.1390 C.3   309  ASP309      0.1436
     77  CG        71.0490   37.7950   25.6960 C.2   309  ASP309      0.3671
     78  OD1       70.4230   38.5550   24.9280 O.co2 309  ASP309     -0.2456
     79  OD2       72.0290   37.1130   25.3280 O.co2 309  ASP309     -0.2456
     80  N         82.7160   35.9330   16.4180 N.3   367  ASN367     -0.1240
     81  CA        82.4650   36.7540   17.5960 C.3   367  ASN367      0.1653
     82  C         81.6420   35.9790   18.6220 C.2   367  ASN367      0.2266
     83  O         80.4870   35.6360   18.3710 O.2   367  ASN367     -0.2867
     84  CB        81.7460   38.0470   17.2020 C.3   367  ASN367      0.1155
     85  CG        81.7130   39.0690   18.3250 C.2   367  ASN367      0.2627
     86  OD1       81.6100   38.7190   19.5010 O.2   367  ASN367     -0.2716
     87  ND2       81.7910   40.3450   17.9630 N.am  367  ASN367     -0.0877
     88  N         80.2620   36.9380   21.0900 N.3   369  ASP369     -0.1225
     89  CA        79.1610   37.7500   21.5950 C.3   369  ASP369      0.1805
     90  C         77.9330   37.5860   20.7060 C.2   369  ASP369      0.2598
     91  O         76.8560   38.0930   21.0160 O.2   369  ASP369     -0.2718
     92  CB        79.5660   39.2230   21.6760 C.3   369  ASP369      0.1424
     93  CG        78.6410   40.0330   22.5620 C.2   369  ASP369      0.3668
     94  OD1       77.9000   39.4250   23.3610 O.co2 369  ASP369     -0.2456
     95  OD2       78.6530   41.2780   22.4600 O.co2 369  ASP369     -0.2456
     96  N         78.1090   36.8870   19.5900 N.am  370  ALA370     -0.1966
     97  CA        76.9930   36.5250   18.7250 C.3   370  ALA370      0.1728
     98  C         76.4860   35.1270   19.0690 C.2   370  ALA370      0.2616
     99  O         76.2880   34.2920   18.1860 O.2   370  ALA370     -0.2715
    100  CB        77.4070   36.6000   17.2640 C.3   370  ALA370      0.0334
    101  N         76.2800   34.8800   20.3600 N.am  371  GLU371     -0.1963
    102  CA        75.9490   33.5440   20.8460 C.3   371  GLU371      0.1733
    103  C         74.4900   33.1570   20.6120 C.2   371  GLU371      0.2617
    104  O         74.1650   31.9720   20.5260 O.2   371  GLU371     -0.2715
    105  CB        76.2640   33.4370   22.3410 C.3   371  GLU371      0.0429
    106  CG        75.1510   33.9480   23.2470 C.3   371  GLU371      0.1163
    107  CD        74.9740   35.4510   23.1670 C.2   371  GLU371      0.3649
    108  OE1       75.9480   36.1500   22.8210 O.co2 371  GLU371     -0.2457
    109  OE2       73.8580   35.9340   23.4470 O.co2 371  GLU371     -0.2457
    110  N         73.6180   34.1550   20.5140 N.am  372  GLY372     -0.1940
    111  CA        72.1940   33.9100   20.3740 C.3   372  GLY372      0.2014
    112  C         71.8160   33.0800   19.1620 C.2   372  GLY372      0.2638
    113  O         71.1070   32.0810   19.2810 O.2   372  GLY372     -0.2714
    114  N         72.3060   33.4870   17.9960 N.am  373  ARG373     -0.1977
    115  CA        71.9850   32.8110   16.7450 C.3   373  ARG373      0.1597
    116  C         72.5230   31.3830   16.7220 C.2   373  ARG373      0.2287
    117  O         71.9840   30.5180   16.0320 O.2   373  ARG373     -0.2864
    118  CB        72.5370   33.6030   15.5590 C.3   373  ARG373      0.0334
    119  CG        74.0510   33.5770   15.4500 C.3   373  ARG373      0.0492
    120  CD        74.5540   34.6590   14.5120 C.3   373  ARG373      0.2205
    121  NE        74.2900   35.9920   15.0450 N.pl3 373  ARG373     -0.0865
    122  CZ        74.5570   37.1230   14.4000 C.cat 373  ARG373      0.5346
    123  NH1       75.0970   37.0900   13.1890 N.pl3 373  ARG373      0.1354
    124  NH2       74.2860   38.2890   14.9680 N.pl3 373  ARG373      0.1354
    125  N         66.2050   38.6220   21.8470 N.3   396  THR396     -0.1203
    126  CA        66.9480   39.8710   21.9450 C.3   396  THR396      0.1994
    127  C         68.2770   39.7050   21.2150 C.2   396  THR396      0.2618
    128  O         69.3260   39.5530   21.8410 O.2   396  THR396     -0.2717
    129  CB        67.1930   40.2660   23.4100 C.3   396  THR396      0.1784
    130  OG1       67.7440   39.1480   24.1170 O.3   396  THR396     -0.2211
    131  CG2       65.8860   40.6720   24.0780 C.3   396  THR396      0.0376
    132  N         68.2270   39.7390   19.8860 N.am  397  LEU397     -0.1965
    133  CA        69.3430   39.2700   19.0690 C.3   397  LEU397      0.1728
    134  C         70.3930   40.3300   18.7310 C.2   397  LEU397      0.2617
    135  O         71.5890   40.0770   18.8640 O.2   397  LEU397     -0.2715
    136  CB        68.8050   38.6650   17.7690 C.3   397  LEU397      0.0311
    137  CG        69.6940   37.6190   17.0960 C.3   397  LEU397      0.0022
    138  CD1       69.9100   36.4300   18.0190 C.3   397  LEU397      0.0001
    139  CD2       69.0910   37.1700   15.7750 C.3   397  LEU397      0.0001
    140  N         69.9570   41.5040   18.2860 N.am  398  THR398     -0.1937
    141  CA        70.8960   42.5140   17.8020 C.3   398  THR398      0.2028
    142  C         70.6410   43.9000   18.3840 C.2   398  THR398      0.2643
    143  O         69.5150   44.3970   18.3620 O.2   398  THR398     -0.2714
    144  CB        70.8590   42.6150   16.2670 C.3   398  THR398      0.1808
    145  OG1       69.5230   42.9020   15.8360 O.3   398  THR398     -0.2208
    146  CG2       71.3270   41.3100   15.6360 C.3   398  THR398      0.0379
    147  N         71.7010   44.5220   18.8930 N.am  399  GLY399     -0.1939
    148  CA        71.6190   45.8630   19.4430 C.3   399  GLY399      0.2014
    149  C         71.3110   46.9270   18.4060 C.2   399  GLY399      0.2638
    150  O         70.8800   48.0290   18.7470 O.2   399  GLY399     -0.2714
    151  N         71.5340   46.5970   17.1370 N.am  400  ALA400     -0.1977
    152  CA        71.2700   47.5230   16.0400 C.3   400  ALA400      0.1597
    153  C         69.7940   47.9150   15.9860 C.2   400  ALA400      0.2287
    154  O         69.4370   48.9440   15.4080 O.2   400  ALA400     -0.2864
    155  CB        71.7050   46.9150   14.7170 C.3   400  ALA400      0.0319
    156  N         68.1150   49.1060   18.2070 N.3   402  LEU402     -0.1245
    157  CA        68.0080   50.3990   18.8650 C.3   402  LEU402      0.1561
    158  C         68.2040   51.5340   17.8640 C.2   402  LEU402      0.2260
    159  O         67.7560   52.6580   18.0890 O.2   402  LEU402     -0.2867
    160  CB        69.0300   50.5090   19.9970 C.3   402  LEU402      0.0270
    161  CG        68.7250   49.7150   21.2690 C.3   402  LEU402      0.0019
    162  CD1       69.8700   49.8280   22.2660 C.3   402  LEU402      0.0001
    163  CD2       67.4200   50.1840   21.8950 C.3   402  LEU402      0.0001
    164  N         79.0900   35.5780   11.6410 N.3   457  ILE457     -0.1245
    165  CA        78.8400   37.0040   11.4700 C.3   457  ILE457      0.1561
    166  C         79.5010   37.5410   10.2070 C.2   457  ILE457      0.2260
    167  O         80.3250   36.8690    9.5870 O.2   457  ILE457     -0.2867
    168  CB        79.3550   37.8190   12.6710 C.3   457  ILE457      0.0252
    169  CG1       80.8450   37.5530   12.8950 C.3   457  ILE457      0.0019
    170  CG2       78.5420   37.5090   13.9180 C.3   457  ILE457      0.0019
    171  CD1       81.5470   38.6400   13.6810 C.3   457  ILE457      0.0001
    172  N         73.4990   44.3880   10.7750 N.3   464  SER464     -0.1217
    173  CA        73.6740   43.2280   11.6440 C.3   464  SER464      0.1889
    174  C         72.3790   42.4540   11.8580 C.2   464  SER464      0.2288
    175  O         72.3790   41.2240   11.8990 O.2   464  SER464     -0.2866
    176  CB        74.2470   43.6640   12.9940 C.3   464  SER464      0.2089
    177  OG        73.3790   44.5750   13.6440 O.3   464  SER464     -0.2183
    178  N         65.3780   43.0150   20.8750 N.3   487  ALA487     -0.1245
    179  CA        66.5130   43.5520   21.6200 C.3   487  ALA487      0.1562
    180  C         66.2730   44.9810   22.1050 C.2   487  ALA487      0.2260
    181  O         66.6430   45.3340   23.2250 O.2   487  ALA487     -0.2867
    182  CB        67.7720   43.4940   20.7680 C.3   487  ALA487      0.0290
    183  N         63.9770   51.1320   29.6720 N.3   493  PHE493     -0.1241
    184  CA        65.1460   51.7830   30.2520 C.3   493  PHE493      0.1605
    185  C         64.7760   52.9280   31.1910 C.2   493  PHE493      0.2264
    186  O         65.4200   53.1280   32.2210 O.2   493  PHE493     -0.2867
    187  CB        66.0610   52.2960   29.1370 C.3   493  PHE493      0.0534
    188  CG        66.5850   51.2110   28.2390 C.ar  493  PHE493     -0.0203
    189  CD1       65.8830   50.8360   27.1040 C.ar  493  PHE493     -0.0042
    190  CD2       67.7730   50.5620   28.5300 C.ar  493  PHE493     -0.0042
    191  CE1       66.3580   49.8370   26.2750 C.ar  493  PHE493     -0.0003
    192  CE2       68.2540   49.5610   27.7040 C.ar  493  PHE493     -0.0003
    193  CZ        67.5460   49.1990   26.5750 C.ar  493  PHE493     -0.0000
@<TRIPOS>BOND
     1   167   166    2
     2   166   165    1
     3   172   173    1
     4   165   164    1
     5   165   168    1
     6   173   174    1
     7   173   176    1
     8   174   175    2
     9   168   169    1
    10   168   170    1
    11   169   171    1
    12   176   177    1
    13   123   122    1
    14   122   124    1
    15   122   121    2
    16   120   121    1
    17   120   119    1
    18   155   152    1
    19   154   153    2
    20   119   118    1
    21   118   115    1
    22   146   144    1
    23   139   137    1
    24   145   144    1
    25   153   152    1
    26   117   116    2
    27   152   151    1
    28   144   141    1
    29    80    81    1
    30   116   115    1
    31   115   114    1
    32   137   136    1
    33   137   138    1
    34   151   149   am
    35    84    81    1
    36    84    85    1
    37   100    97    1
    38    81    82    1
    39   136   133    1
    40   141   140    1
    41   141   142    1
    42   158   159    2
    43   158   157    1
    44    87    85   am
    45   114   112   am
    46    99    98    2
    47   156   157    1
    48   140   134   am
    49    85    86    2
    50   143   142    2
    51    83    82    2
    52   142   147   am
    53   149   150    2
    54   149   148    1
    55    97    98    1
    56    97    96    1
    57   134   135    2
    58   134   133    1
    59   157   160    1
    60   147   148    1
    61    98   101   am
    62   133   132    1
    63   112   113    2
    64   112   111    1
    65    96    90   am
    66   132   127   am
    67   160   161    1
    68   101   102    1
    69   111   110    1
    70   110   103   am
    71   104   103    2
    72   103   102    1
    73    90    91    2
    74    90    89    1
    75   182   179    1
    76   102   105    1
    77   178   179    1
    78    88    89    1
    79   127   128    2
    80   127   126    1
    81   161   163    1
    82   161   162    1
    83    89    92    1
    84   179   180    1
    85    92    93    1
    86   125   126    1
    87   126   129    1
    88   180   181    2
    89     9     8    1
    90     7     8    1
    91     7     6    1
    92   105   106    1
    93     5     6    1
    94     5     2    1
    95    95    93   ar
    96    93    94   ar
    97     1     2    1
    98   108   107   ar
    99     2     3    1
   100   107   106    1
   101   107   109   ar
   102   129   131    1
   103   129   130    1
   104    26    25    1
   105     3     4    2
   106    17    15   ar
   107    30    29    2
   108    78    77   ar
   109    79    77   ar
   110    29    28    1
   111    29    31   am
   112    25    24    1
   113    77    76    1
   114    15    16   ar
   115    15    14    1
   116    28    27    1
   117    32    35    1
   118    32    31    1
   119    32    33    1
   120    35    36    1
   121    23    24    1
   122    23    22    1
   123    44    43    1
   124    75    74    2
   125    71    69   ar
   126    71    70   ar
   127   191   193   ar
   128   191   189   ar
   129    60    59    1
   130    19    18    1
   131    19    22    1
   132    19    20    1
   133    69    67   ar
   134   193   192   ar
   135    34    33    2
   136    33    37   am
   137    14    11    1
   138   189   188   ar
   139    70    68   ar
   140    76    73    1
   141    59    58    1
   142    74    73    1
   143    73    72    1
   144    20    21    2
   145    43    42    1
   146   192   190   ar
   147    67    66   ar
   148    37    38    1
   149    42    41    1
   150    64    63    2
   151    11    12    1
   152    11    10    1
   153   188   190   ar
   154   188   187    1
   155    41    38    1
   156    68    66   ar
   157    58    57    1
   158    13    12    2
   159    72    63   am
   160    52    50    1
   161    66    65    1
   162    63    62    1
   163    38    39    1
   164   187   184    1
   165    40    39    2
   166    57    54    1
   167   183   184    1
   168    50    49    1
   169    50    51    1
   170    65    62    1
   171    54    55    1
   172    54    53    1
   173    62    61    1
   174   184   185    1
   175    56    55    2
   176    49    46    1
   177    53    47   am
   178    48    47    2
   179    47    46    1
   180   185   186    2
   181    46    45    1
