@<TRIPOS>MOLECULE
tmp/4r6tL00.pdb
 192 180 0 0 0
SMALL
GASTEIGER

@<TRIPOS>ATOM
      1  N         94.4000   47.8110  169.1260 N.3   280  LYS280     -0.1245
      2  CA        94.0230   47.0900  167.9170 C.3   280  LYS280      0.1561
      3  C         95.1280   46.1140  167.5370 C.2   280  LYS280      0.2260
      4  O         96.2930   46.4960  167.4350 O.2   280  LYS280     -0.2867
      5  CB        93.7530   48.0580  166.7650 C.3   280  LYS280      0.0271
      6  CG        93.4030   47.3740  165.4520 C.3   280  LYS280      0.0035
      7  CD        93.2560   48.3800  164.3210 C.3   280  LYS280      0.0206
      8  CE        93.0310   47.6810  162.9900 C.3   280  LYS280      0.1093
      9  NZ        92.8810   48.6510  161.8700 N.3   280  LYS280     -0.1314
     10  N         96.5140   43.2340  157.6500 N.3   285  ASP285     -0.1239
     11  CA        95.2660   43.7400  157.0970 C.3   285  ASP285      0.1674
     12  C         95.2650   43.7010  155.5730 C.2   285  ASP285      0.2266
     13  O         95.7960   44.6000  154.9210 O.2   285  ASP285     -0.2867
     14  CB        95.0190   45.1670  157.5870 C.3   285  ASP285      0.1410
     15  CG        93.5950   45.6250  157.3580 C.2   285  ASP285      0.3668
     16  OD1       92.8110   44.8680  156.7510 O.co2 285  ASP285     -0.2456
     17  OD2       93.2610   46.7460  157.7920 O.co2 285  ASP285     -0.2456
     18  N         92.6160   45.5930  149.5970 N.3   292  LYS292     -0.1245
     19  CA        93.3780   46.8160  149.3890 C.3   292  LYS292      0.1561
     20  C         94.1010   46.7550  148.0510 C.2   292  LYS292      0.2260
     21  O         95.2860   46.4250  147.9880 O.2   292  LYS292     -0.2867
     22  CB        94.3780   47.0380  150.5250 C.3   292  LYS292      0.0271
     23  CG        93.7420   47.2970  151.8810 C.3   292  LYS292      0.0035
     24  CD        94.8020   47.4660  152.9600 C.3   292  LYS292      0.0206
     25  CE        94.1730   47.7110  154.3220 C.3   292  LYS292      0.1093
     26  NZ        93.4540   49.0170  154.3670 N.3   292  LYS292     -0.1314
     27  N         97.3620   53.7090  146.6510 N.3   296  GLY296     -0.1210
     28  CA        97.5220   54.4300  147.9000 C.3   296  GLY296      0.1956
     29  C         96.9830   53.6670  149.0940 C.2   296  GLY296      0.2613
     30  O         96.9400   54.1890  150.2080 O.2   296  GLY296     -0.2717
     31  N         96.5790   52.4210  148.8630 N.am  297  SER297     -0.1938
     32  CA        96.0370   51.5870  149.9290 C.3   297  SER297      0.2055
     33  C         97.1650   51.0190  150.7830 C.2   297  SER297      0.2642
     34  O         96.9360   50.5580  151.9020 O.2   297  SER297     -0.2714
     35  CB        95.1790   50.4590  149.3500 C.3   297  SER297      0.2130
     36  OG        95.8990   49.7040  148.3920 O.3   297  SER297     -0.2179
     37  N         98.3810   51.0650  150.2440 N.am  298  MET298     -0.1976
     38  CA        99.5860   50.6860  150.9770 C.3   298  MET298      0.1605
     39  C         99.4870   49.3120  151.6380 C.2   298  MET298      0.2287
     40  O         99.6400   49.1870  152.8530 O.2   298  MET298     -0.2864
     41  CB        99.9050   51.7440  152.0360 C.3   298  MET298      0.0413
     42  CG       100.4010   53.0640  151.4650 C.3   298  MET298      0.0598
     43  SD       100.9730   54.2080  152.7370 S.3   298  MET298     -0.1393
     44  CE       100.1630   55.7210  152.2240 C.3   298  MET298      0.0692
     45  N        102.3420   47.7500  153.7710 N.3   301  LEU301     -0.1231
     46  CA       102.5760   48.3250  155.0910 C.3   301  LEU301      0.1693
     47  C        101.7190   47.6750  156.1750 C.2   301  LEU301      0.2591
     48  O        101.9900   47.8330  157.3640 O.2   301  LEU301     -0.2718
     49  CB       102.3130   49.8340  155.0620 C.3   301  LEU301      0.0284
     50  CG       102.3600   50.5680  156.4050 C.3   301  LEU301      0.0019
     51  CD1      103.7790   50.6040  156.9540 C.3   301  LEU301      0.0001
     52  CD2      101.7900   51.9740  156.2770 C.3   301  LEU301      0.0001
     53  N        100.7040   46.9220  155.7630 N.am  302  MET302     -0.1979
     54  CA        99.6590   46.4820  156.6860 C.3   302  MET302      0.1605
     55  C        100.1110   45.4520  157.7200 C.2   302  MET302      0.2287
     56  O         99.2820   44.8620  158.4130 O.2   302  MET302     -0.2864
     57  CB        98.4740   45.9200  155.8970 C.3   302  MET302      0.0413
     58  CG        97.6840   46.9820  155.1540 C.3   302  MET302      0.0598
     59  SD        97.2380   48.3530  156.2360 S.3   302  MET302     -0.1393
     60  CE        96.9730   49.6600  155.0420 C.3   302  MET302      0.0692
     61  N        101.7980   46.6310  160.0070 N.3   304  PHE304     -0.1227
     62  CA       101.8580   47.5900  161.1040 C.3   304  PHE304      0.1736
     63  C        100.4830   47.7830  161.7360 C.2   304  PHE304      0.2595
     64  O        100.3080   48.6050  162.6360 O.2   304  PHE304     -0.2718
     65  CB       102.4210   48.9300  160.6100 C.3   304  PHE304      0.0547
     66  CG       101.3700   49.9280  160.1960 C.ar  304  PHE304     -0.0202
     67  CD1      101.2850   51.1590  160.8260 C.ar  304  PHE304     -0.0042
     68  CD2      100.4690   49.6390  159.1830 C.ar  304  PHE304     -0.0042
     69  CE1      100.3260   52.0830  160.4530 C.ar  304  PHE304     -0.0003
     70  CE2       99.5050   50.5590  158.8060 C.ar  304  PHE304     -0.0003
     71  CZ        99.4340   51.7820  159.4420 C.ar  304  PHE304     -0.0000
     72  N         99.5130   47.0070  161.2650 N.am  305  ASP305     -0.1974
     73  CA        98.1310   47.1520  161.7050 C.3   305  ASP305      0.1709
     74  C         97.9150   46.6000  163.1100 C.2   305  ASP305      0.2293
     75  O         96.7890   46.5630  163.6050 O.2   305  ASP305     -0.2864
     76  CB        97.1880   46.4570  160.7240 C.3   305  ASP305      0.1436
     77  CG        95.8470   47.1490  160.6190 C.2   305  ASP305      0.3671
     78  OD1       95.7950   48.3790  160.8280 O.co2 305  ASP305     -0.2456
     79  OD2       94.8460   46.4620  160.3310 O.co2 305  ASP305     -0.2456
     80  N         81.9710   46.9820  154.7350 N.3   363  ASN363     -0.1240
     81  CA        83.3270   46.9440  154.2020 C.3   363  ASN363      0.1653
     82  C         84.2340   46.0800  155.0750 C.2   363  ASN363      0.2266
     83  O         84.4920   46.4100  156.2330 O.2   363  ASN363     -0.2867
     84  CB        83.8910   48.3620  154.0810 C.3   363  ASN363      0.1155
     85  CG        85.1660   48.4200  153.2580 C.2   363  ASN363      0.2627
     86  OD1       85.9880   47.5060  153.2940 O.2   363  ASN363     -0.2716
     87  ND2       85.3330   49.5030  152.5080 N.am  363  ASN363     -0.0877
     88  N         87.2250   45.7870  155.0470 N.3   365  ASP365     -0.1225
     89  CA        88.4910   46.4580  155.3200 C.3   365  ASP365      0.1805
     90  C         88.3890   47.3500  156.5540 C.2   365  ASP365      0.2598
     91  O         89.3890   47.8870  157.0280 O.2   365  ASP365     -0.2718
     92  CB        88.9310   47.2840  154.1090 C.3   365  ASP365      0.1424
     93  CG        90.3950   47.6750  154.1700 C.2   365  ASP365      0.3668
     94  OD1       91.1460   47.0600  154.9550 O.co2 365  ASP365     -0.2456
     95  OD2       90.7940   48.6010  153.4340 O.co2 365  ASP365     -0.2456
     96  N         87.1750   47.5100  157.0670 N.am  366  ALA366     -0.1966
     97  CA        86.9650   48.2140  158.3260 C.3   366  ALA366      0.1728
     98  C         86.9050   47.2190  159.4790 C.2   366  ALA366      0.2616
     99  O         86.0080   47.2800  160.3180 O.2   366  ALA366     -0.2715
    100  CB        85.6940   49.0470  158.2680 C.3   366  ALA366      0.0334
    101  N         87.8670   46.3010  159.5120 N.am  367  GLU367     -0.1963
    102  CA        87.8410   45.1980  160.4650 C.3   367  GLU367      0.1733
    103  C         88.2690   45.6340  161.8610 C.2   367  GLU367      0.2617
    104  O         87.9010   45.0060  162.8530 O.2   367  GLU367     -0.2715
    105  CB        88.7410   44.0550  159.9840 C.3   367  GLU367      0.0429
    106  CG        90.2080   44.2170  160.3550 C.3   367  GLU367      0.1163
    107  CD        90.8810   45.3520  159.6080 C.2   367  GLU367      0.3649
    108  OE1       90.4100   45.7030  158.5070 O.co2 367  GLU367     -0.2457
    109  OE2       91.8780   45.8950  160.1240 O.co2 367  GLU367     -0.2457
    110  N         89.0510   46.7060  161.9320 N.am  368  GLY368     -0.1940
    111  CA        89.5820   47.1820  163.1970 C.3   368  GLY368      0.2014
    112  C         88.5170   47.5270  164.2220 C.2   368  GLY368      0.2638
    113  O         88.5690   47.0650  165.3620 O.2   368  GLY368     -0.2714
    114  N         87.5430   48.3340  163.8140 N.am  369  ARG369     -0.1977
    115  CA        86.4850   48.7730  164.7180 C.3   369  ARG369      0.1597
    116  C         85.6220   47.6040  165.1830 C.2   369  ARG369      0.2287
    117  O         85.0290   47.6500  166.2600 O.2   369  ARG369     -0.2864
    118  CB        85.6170   49.8400  164.0480 C.3   369  ARG369      0.0334
    119  CG        84.7540   49.3260  162.9110 C.3   369  ARG369      0.0492
    120  CD        84.2100   50.4800  162.0860 C.3   369  ARG369      0.2205
    121  NE        85.2810   51.2050  161.4080 N.pl3 369  ARG369     -0.0865
    122  CZ        85.1000   52.3070  160.6880 C.cat 369  ARG369      0.5346
    123  NH1       83.8860   52.8220  160.5500 N.pl3 369  ARG369      0.1354
    124  NH2       86.1360   52.8960  160.1070 N.pl3 369  ARG369      0.1354
    125  N         95.5160   51.9230  164.7750 N.3   392  THR392     -0.1203
    126  CA        95.6540   52.4610  163.4320 C.3   392  THR392      0.1994
    127  C         94.3320   52.2510  162.7050 C.2   392  THR392      0.2618
    128  O         94.2100   51.3650  161.8590 O.2   392  THR392     -0.2717
    129  CB        96.7970   51.7840  162.6570 C.3   392  THR392      0.1784
    130  OG1       96.6460   50.3610  162.7270 O.3   392  THR392     -0.2211
    131  CG2       98.1440   52.1710  163.2470 C.3   392  THR392      0.0376
    132  N         93.3440   53.0730  163.0440 N.am  393  LEU393     -0.1965
    133  CA        91.9620   52.8020  162.6680 C.3   393  LEU393      0.1728
    134  C         91.5830   53.3830  161.3090 C.2   393  LEU393      0.2617
    135  O         90.9930   52.6900  160.4810 O.2   393  LEU393     -0.2715
    136  CB        91.0120   53.3390  163.7420 C.3   393  LEU393      0.0311
    137  CG        89.6470   52.6520  163.8330 C.3   393  LEU393      0.0022
    138  CD1       89.8100   51.1760  164.1570 C.3   393  LEU393      0.0001
    139  CD2       88.7680   53.3340  164.8690 C.3   393  LEU393      0.0001
    140  N         91.9250   54.6440  161.0700 N.am  394  THR394     -0.1937
    141  CA        91.4820   55.3110  159.8510 C.3   394  THR394      0.2028
    142  C         92.6200   56.0180  159.1220 C.2   394  THR394      0.2642
    143  O         93.3660   56.7980  159.7140 O.2   394  THR394     -0.2714
    144  CB        90.3750   56.3400  160.1500 C.3   394  THR394      0.1808
    145  OG1       90.8420   57.2720  161.1320 O.3   394  THR394     -0.2208
    146  CG2       89.1290   55.6460  160.6750 C.3   394  THR394      0.0379
    147  N         92.7370   55.7380  157.8270 N.am  395  GLY395     -0.1954
    148  CA        93.7320   56.3780  156.9870 C.3   395  GLY395      0.1869
    149  C         93.4460   57.8540  156.8050 C.2   395  GLY395      0.2309
    150  O         94.3250   58.6260  156.4230 O.2   395  GLY395     -0.2863
    151  N         95.6060   60.8310  158.0660 N.3   398  LEU398     -0.1245
    152  CA        96.6700   61.4270  157.2700 C.3   398  LEU398      0.1561
    153  C         96.2150   62.7410  156.6430 C.2   398  LEU398      0.2260
    154  O         97.0350   63.5870  156.2880 O.2   398  LEU398     -0.2867
    155  CB        97.1340   60.4550  156.1830 C.3   398  LEU398      0.0270
    156  CG        97.9940   59.2850  156.6600 C.3   398  LEU398      0.0019
    157  CD1       98.3000   58.3370  155.5130 C.3   398  LEU398      0.0001
    158  CD2       99.2780   59.8010  157.2880 C.3   398  LEU398      0.0001
    159  N         79.8820   50.9600  158.8070 N.3   453  ILE453     -0.1245
    160  CA        80.4340   52.1590  158.1910 C.3   453  ILE453      0.1561
    161  C         79.3360   53.0610  157.6480 C.2   453  ILE453      0.2260
    162  O         78.1780   52.6560  157.5480 O.2   453  ILE453     -0.2867
    163  CB        81.3870   51.8070  157.0370 C.3   453  ILE453      0.0252
    164  CG1       80.6690   50.9160  156.0190 C.3   453  ILE453      0.0019
    165  CG2       82.6390   51.1290  157.5660 C.3   453  ILE453      0.0019
    166  CD1       81.2940   50.9230  154.6450 C.3   453  ILE453      0.0001
    167  N         85.5440   59.9690  158.1200 N.3   460  SER460     -0.1217
    168  CA        85.7720   58.5870  158.5320 C.3   460  SER460      0.1889
    169  C         86.2570   58.4440  159.9720 C.2   460  SER460      0.2288
    170  O         85.8420   57.5290  160.6820 O.2   460  SER460     -0.2866
    171  CB        86.7830   57.9280  157.5910 C.3   460  SER460      0.2089
    172  OG        86.4290   58.1420  156.2350 O.3   460  SER460     -0.2183
    173  N         96.7670   55.8970  163.1740 N.3   483  ALA483     -0.1231
    174  CA        96.9870   55.3650  161.8340 C.3   483  ALA483      0.1694
    175  C         98.0280   56.1690  161.0590 C.2   483  ALA483      0.2592
    176  O         98.8670   55.6030  160.3610 O.2   483  ALA483     -0.2718
    177  CB        95.6750   55.3260  161.0650 C.3   483  ALA483      0.0304
    178  N         97.9800   57.4880  161.2040 N.am  484  GLY484     -0.1957
    179  CA        98.8500   58.3690  160.4480 C.3   484  GLY484      0.1869
    180  C        100.2390   58.5580  161.0270 C.2   484  GLY484      0.2309
    181  O        101.1680   58.9230  160.3060 O.2   484  GLY484     -0.2863
    182  N        107.6130   56.9210  157.5190 N.3   489  PHE489     -0.1241
    183  CA       107.7940   56.6260  156.1010 C.3   489  PHE489      0.1605
    184  C        109.1610   57.0670  155.5920 C.2   489  PHE489      0.2264
    185  O        109.7690   56.3970  154.7590 O.2   489  PHE489     -0.2867
    186  CB       106.6920   57.2940  155.2770 C.3   489  PHE489      0.0534
    187  CG       105.3090   56.8130  155.6140 C.ar  489  PHE489     -0.0203
    188  CD1      104.5980   57.3840  156.6560 C.ar  489  PHE489     -0.0042
    189  CD2      104.7220   55.7880  154.8910 C.ar  489  PHE489     -0.0042
    190  CE1      103.3290   56.9420  156.9700 C.ar  489  PHE489     -0.0003
    191  CE2      103.4520   55.3430  155.2010 C.ar  489  PHE489     -0.0003
    192  CZ       102.7550   55.9210  156.2420 C.ar  489  PHE489     -0.0000
@<TRIPOS>BOND
     1    27    28    1
     2    28    29    1
     3    21    20    2
     4    20    19    1
     5    36    35    1
     6    31    29   am
     7    31    32    1
     8    29    30    2
     9    35    32    1
    10    19    18    1
    11    19    22    1
    12    32    33    1
    13    37    33   am
    14    37    38    1
    15    22    23    1
    16    33    34    2
    17    38    39    1
    18    38    41    1
    19    42    41    1
    20    42    43    1
    21    39    40    2
    22    23    24    1
    23    44    43    1
    24    87    85   am
    25    24    25    1
    26    85    86    2
    27    85    84    1
    28    95    93   ar
    29    45    46    1
    30    84    81    1
    31    92    93    1
    32    92    89    1
    33    93    94   ar
    34    81    80    1
    35    81    82    1
    36    25    26    1
    37   166   164    1
    38   185   184    2
    39   189   191   ar
    40   189   187   ar
    41    13    12    2
    42    60    59    1
    43    88    89    1
    44    49    46    1
    45    49    50    1
    46    82    83    2
    47    46    47    1
    48    58    57    1
    49    58    59    1
    50   191   192   ar
    51   186   187    1
    52   186   183    1
    53    89    90    1
    54   157   156    1
    55    12    11    1
    56   184   183    1
    57   187   188   ar
    58    53    47   am
    59    53    54    1
    60    57    54    1
    61   164   163    1
    62   183   182    1
    63    47    48    2
    64   155   156    1
    65   155   152    1
    66   172   171    1
    67   192   190   ar
    68    52    50    1
    69   154   153    2
    70    50    51    1
    71   150   149    2
    72    90    91    2
    73    90    96   am
    74   153   152    1
    75   188   190   ar
    76   156   158    1
    77    54    55    1
    78    16    15   ar
    79   149   148    1
    80   148   147    1
    81   163   165    1
    82   163   160    1
    83    96    97    1
    84    11    14    1
    85    11    10    1
    86   152   151    1
    87    15    14    1
    88    15    17   ar
    89   162   161    2
    90   171   168    1
    91   161   160    1
    92    55    56    2
    93   147   142   am
    94   167   168    1
    95   160   159    1
    96   100    97    1
    97    97    98    1
    98   108   107   ar
    99   168   169    1
   100    70    68   ar
   101    70    71   ar
   102   142   143    2
   103   142   141    1
   104    68    66   ar
   105    71    69   ar
   106    98   101   am
   107    98    99    2
   108   101   102    1
   109   107   109   ar
   110   107   106    1
   111   141   144    1
   112   141   140    1
   113   169   170    2
   114   105   106    1
   115   105   102    1
   116    61    62    1
   117   124   122    1
   118   144   146    1
   119   144   145    1
   120    66    65    1
   121    66    67   ar
   122   181   180    2
   123    79    77   ar
   124   176   175    2
   125   179   180    1
   126   179   178    1
   127    69    67   ar
   128   102   103    1
   129   135   134    2
   130   123   122    1
   131    65    62    1
   132    77    76    1
   133    77    78   ar
   134   122   121    2
   135    76    73    1
   136   175   178   am
   137   175   174    1
   138   177   174    1
   139   140   134   am
   140    62    63    1
   141    72    73    1
   142    72    63   am
   143   134   133    1
   144   121   120    1
   145    73    74    1
   146    63    64    2
   147   174   173    1
   148   128   127    2
   149   103   110   am
   150   103   104    2
   151     9     8    1
   152   110   111    1
   153   120   119    1
   154   129   130    1
   155   129   131    1
   156   129   126    1
   157   133   132    1
   158   133   136    1
   159   127   132   am
   160   127   126    1
   161   119   118    1
   162     8     7    1
   163    74    75    2
   164   111   112    1
   165   126   125    1
   166   136   137    1
   167   114   112   am
   168   114   115    1
   169   137   138    1
   170   137   139    1
   171   118   115    1
   172   112   113    2
   173     7     6    1
   174   115   116    1
   175   116   117    2
   176     6     5    1
   177     5     2    1
   178     4     3    2
   179     3     2    1
   180     2     1    1
