@<TRIPOS>MOLECULE
tmp/4r6vA00.pdb
 216 202 0 0 0
SMALL
GASTEIGER

@<TRIPOS>ATOM
      1  N        -59.3940  148.9550   -4.9400 N.3    31  LEU31      -0.1231
      2  CA       -59.7990  149.2700   -3.5830 C.3    31  LEU31       0.1693
      3  C        -58.6880  148.8540   -2.6110 C.2    31  LEU31       0.2593
      4  O        -58.4120  147.6620   -2.4370 O.2    31  LEU31      -0.2718
      5  CB       -61.1170  148.5640   -3.2600 C.3    31  LEU31       0.0284
      6  CG       -61.9380  148.9610   -2.0340 C.3    31  LEU31       0.0019
      7  CD1      -62.3850  150.4160   -2.0940 C.3    31  LEU31       0.0001
      8  CD2      -63.1410  148.0340   -1.9050 C.3    31  LEU31       0.0001
      9  N        -58.0370  149.8390   -1.9930 N.am   32  GLY32      -0.1942
     10  CA       -56.8710  149.5790   -1.1590 C.3    32  GLY32       0.2014
     11  C        -55.5830  149.4720   -1.9670 C.2    32  GLY32       0.2639
     12  O        -55.5060  149.9700   -3.0950 O.2    32  GLY32      -0.2714
     13  N        -54.5730  148.8220   -1.3910 N.am   33  GLU33      -0.1963
     14  CA       -53.2840  148.6450   -2.0610 C.3    33  GLU33       0.1733
     15  C        -52.9950  147.1840   -2.4000 C.2    33  GLU33       0.2617
     16  O        -51.8480  146.8250   -2.6700 O.2    33  GLU33      -0.2715
     17  CB       -52.1400  149.1940   -1.2010 C.3    33  GLU33       0.0429
     18  CG       -52.1140  150.7010   -1.0640 C.3    33  GLU33       0.1163
     19  CD       -52.9970  151.2050    0.0640 C.2    33  GLU33       0.3649
     20  OE1      -53.2620  152.4260    0.1030 O.co2  33  GLU33      -0.2457
     21  OE2      -53.4170  150.3860    0.9150 O.co2  33  GLU33      -0.2457
     22  N        -54.0340  146.3530   -2.3790 N.am   34  GLY34      -0.1940
     23  CA       -53.9100  144.9470   -2.7200 C.3    34  GLY34       0.2014
     24  C        -52.7120  144.2330   -2.1110 C.2    34  GLY34       0.2639
     25  O        -51.7800  143.8560   -2.8240 O.2    34  GLY34      -0.2714
     26  N        -52.6970  144.1540   -0.7800 N.am   35  CYS35      -0.1953
     27  CA       -51.8230  143.2810   -0.0170 C.3    35  CYS35       0.1843
     28  C        -52.4460  141.8800    0.0170 C.2    35  CYS35       0.2625
     29  O        -51.8210  140.9280    0.4440 O.2    35  CYS35      -0.2714
     30  CB       -51.7080  143.7330    1.4390 C.3    35  CYS35       0.0997
     31  SG       -50.5050  144.9810    1.9550 S.3    35  CYS35      -0.0797
     32  N        -53.6950  141.7790   -0.4300 N.am   36  PHE36      -0.1974
     33  CA       -54.5290  140.5980   -0.3030 C.3    36  PHE36       0.1639
     34  C        -55.2320  140.2990   -1.6250 C.2    36  PHE36       0.2290
     35  O        -56.4180  139.9730   -1.6430 O.2    36  PHE36      -0.2864
     36  CB       -55.5540  140.7970    0.8150 C.3    36  PHE36       0.0560
     37  CG       -54.9970  141.4760    2.0320 C.ar   36  PHE36      -0.0200
     38  CD1      -54.0560  140.8430    2.8260 C.ar   36  PHE36      -0.0042
     39  CD2      -55.4110  142.7520    2.3790 C.ar   36  PHE36      -0.0042
     40  CE1      -53.5410  141.4680    3.9460 C.ar   36  PHE36      -0.0003
     41  CE2      -54.9010  143.3820    3.4960 C.ar   36  PHE36      -0.0003
     42  CZ       -53.9640  142.7380    4.2800 C.ar   36  PHE36      -0.0000
     43  N        -58.3330  143.5620   -5.5940 N.3    39  VAL39      -0.1245
     44  CA       -59.6520  143.8560   -5.0710 C.3    39  VAL39       0.1561
     45  C        -60.1290  145.1580   -5.6470 C.2    39  VAL39       0.2260
     46  O        -59.4170  146.1620   -5.6520 O.2    39  VAL39      -0.2867
     47  CB       -59.6730  143.9250   -3.5290 C.3    39  VAL39       0.0252
     48  CG1      -61.0950  144.1600   -3.0470 C.3    39  VAL39       0.0019
     49  CG2      -59.1410  142.6330   -2.9540 C.3    39  VAL39       0.0019
     50  N        -67.6230  145.4270   -3.0350 N.3    54  ALA54      -0.1245
     51  CA       -66.2310  145.1240   -3.3340 C.3    54  ALA54       0.1562
     52  C        -66.1340  143.7960   -4.0580 C.2    54  ALA54       0.2260
     53  O        -66.9140  142.8890   -3.7970 O.2    54  ALA54      -0.2867
     54  CB       -65.4250  145.0950   -2.0790 C.3    54  ALA54       0.0290
     55  N        -63.4350  140.7220   -5.4320 N.3    56  LYS56      -0.1245
     56  CA       -62.0990  140.1530   -5.5240 C.3    56  LYS56       0.1561
     57  C        -61.9940  139.1930   -6.6990 C.2    56  LYS56       0.2260
     58  O        -62.8730  138.3740   -6.9170 O.2    56  LYS56      -0.2867
     59  CB       -61.7230  139.4400   -4.2290 C.3    56  LYS56       0.0271
     60  CG       -60.2820  138.9660   -4.1650 C.3    56  LYS56       0.0035
     61  CD       -59.9070  138.6480   -2.7220 C.3    56  LYS56       0.0206
     62  CE       -58.5830  137.9200   -2.6100 C.3    56  LYS56       0.1093
     63  NZ       -58.3040  137.6180   -1.1610 N.3    56  LYS56      -0.1314
     64  N        -58.5100  131.7160   -3.2080 N.3    70  LEU70      -0.1245
     65  CA       -59.7440  132.4860   -3.4250 C.3    70  LEU70       0.1561
     66  C        -60.9930  131.6000   -3.2700 C.2    70  LEU70       0.2260
     67  O        -61.9720  131.9940   -2.6300 O.2    70  LEU70      -0.2867
     68  CB       -59.7410  133.1430   -4.8180 C.3    70  LEU70       0.0270
     69  CG       -60.8240  134.1910   -5.1290 C.3    70  LEU70       0.0019
     70  CD1      -60.9490  135.2250   -3.9960 C.3    70  LEU70       0.0001
     71  CD2      -60.5100  134.8780   -6.4580 C.3    70  LEU70       0.0001
     72  N        -61.5020  130.8330    0.4640 N.3    73  GLU73      -0.1245
     73  CA       -62.0800  131.9520    1.1950 C.3    73  GLU73       0.1567
     74  C        -63.5650  132.0390    0.9090 C.2    73  GLU73       0.2260
     75  O        -64.3800  132.2140    1.8150 O.2    73  GLU73      -0.2867
     76  CB       -61.4210  133.2680    0.8190 C.3    73  GLU73       0.0388
     77  CG       -59.9320  133.3340    0.9860 C.3    73  GLU73       0.1160
     78  CD       -59.4230  134.7120    0.6140 C.2    73  GLU73       0.3649
     79  OE1      -59.4090  135.5860    1.5180 O.co2  73  GLU73      -0.2457
     80  OE2      -59.0860  134.9380   -0.5760 O.co2  73  GLU73      -0.2457
     81  N        -66.6550  131.8280    3.5590 N.3    77  MET77      -0.1245
     82  CA       -67.6100  132.9240    3.7740 C.3    77  MET77       0.1570
     83  C        -69.0630  132.4710    3.5960 C.2    77  MET77       0.2261
     84  O        -69.9640  133.0230    4.2300 O.2    77  MET77      -0.2867
     85  CB       -67.2900  134.0940    2.8410 C.3    77  MET77       0.0387
     86  CG       -65.9150  134.6970    3.1290 C.3    77  MET77       0.0595
     87  SD       -65.4000  135.9370    1.9310 S.3    77  MET77      -0.1393
     88  CE       -66.5300  137.2580    2.3670 C.3    77  MET77       0.0692
     89  N        -67.7270  141.7140    7.4980 N.3    87  ILE87      -0.1245
     90  CA       -67.7830  141.8560    6.0440 C.3    87  ILE87       0.1561
     91  C        -68.4640  140.6190    5.4730 C.2    87  ILE87       0.2260
     92  O        -67.9090  139.5280    5.5390 O.2    87  ILE87      -0.2867
     93  CB       -66.3800  142.0070    5.4050 C.3    87  ILE87       0.0252
     94  CG1      -65.6890  143.2800    5.8930 C.3    87  ILE87       0.0019
     95  CG2      -66.4840  141.9310    3.8900 C.3    87  ILE87       0.0019
     96  CD1      -66.2410  144.5490    5.2910 C.3    87  ILE87       0.0001
     97  N        -65.5340  137.2700   -6.6730 N.3   101  VAL101     -0.1245
     98  CA       -66.1100  137.1470   -5.3350 C.3   101  VAL101      0.1561
     99  C        -66.6060  138.5110   -4.8880 C.2   101  VAL101      0.2260
    100  O        -65.8240  139.4620   -4.7570 O.2   101  VAL101     -0.2867
    101  CB       -65.0960  136.5830   -4.3310 C.3   101  VAL101      0.0252
    102  CG1      -65.6970  136.5190   -2.9210 C.3   101  VAL101      0.0019
    103  CG2      -64.6420  135.1920   -4.7880 C.3   101  VAL101      0.0019
    104  N        -68.3920  141.0780   -2.2990 N.3   103  LEU103     -0.1231
    105  CA       -68.6280  141.2580   -0.8700 C.3   103  LEU103      0.1693
    106  C        -68.8640  142.7170   -0.4620 C.2   103  LEU103      0.2592
    107  O        -68.8130  143.6410   -1.2860 O.2   103  LEU103     -0.2718
    108  CB       -67.4720  140.6360   -0.0780 C.3   103  LEU103      0.0284
    109  CG       -66.0550  141.0550   -0.4760 C.3   103  LEU103      0.0019
    110  CD1      -65.4700  142.0320    0.5120 C.3   103  LEU103      0.0001
    111  CD2      -65.1150  139.8560   -0.7170 C.3   103  LEU103      0.0001
    112  N        -69.1800  142.9020    0.8120 N.am  104  GLU104     -0.1966
    113  CA       -69.5530  144.2090    1.3000 C.3   104  GLU104      0.1733
    114  C        -68.3790  145.1560    1.1680 C.2   104  GLU104      0.2616
    115  O        -67.2230  144.7540    1.3490 O.2   104  GLU104     -0.2715
    116  CB       -70.0410  144.1350    2.7420 C.3   104  GLU104      0.0429
    117  CG       -71.5020  143.7510    2.8420 C.3   104  GLU104      0.1163
    118  CD       -71.9670  143.5610    4.2820 C.2   104  GLU104      0.3649
    119  OE1      -73.1750  143.7080    4.5530 O.co2 104  GLU104     -0.2457
    120  OE2      -71.1310  143.2380    5.1400 O.co2 104  GLU104     -0.2457
    121  N        -68.6850  146.3960    0.8010 N.am  105  CYS105     -0.1954
    122  CA       -67.6760  147.4220    0.7010 C.3   105  CYS105      0.1843
    123  C        -67.7230  148.3010    1.9430 C.2   105  CYS105      0.2625
    124  O        -68.7990  148.6510    2.4250 O.2   105  CYS105     -0.2714
    125  CB       -67.8720  148.2700   -0.5600 C.3   105  CYS105      0.0997
    126  SG       -66.6260  149.6070   -0.6930 S.3   105  CYS105     -0.0797
    127  N        -66.5560  148.6470    2.4580 N.am  106  ALA106     -0.1963
    128  CA       -66.4580  149.5830    3.5700 C.3   106  ALA106      0.1728
    129  C        -65.7470  150.8240    3.0920 C.2   106  ALA106      0.2616
    130  O        -64.5230  150.8200    2.9720 O.2   106  ALA106     -0.2715
    131  CB       -65.7140  148.9590    4.7260 C.3   106  ALA106      0.0334
    132  N        -66.4930  151.8860    2.8130 N.am  107  ALA107     -0.1977
    133  CA       -65.9090  153.0340    2.1210 C.3   107  ALA107      0.1597
    134  C        -64.8280  153.7820    2.9110 C.2   107  ALA107      0.2287
    135  O        -63.9390  154.3890    2.3180 O.2   107  ALA107     -0.2864
    136  CB       -67.0050  154.0050    1.7200 C.3   107  ALA107      0.0319
    137  N        -62.3120  152.8120    4.9210 N.3   109  GLY109     -0.1210
    138  CA       -61.0520  152.1700    5.2770 C.3   109  GLY109      0.1956
    139  C        -61.0640  151.4070    6.5980 C.2   109  GLY109      0.2611
    140  O        -62.1340  151.1150    7.1430 O.2   109  GLY109     -0.2717
    141  N        -59.8840  151.0560    7.1140 N.am  110  ASN110     -0.1974
    142  CA       -59.8310  150.2940    8.3530 C.3   110  ASN110      0.1688
    143  C        -59.9250  151.1870    9.5810 C.2   110  ASN110      0.2292
    144  O        -59.8100  152.4130    9.5020 O.2   110  ASN110     -0.2864
    145  CB       -58.5770  149.4020    8.4320 C.3   110  ASN110      0.1181
    146  CG       -57.2780  150.1630    8.6820 C.2   110  ASN110      0.2629
    147  OD1      -57.1690  151.0020    9.5730 O.2   110  ASN110     -0.2716
    148  ND2      -56.2640  149.8270    7.9050 N.am  110  ASN110     -0.0877
    149  N        -56.7180  153.5640   10.7010 N.3   113  GLU113     -0.1245
    150  CA       -56.5830  154.8020    9.9300 C.3   113  GLU113      0.1567
    151  C        -57.7110  155.7800   10.2230 C.2   113  GLU113      0.2260
    152  O        -57.4740  156.9890   10.3750 O.2   113  GLU113     -0.2867
    153  CB       -56.5390  154.5030    8.4390 C.3   113  GLU113      0.0388
    154  CG       -55.2860  153.7900    8.0060 C.3   113  GLU113      0.1160
    155  CD       -55.4420  153.0730    6.6630 C.2   113  GLU113      0.3649
    156  OE1      -54.4260  152.5000    6.2000 O.co2 113  GLU113     -0.2457
    157  OE2      -56.5680  153.0680    6.0820 O.co2 113  GLU113     -0.2457
    158  N        -56.5280  147.3060   12.4160 N.3   156  ARG156     -0.1245
    159  CA       -56.2320  147.3220   10.9860 C.3   156  ARG156      0.1563
    160  C        -57.1380  146.3060   10.2570 C.2   156  ARG156      0.2260
    161  O        -57.3440  146.4110    9.0500 O.2   156  ARG156     -0.2867
    162  CB       -54.7470  147.0180   10.7170 C.3   156  ARG156      0.0307
    163  CG       -54.4300  145.5410   10.8990 C.3   156  ARG156      0.0489
    164  CD       -52.9540  145.1840   10.7900 C.3   156  ARG156      0.2205
    165  NE       -52.7560  143.8100   11.2450 N.pl3 156  ARG156     -0.0865
    166  CZ       -52.3640  143.4900   12.4710 C.cat 156  ARG156      0.5346
    167  NH1      -52.2370  142.2110   12.8190 N.pl3 156  ARG156      0.1354
    168  NH2      -52.0980  144.4580   13.3460 N.pl3 156  ARG156      0.1354
    169  N        -63.1440  147.1640    9.4480 N.3   159  LEU159     -0.1245
    170  CA       -63.3790  148.1320    8.3780 C.3   159  LEU159      0.1561
    171  C        -64.5830  149.0080    8.7290 C.2   159  LEU159      0.2260
    172  O        -65.4740  148.5900    9.4760 O.2   159  LEU159     -0.2867
    173  CB       -63.5700  147.4260    7.0300 C.3   159  LEU159      0.0270
    174  CG       -62.4320  146.5040    6.5690 C.3   159  LEU159      0.0019
    175  CD1      -62.7240  145.8810    5.1950 C.3   159  LEU159      0.0001
    176  CD2      -61.0910  147.2180    6.5450 C.3   159  LEU159      0.0001
    177  N        -65.8470  143.5420   10.8550 N.3   168  ILE168     -0.1231
    178  CA       -64.6240  142.7810   11.0010 C.3   168  ILE168      0.1692
    179  C        -64.2800  142.1650    9.6590 C.2   168  ILE168      0.2592
    180  O        -65.1540  141.5940    8.9700 O.2   168  ILE168     -0.2718
    181  CB       -64.7590  141.6880   12.0730 C.3   168  ILE168      0.0266
    182  CG1      -65.0780  142.3510   13.4150 C.3   168  ILE168      0.0019
    183  CG2      -63.4820  140.8370   12.1600 C.3   168  ILE168      0.0020
    184  CD1      -65.6070  141.4020   14.4400 C.3   168  ILE168      0.0001
    185  N        -63.0090  142.3260    9.2910 N.am  169  ALA169     -0.1966
    186  CA       -62.4400  141.7720    8.0680 C.3   169  ALA169      0.1728
    187  C        -61.5990  140.5760    8.4590 C.2   169  ALA169      0.2616
    188  O        -61.1880  140.4420    9.6110 O.2   169  ALA169     -0.2715
    189  CB       -61.5960  142.8150    7.3400 C.3   169  ALA169      0.0334
    190  N        -61.3300  139.7020    7.5130 N.am  170  ASP170     -0.1957
    191  CA       -60.5530  138.5270    7.8450 C.3   170  ASP170      0.1840
    192  C        -59.7920  138.0970    6.6090 C.2   170  ASP170      0.2622
    193  O        -60.3600  137.4640    5.7010 O.2   170  ASP170     -0.2715
    194  CB       -61.4600  137.4120    8.3690 C.3   170  ASP170      0.1450
    195  CG       -60.6830  136.2570    8.9690 C.2   170  ASP170      0.3671
    196  OD1      -59.4360  136.2230    8.8240 O.co2 170  ASP170     -0.2456
    197  OD2      -61.3330  135.3620    9.5630 O.co2 170  ASP170     -0.2456
    198  N        -58.5070  138.4520    6.5820 N.am  171  PHE171     -0.1974
    199  CA       -57.6390  138.1610    5.4530 C.3   171  PHE171      0.1639
    200  C        -56.9330  136.8130    5.5860 C.2   171  PHE171      0.2290
    201  O        -55.9940  136.5200    4.8430 O.2   171  PHE171     -0.2864
    202  CB       -56.6330  139.2950    5.2940 C.3   171  PHE171      0.0560
    203  CG       -57.2830  140.6490    5.2210 C.ar  171  PHE171     -0.0200
    204  CD1      -58.0240  141.0170    4.1020 C.ar  171  PHE171     -0.0042
    205  CD2      -57.1930  141.5370    6.2790 C.ar  171  PHE171     -0.0042
    206  CE1      -58.6460  142.2540    4.0370 C.ar  171  PHE171     -0.0003
    207  CE2      -57.8110  142.7770    6.2180 C.ar  171  PHE171     -0.0003
    208  CZ       -58.5370  143.1370    5.0980 C.ar  171  PHE171     -0.0000
    209  N        -58.7040  133.5620    5.8290 N.3   173  LEU173     -0.1245
    210  CA       -59.6210  132.4250    5.6680 C.3   173  LEU173      0.1561
    211  C        -59.0720  131.2500    4.8420 C.2   173  LEU173      0.2260
    212  O        -59.6040  130.1400    4.9180 O.2   173  LEU173     -0.2867
    213  CB       -60.9340  132.8990    5.0420 C.3   173  LEU173      0.0270
    214  CG       -61.6800  133.9760    5.8270 C.3   173  LEU173      0.0019
    215  CD1      -62.8150  134.5110    4.9810 C.3   173  LEU173      0.0001
    216  CD2      -62.1850  133.4300    7.1530 C.3   173  LEU173      0.0001
@<TRIPOS>BOND
     1    58    57    2
     2    57    56    1
     3    97    98    1
     4    71    69    1
     5    46    45    2
     6    45    44    1
     7    43    44    1
     8    56    55    1
     9    56    59    1
    10    98    99    1
    11    98   101    1
    12    69    68    1
    13    69    70    1
    14    44    47    1
    15     1     2    1
    16    99   100    2
    17    68    65    1
    18   103   101    1
    19   101   102    1
    20    59    60    1
    21    60    61    1
    22    52    53    2
    23    52    51    1
    24     2     5    1
    25     2     3    1
    26    47    48    1
    27    47    49    1
    28    65    66    1
    29    65    64    1
    30    51    50    1
    31    51    54    1
    32    66    67    2
    33     5     6    1
    34    12    11    2
    35    25    24    2
    36    61    62    1
    37    23    22    1
    38    23    24    1
    39    16    15    2
    40     3     4    2
    41     3     9   am
    42    62    63    1
    43    15    22   am
    44    15    14    1
    45   104   105    1
    46    24    26   am
    47     7     6    1
    48    14    13    1
    49    14    17    1
    50     6     8    1
    51     9    10    1
    52    11    13   am
    53    11    10    1
    54    35    34    2
    55    34    33    1
    56   107   106    2
    57    17    18    1
    58    18    19    1
    59   105   106    1
    60   105   108    1
    61    26    27    1
    62   111   109    1
    63   126   125    1
    64    80    78   ar
    65   125   122    1
    66   109   108    1
    67   109   110    1
    68   106   112   am
    69    32    33    1
    70    32    28   am
    71    33    36    1
    72    27    28    1
    73    27    30    1
    74    28    29    2
    75    19    20   ar
    76    19    21   ar
    77    72    73    1
    78    78    77    1
    79    78    79   ar
    80   122   121    1
    81   122   123    1
    82   121   114   am
    83   112   113    1
    84    36    37    1
    85    76    77    1
    86    76    73    1
    87    74    73    1
    88    74    75    2
    89   114   113    1
    90   114   115    2
    91   113   116    1
    92    30    31    1
    93   136   133    1
    94    87    88    1
    95    87    86    1
    96   123   124    2
    97   123   127   am
    98    37    39   ar
    99    37    38   ar
   100   133   132    1
   101   133   134    1
   102   135   134    2
   103    39    41   ar
   104   127   128    1
   105   116   117    1
   106   132   129   am
   107    38    40   ar
   108    85    86    1
   109    85    82    1
   110   117   118    1
   111   130   129    2
   112   129   128    1
   113    41    42   ar
   114    81    82    1
   115   128   131    1
   116    83    82    1
   117    83    84    2
   118    95    93    1
   119    40    42   ar
   120   206   204   ar
   121   206   208   ar
   122   204   203   ar
   123   118   119   ar
   124   118   120   ar
   125   211   212    2
   126   211   210    1
   127   201   200    2
   128   137   138    1
   129   215   214    1
   130   213   210    1
   131   213   214    1
   132   208   207   ar
   133   175   174    1
   134   203   202    1
   135   203   205   ar
   136   138   139    1
   137    96    94    1
   138   202   199    1
   139    93    94    1
   140    93    90    1
   141   199   200    1
   142   199   198    1
   143    91    92    2
   144    91    90    1
   145   210   209    1
   146   193   192    2
   147   214   216    1
   148    90    89    1
   149   157   155   ar
   150   156   155   ar
   151   207   205   ar
   152   176   174    1
   153   174   173    1
   154   198   192   am
   155   139   141   am
   156   139   140    2
   157   192   191    1
   158   155   154    1
   159   173   170    1
   160   141   142    1
   161   189   186    1
   162   190   191    1
   163   190   187   am
   164   191   194    1
   165   148   146   am
   166   154   153    1
   167   186   187    1
   168   186   185    1
   169   142   145    1
   170   142   143    1
   171   194   195    1
   172   170   171    1
   173   170   169    1
   174   145   146    1
   175   153   150    1
   176   187   188    2
   177   146   147    2
   178   171   172    2
   179   196   195   ar
   180   195   197   ar
   181   180   179    2
   182   161   160    2
   183   185   179   am
   184   144   143    2
   185   179   178    1
   186   150   151    1
   187   150   149    1
   188   151   152    2
   189   160   159    1
   190   162   163    1
   191   162   159    1
   192   164   163    1
   193   164   165    1
   194   177   178    1
   195   159   158    1
   196   178   181    1
   197   165   166    2
   198   181   183    1
   199   181   182    1
   200   166   167    1
   201   166   168    1
   202   182   184    1
