@<TRIPOS>MOLECULE
tmp/4r6wB00.pdb
 147 143 0 0 0
SMALL
GASTEIGER

@<TRIPOS>ATOM
      1  N         54.2580   36.5860   15.7860 N.3    10  GLN10      -0.1231
      2  CA        53.9870   35.6530   16.8790 C.3    10  GLN10       0.1698
      3  C         55.1630   34.7300   17.2030 C.2    10  GLN10       0.2592
      4  O         55.4050   34.4120   18.3720 O.2    10  GLN10      -0.2718
      5  CB        52.7560   34.8080   16.5620 C.3    10  GLN10       0.0381
      6  CG        52.3720   33.8750   17.7070 C.3    10  GLN10       0.0905
      7  CD        51.0170   33.2250   17.5240 C.2    10  GLN10       0.2608
      8  OE1       50.4680   33.1890   16.4230 O.2    10  GLN10      -0.2717
      9  NE2       50.4670   32.7160   18.6150 N.am   10  GLN10      -0.0878
     10  N         55.8910   34.2960   16.1780 N.am   11  TYR11      -0.1976
     11  CA        56.9690   33.3470   16.4180 C.3    11  TYR11       0.1639
     12  C         58.3450   33.9150   16.0950 C.2    11  TYR11       0.2290
     13  O         59.1820   33.2340   15.5030 O.2    11  TYR11      -0.2864
     14  CB        56.7260   32.0550   15.6270 C.3    11  TYR11       0.0560
     15  CG        55.4010   31.3930   15.9690 C.ar   11  TYR11      -0.0198
     16  CD1       55.1400   30.9400   17.2600 C.ar   11  TYR11      -0.0009
     17  CD2       54.4130   31.2450   15.0140 C.ar   11  TYR11      -0.0009
     18  CE1       53.9220   30.3380   17.5840 C.ar   11  TYR11       0.0417
     19  CE2       53.1930   30.6500   15.3240 C.ar   11  TYR11       0.0417
     20  CZ        52.9560   30.1980   16.6100 C.ar   11  TYR11       0.1957
     21  OH        51.7340   29.6090   16.8860 O.3    11  TYR11      -0.2866
     22  N         56.9950   32.0840   25.2090 N.3    19  TYR19      -0.1241
     23  CA        56.0350   30.9830   25.2250 C.3    19  TYR19       0.1605
     24  C         56.6260   29.7440   25.9020 C.2    19  TYR19       0.2264
     25  O         55.9790   29.1100   26.7270 O.2    19  TYR19      -0.2867
     26  CB        55.6110   30.6380   23.7990 C.3    19  TYR19       0.0534
     27  CG        54.4910   31.4720   23.2100 C.ar   19  TYR19      -0.0201
     28  CD1       53.4020   31.8800   23.9890 C.ar   19  TYR19      -0.0009
     29  CD2       54.5010   31.8150   21.8650 C.ar   19  TYR19      -0.0009
     30  CE1       52.3570   32.6140   23.4280 C.ar   19  TYR19       0.0417
     31  CE2       53.4660   32.5430   21.2960 C.ar   19  TYR19       0.0417
     32  CZ        52.3990   32.9350   22.0730 C.ar   19  TYR19       0.1957
     33  OH        51.3700   33.6590   21.4990 O.3    19  TYR19      -0.2866
     34  N         54.9790   27.3600   28.8050 N.3    23  PHE23      -0.1241
     35  CA        54.4720   26.0690   28.3300 C.3    23  PHE23       0.1605
     36  C         55.3320   24.8960   28.7860 C.2    23  PHE23       0.2264
     37  O         54.8210   23.7950   29.0160 O.2    23  PHE23      -0.2867
     38  CB        54.4000   26.0430   26.8080 C.3    23  PHE23       0.0534
     39  CG        53.2620   26.8340   26.2290 C.ar   23  PHE23      -0.0203
     40  CD1       51.9700   26.6810   26.7040 C.ar   23  PHE23      -0.0042
     41  CD2       53.4900   27.7330   25.2030 C.ar   23  PHE23      -0.0042
     42  CE1       50.9200   27.4000   26.1440 C.ar   23  PHE23      -0.0003
     43  CE2       52.4570   28.4660   24.6570 C.ar   23  PHE23      -0.0003
     44  CZ        51.1670   28.2920   25.1170 C.ar   23  PHE23      -0.0000
     45  N         55.5640   24.7950   22.6760 N.3    28  ILE28      -0.1231
     46  CA        54.9120   26.0760   22.3940 C.3    28  ILE28       0.1692
     47  C         53.3990   25.9210   22.4830 C.2    28  ILE28       0.2593
     48  O         52.6520   26.6900   21.8820 O.2    28  ILE28      -0.2718
     49  CB        55.2670   26.6320   20.9800 C.3    28  ILE28       0.0266
     50  CG1       56.6830   26.2280   20.5610 C.3    28  ILE28       0.0019
     51  CG2       55.1230   28.1630   20.9280 C.3    28  ILE28       0.0020
     52  CD1       57.0970   26.8260   19.2060 C.3    28  ILE28       0.0001
     53  N         52.9380   24.9160   23.2140 N.am   29  SER29      -0.1938
     54  CA        51.4990   24.7930   23.4250 C.3    29  SER29       0.2055
     55  C         51.1750   24.2330   24.8080 C.2    29  SER29       0.2643
     56  O         52.0410   23.7090   25.5070 O.2    29  SER29      -0.2714
     57  CB        50.8650   23.9350   22.3290 C.3    29  SER29       0.2130
     58  OG        51.2700   22.5870   22.4300 O.3    29  SER29      -0.2179
     59  N         49.9210   24.3890   25.2130 N.am   30  SER30      -0.1949
     60  CA        49.5460   24.1700   26.6020 C.3    30  SER30       0.1924
     61  C         49.7260   22.7340   27.0740 C.2    30  SER30       0.2314
     62  O         49.5560   21.7740   26.3080 O.2    30  SER30      -0.2863
     63  CB        48.1000   24.6110   26.8270 C.3    30  SER30       0.2116
     64  OG        48.0550   25.9960   27.1490 O.3    30  SER30      -0.2180
     65  N         48.2500   22.2430   17.9450 N.3   120  ALA120     -0.1245
     66  CA        48.2080   23.7050   17.9950 C.3   120  ALA120      0.1562
     67  C         48.8380   24.3950   16.7950 C.2   120  ALA120      0.2260
     68  O         49.4690   25.4490   16.9530 O.2   120  ALA120     -0.2867
     69  CB        48.8930   24.1940   19.2810 C.3   120  ALA120      0.0290
     70  N         45.2560   25.7980   13.3050 N.3   123  LEU123     -0.1245
     71  CA        44.5720   27.0790   13.5170 C.3   123  LEU123      0.1561
     72  C         45.1260   28.2190   12.6610 C.2   123  LEU123      0.2260
     73  O         44.4410   29.2060   12.4190 O.2   123  LEU123     -0.2867
     74  CB        44.6540   27.4840   14.9930 C.3   123  LEU123      0.0270
     75  CG        46.0490   27.3750   15.6250 C.3   123  LEU123      0.0019
     76  CD1       46.7610   28.6720   15.5500 C.3   123  LEU123      0.0001
     77  CD2       45.9520   26.9110   17.0800 C.3   123  LEU123      0.0001
     78  N         43.1790   24.8150   18.4850 N.3   152  TYR152     -0.1241
     79  CA        42.2200   25.8140   18.9410 C.3   152  TYR152      0.1605
     80  C         40.9800   25.7610   18.0750 C.2   152  TYR152      0.2264
     81  O         41.0800   25.7300   16.8430 O.2   152  TYR152     -0.2867
     82  CB        42.7790   27.2310   18.8620 C.3   152  TYR152      0.0534
     83  CG        43.7760   27.6460   19.9240 C.ar  152  TYR152     -0.0201
     84  CD1       44.1640   26.7880   20.9450 C.ar  152  TYR152     -0.0009
     85  CD2       44.3510   28.9140   19.8810 C.ar  152  TYR152     -0.0009
     86  CE1       45.0920   27.1950   21.9120 C.ar  152  TYR152      0.0417
     87  CE2       45.2700   29.3270   20.8300 C.ar  152  TYR152      0.0417
     88  CZ        45.6360   28.4710   21.8430 C.ar  152  TYR152      0.1957
     89  OH        46.5550   28.9020   22.7800 O.3   152  TYR152     -0.2866
     90  N         41.2100   39.4750   19.0100 N.3   167  TYR167     -0.1241
     91  CA        42.2700   38.4980   19.2140 C.3   167  TYR167      0.1605
     92  C         42.4520   37.6250   17.9840 C.2   167  TYR167      0.2264
     93  O         43.5620   37.4680   17.4900 O.2   167  TYR167     -0.2867
     94  CB        41.9430   37.6520   20.4410 C.3   167  TYR167      0.0534
     95  CG        42.6830   36.3400   20.5860 C.ar  167  TYR167     -0.0201
     96  CD1       43.9850   36.2970   21.0740 C.ar  167  TYR167     -0.0009
     97  CD2       42.0380   35.1340   20.3130 C.ar  167  TYR167     -0.0009
     98  CE1       44.6370   35.0740   21.2570 C.ar  167  TYR167      0.0417
     99  CE2       42.6710   33.9340   20.4910 C.ar  167  TYR167      0.0417
    100  CZ        43.9670   33.9060   20.9620 C.ar  167  TYR167      0.1957
    101  OH        44.5790   32.6870   21.1310 O.3   167  TYR167     -0.2866
    102  N         45.7810   37.7450   15.4430 N.3   171  ARG171     -0.1245
    103  CA        46.5440   36.5020   15.3410 C.3   171  ARG171      0.1563
    104  C         46.4990   35.9250   13.9240 C.2   171  ARG171      0.2260
    105  O         47.3470   35.1030   13.5610 O.2   171  ARG171     -0.2867
    106  CB        46.0110   35.4650   16.3370 C.3   171  ARG171      0.0307
    107  CG        46.3560   35.7300   17.8180 C.3   171  ARG171      0.0489
    108  CD        47.8320   35.4890   18.1300 C.3   171  ARG171      0.2205
    109  NE        48.0380   35.2790   19.5570 N.pl3 171  ARG171     -0.0865
    110  CZ        48.2300   36.2550   20.4410 C.cat 171  ARG171      0.5346
    111  NH1       48.2720   37.5180   20.0340 N.pl3 171  ARG171      0.1354
    112  NH2       48.3920   35.9680   21.7320 N.pl3 171  ARG171      0.1354
    113  N         44.2620   33.8950   13.0000 N.3   173  TYR173     -0.1241
    114  CA        43.7540   32.5410   13.1190 C.3   173  TYR173      0.1605
    115  C         42.4800   32.3280   12.3040 C.2   173  TYR173      0.2264
    116  O         41.7010   33.2640   12.0950 O.2   173  TYR173     -0.2867
    117  CB        43.4210   32.2110   14.5660 C.3   173  TYR173      0.0534
    118  CG        44.5620   32.1640   15.5510 C.ar  173  TYR173     -0.0201
    119  CD1       45.8780   31.9950   15.1470 C.ar  173  TYR173     -0.0009
    120  CD2       44.2980   32.2720   16.9100 C.ar  173  TYR173     -0.0009
    121  CE1       46.9040   31.9470   16.0930 C.ar  173  TYR173      0.0417
    122  CE2       45.2910   32.2120   17.8460 C.ar  173  TYR173      0.0417
    123  CZ        46.5870   32.0370   17.4470 C.ar  173  TYR173      0.1957
    124  OH        47.5540   31.9760   18.4230 O.3   173  TYR173     -0.2866
    125  N         46.7910   34.9520   29.2130 N.3   236  TRP236     -0.1241
    126  CA        46.3120   33.7520   29.9040 C.3   236  TRP236      0.1605
    127  C         45.0250   34.0450   30.6630 C.2   236  TRP236      0.2264
    128  O         44.1320   33.2000   30.7140 O.2   236  TRP236     -0.2867
    129  CB        47.3910   33.1780   30.8310 C.3   236  TRP236      0.0550
    130  CG        48.0860   31.9650   30.2410 C.ar  236  TRP236      0.0003
    131  CD1       48.0670   30.6760   30.7300 C.ar  236  TRP236      0.0946
    132  CD2       48.8970   31.9250   29.0580 C.ar  236  TRP236      0.0152
    133  NE1       48.8150   29.8550   29.9220 N.ar  236  TRP236     -0.2442
    134  CE2       49.3290   30.5940   28.8870 C.ar  236  TRP236      0.0810
    135  CE3       49.2940   32.8900   28.1210 C.ar  236  TRP236      0.0012
    136  CZ2       50.1410   30.2010   27.8210 C.ar  236  TRP236      0.0191
    137  CZ3       50.1040   32.4960   27.0660 C.ar  236  TRP236      0.0001
    138  CH2       50.5170   31.1670   26.9260 C.ar  236  TRP236      0.0015
    139  N         42.2710   33.7420   28.1010 N.3   239  LYS239     -0.1245
    140  CA        42.0210   32.3620   27.6870 C.3   239  LYS239      0.1561
    141  C         41.3190   31.5830   28.7830 C.2   239  LYS239      0.2260
    142  O         40.5100   30.7030   28.4930 O.2   239  LYS239     -0.2867
    143  CB        43.3160   31.6500   27.2910 C.3   239  LYS239      0.0271
    144  CG        43.8400   32.1190   25.9380 C.3   239  LYS239      0.0035
    145  CD        45.0740   31.3420   25.4790 C.3   239  LYS239      0.0206
    146  CE        46.3160   31.6920   26.2970 C.3   239  LYS239      0.1093
    147  NZ        47.5260   31.0570   25.7040 N.3   239  LYS239     -0.1314
@<TRIPOS>BOND
     1   116   115    2
     2   115   114    1
     3    73    72    2
     4    72    71    1
     5   113   114    1
     6   114   117    1
     7    70    71    1
     8    71    74    1
     9   105   104    2
    10   104   103    1
    11   117   118    1
    12    74    75    1
    13    17    19   ar
    14    17    15   ar
    15   119   118   ar
    16   119   121   ar
    17    19    20   ar
    18   103   102    1
    19   103   106    1
    20    13    12    2
    21    76    75    1
    22   118   120   ar
    23    75    77    1
    24    14    15    1
    25    14    11    1
    26     1     2    1
    27    15    16   ar
    28   121   123   ar
    29    12    11    1
    30    10    11    1
    31    10     3   am
    32   106   107    1
    33     8     7    2
    34     5     2    1
    35     5     6    1
    36    20    21    1
    37    20    18   ar
    38    67    68    2
    39    67    66    1
    40    81    80    2
    41     2     3    1
    42   120   122   ar
    43     3     4    2
    44    16    18   ar
    45   123   122   ar
    46   123   124    1
    47    93    92    2
    48     7     6    1
    49     7     9   am
    50   107   108    1
    51    65    66    1
    52    92    91    1
    53    66    69    1
    54    80    79    1
    55   108   109    1
    56    78    79    1
    57    82    79    1
    58    82    83    1
    59    90    91    1
    60    52    50    1
    61    91    94    1
    62   109   110    2
    63    85    83   ar
    64    85    87   ar
    65    83    84   ar
    66   111   110    1
    67    97    99   ar
    68    97    95   ar
    69    94    95    1
    70   110   112    1
    71    99   100   ar
    72    50    49    1
    73    95    96   ar
    74    87    88   ar
    75    51    49    1
    76    84    86   ar
    77   100   101    1
    78   100    98   ar
    79    49    46    1
    80    96    98   ar
    81    31    29   ar
    82    31    32   ar
    83    33    32    1
    84    88    86   ar
    85    88    89    1
    86    29    27   ar
    87    48    47    2
    88    32    30   ar
    89    57    58    1
    90    57    54    1
    91    46    47    1
    92    46    45    1
    93    47    53   am
    94    27    26    1
    95    27    28   ar
    96    53    54    1
    97    54    55    1
    98    30    28   ar
    99    26    23    1
   100    43    44   ar
   101    43    41   ar
   102    55    59   am
   103    55    56    2
   104    44    42   ar
   105    41    39   ar
   106    22    23    1
   107    59    60    1
   108    23    24    1
   109   145   144    1
   110   145   146    1
   111   147   146    1
   112    24    25    2
   113   144   143    1
   114    42    40   ar
   115    39    40   ar
   116    39    38    1
   117    62    61    2
   118    60    63    1
   119    60    61    1
   120    38    35    1
   121    63    64    1
   122   138   137   ar
   123   138   136   ar
   124   137   135   ar
   125   143   140    1
   126   140   139    1
   127   140   141    1
   128   136   134   ar
   129   135   132   ar
   130    35    36    1
   131    35    34    1
   132   142   141    2
   133    36    37    2
   134   134   132   ar
   135   134   133   ar
   136   132   130   ar
   137   125   126    1
   138   126   127    1
   139   126   129    1
   140   133   131   ar
   141   130   131   ar
   142   130   129    1
   143   127   128    2
