@<TRIPOS>MOLECULE
tmp/4r73A00.pdb
 149 140 0 0 0
SMALL
GASTEIGER

@<TRIPOS>ATOM
      1  N         15.4480   21.7350   55.3680 N.3    11  SER11      -0.1202
      2  CA        15.4850   22.9120   54.5070 C.3    11  SER11       0.2020
      3  C         14.3330   22.9350   53.5270 C.2    11  SER11       0.2619
      4  O         14.3340   23.7450   52.6070 O.2    11  SER11      -0.2717
      5  CB        16.8110   22.9880   53.7520 C.3    11  SER11       0.2103
      6  OG        17.9270   23.1560   54.6330 O.3    11  SER11      -0.2182
      7  N         13.3750   22.0340   53.7250 N.am   12  ALA12      -0.1965
      8  CA        12.1140   22.0760   52.9830 C.3    12  ALA12       0.1728
      9  C         11.1630   23.0310   53.7020 C.2    12  ALA12       0.2616
     10  O         11.5570   23.7480   54.6230 O.2    12  ALA12      -0.2715
     11  CB        11.5110   20.6690   52.8690 C.3    12  ALA12       0.0334
     12  N          9.9190   23.0800   53.2650 N.am   13  THR13      -0.1951
     13  CA         8.9500   23.8920   53.9870 C.3    13  THR13       0.1897
     14  C          8.6220   23.3240   55.3550 C.2    13  THR13       0.2313
     15  O          8.6760   22.1050   55.5570 O.2    13  THR13      -0.2863
     16  CB         7.6420   24.0170   53.2380 C.3    13  THR13       0.1794
     17  OG1        7.1470   22.7120   52.9100 O.3    13  THR13      -0.2208
     18  CG2        7.8120   24.8160   51.9680 C.3    13  THR13       0.0378
     19  N         14.2440   24.3520   61.0420 N.3    36  ARG36      -0.1245
     20  CA        14.2010   24.6310   59.6000 C.3    36  ARG36       0.1563
     21  C         14.9320   25.9090   59.2770 C.2    36  ARG36       0.2260
     22  O         14.8720   26.9210   59.9860 O.2    36  ARG36      -0.2867
     23  CB        12.7730   24.7130   59.0270 C.3    36  ARG36       0.0307
     24  CG        12.7070   24.6260   57.4620 C.3    36  ARG36       0.0489
     25  CD        12.7780   25.9790   56.6690 C.3    36  ARG36       0.2205
     26  NE        13.1920   25.8120   55.2660 N.pl3  36  ARG36      -0.0865
     27  CZ        13.6990   26.7820   54.4990 C.cat  36  ARG36       0.5346
     28  NH1       13.8400   28.0110   54.9940 N.pl3  36  ARG36       0.1354
     29  NH2       14.0750   26.5300   53.2320 N.pl3  36  ARG36       0.1354
     30  N         17.1460   27.8390   55.5400 N.3    38  GLY38      -0.1210
     31  CA        17.4250   27.7840   54.1100 C.3    38  GLY38       0.1956
     32  C         18.5630   26.8320   53.7920 C.2    38  GLY38       0.2612
     33  O         19.3770   26.4960   54.6700 O.2    38  GLY38      -0.2717
     34  N         18.6450   26.4000   52.5310 N.am   39  SER39      -0.1952
     35  CA        19.7010   25.4390   52.1360 C.3    39  SER39       0.1924
     36  C         21.0960   26.0220   52.3550 C.2    39  SER39       0.2314
     37  O         21.9960   25.3330   52.8530 O.2    39  SER39      -0.2863
     38  CB        19.5440   25.0180   50.6850 C.3    39  SER39       0.2116
     39  OG        18.1950   24.6640   50.3960 O.3    39  SER39      -0.2180
     40  N         15.6760   20.8610   51.0130 N.3    61  GLY61      -0.1210
     41  CA        16.4750   21.9140   50.4490 C.3    61  GLY61       0.1956
     42  C         17.2210   21.3710   49.2510 C.2    61  GLY61       0.2612
     43  O         17.1470   20.2000   48.9270 O.2    61  GLY61      -0.2717
     44  N         17.9400   22.2410   48.5780 N.am   62  THR62      -0.1952
     45  CA        18.5920   21.8390   47.3350 C.3    62  THR62       0.1897
     46  C         19.8710   21.0150   47.5810 C.2    62  THR62       0.2313
     47  O         20.5480   21.1160   48.6230 O.2    62  THR62      -0.2863
     48  CB        18.9280   23.0500   46.4720 C.3    62  THR62       0.1794
     49  OG1       19.9440   23.8310   47.1400 O.3    62  THR62      -0.2208
     50  CG2       17.6870   23.9360   46.2800 C.3    62  THR62       0.0378
     51  N         13.7630   14.2510   46.0430 N.3   105  TYR105     -0.1241
     52  CA        12.6940   14.8030   45.2000 C.3   105  TYR105      0.1605
     53  C         13.3310   15.6570   44.1280 C.2   105  TYR105      0.2264
     54  O         14.5400   15.8860   44.1330 O.2   105  TYR105     -0.2867
     55  CB        11.6620   15.6030   46.0310 C.3   105  TYR105      0.0534
     56  CG        12.1520   16.7720   46.8710 C.ar  105  TYR105     -0.0201
     57  CD1       12.6060   17.9490   46.2910 C.ar  105  TYR105     -0.0009
     58  CD2       12.0940   16.7030   48.2490 C.ar  105  TYR105     -0.0009
     59  CE1       13.0020   19.0580   47.0900 C.ar  105  TYR105      0.0417
     60  CE2       12.4820   17.7650   49.0530 C.ar  105  TYR105      0.0417
     61  CZ        12.9560   18.9280   48.4680 C.ar  105  TYR105      0.1957
     62  OH        13.3130   19.9510   49.3150 O.3   105  TYR105     -0.2866
     63  N         19.4970   31.1300   50.3080 N.3   150  SER150     -0.1202
     64  CA        18.5920   30.2500   49.5620 C.3   150  SER150      0.2020
     65  C         19.2440   29.3450   48.5160 C.2   150  SER150      0.2619
     66  O         19.9910   29.7880   47.6200 O.2   150  SER150     -0.2717
     67  CB        17.5400   31.1260   48.8770 C.3   150  SER150      0.2103
     68  OG        16.8320   30.3900   47.8710 O.3   150  SER150     -0.2182
     69  N         18.9150   28.0520   48.6130 N.am  151  GLY151     -0.1942
     70  CA        19.3310   27.0890   47.6180 C.3   151  GLY151      0.2014
     71  C         18.6810   27.3630   46.2730 C.2   151  GLY151      0.2639
     72  O         19.2930   27.2200   45.2110 O.2   151  GLY151     -0.2714
     73  N         17.3950   27.7410   46.3070 N.am  152  THR152     -0.1950
     74  CA        16.6560   28.0620   45.0940 C.3   152  THR152      0.1897
     75  C         17.3680   29.1240   44.2610 C.2   152  THR152      0.2313
     76  O         17.5050   28.9910   43.0370 O.2   152  THR152     -0.2863
     77  CB        15.2180   28.5510   45.4730 C.3   152  THR152      0.1794
     78  OG1       14.5830   27.6270   46.3670 O.3   152  THR152     -0.2208
     79  CG2       14.3630   28.7470   44.2150 C.3   152  THR152      0.0378
     80  N         14.1020   33.4100   52.0400 N.3   186  SER186     -0.1202
     81  CA        13.6510   32.0540   51.7010 C.3   186  SER186      0.2020
     82  C         13.2940   31.9010   50.2370 C.2   186  SER186      0.2619
     83  O         12.7050   32.8050   49.6440 O.2   186  SER186     -0.2717
     84  CB        12.4220   31.6630   52.5450 C.3   186  SER186      0.2103
     85  OG        12.7170   31.6930   53.9420 O.3   186  SER186     -0.2182
     86  N         13.6160   30.7390   49.6790 N.am  187  GLY187     -0.1942
     87  CA        13.3020   30.4450   48.2910 C.3   187  GLY187      0.2014
     88  C         11.8280   30.5910   47.9480 C.2   187  GLY187      0.2638
     89  O         11.4820   31.0100   46.8460 O.2   187  GLY187     -0.2714
     90  N         10.9810   30.1880   48.8870 N.am  188  ILE188     -0.1977
     91  CA         9.5270   30.0940   48.6370 C.3   188  ILE188      0.1596
     92  C          8.8120   31.4390   48.7700 C.2   188  ILE188      0.2287
     93  O          7.6570   31.5920   48.3560 O.2   188  ILE188     -0.2864
     94  CB         8.9060   29.0830   49.5830 C.3   188  ILE188      0.0276
     95  CG1        7.4640   28.7400   49.1550 C.3   188  ILE188      0.0022
     96  CG2        8.9060   29.6220   51.0120 C.3   188  ILE188      0.0022
     97  CD1        6.9020   27.5670   49.8890 C.3   188  ILE188      0.0001
     98  N         10.7190   27.4210   42.5980 N.3   205  PHE205     -0.1241
     99  CA        10.4230   26.0670   42.1400 C.3   205  PHE205      0.1605
    100  C          8.9340   25.9240   41.9470 C.2   205  PHE205      0.2264
    101  O          8.1480   26.2870   42.8260 O.2   205  PHE205     -0.2867
    102  CB        10.9480   25.0320   43.1230 C.3   205  PHE205      0.0534
    103  CG        12.4500   24.9950   43.1940 C.ar  205  PHE205     -0.0203
    104  CD1       13.1900   24.7290   42.0530 C.ar  205  PHE205     -0.0042
    105  CD2       13.0990   25.1560   44.4080 C.ar  205  PHE205     -0.0042
    106  CE1       14.5960   24.6880   42.1250 C.ar  205  PHE205     -0.0003
    107  CE2       14.5070   25.1160   44.4830 C.ar  205  PHE205     -0.0003
    108  CZ        15.2300   24.8890   43.3480 C.ar  205  PHE205     -0.0000
    109  N          6.6740   23.7010   41.9290 N.3   207  HIS207     -0.1226
    110  CA         5.7060   22.9880   42.7910 C.3   207  HIS207      0.1752
    111  C          5.1820   23.8700   43.9240 C.2   207  HIS207      0.2596
    112  O          4.1040   23.6300   44.4310 O.2   207  HIS207     -0.2718
    113  CB         6.3230   21.7020   43.3640 C.3   207  HIS207      0.0759
    114  CG         7.5530   21.9430   44.1710 C.ar  207  HIS207      0.0818
    115  ND1        8.8150   21.8550   43.6200 N.ar  207  HIS207     -0.2268
    116  CD2        7.7250   22.3310   45.4590 C.ar  207  HIS207      0.1154
    117  CE1        9.7160   22.1420   44.5420 C.ar  207  HIS207      0.1986
    118  NE2        9.0910   22.4410   45.6620 N.ar  207  HIS207     -0.2212
    119  N          5.9410   24.8910   44.3430 N.am  208  ASP208     -0.1974
    120  CA         5.4420   25.7920   45.4090 C.3   208  ASP208      0.1709
    121  C          4.3470   26.6560   44.8490 C.2   208  ASP208      0.2293
    122  O          3.3610   26.9410   45.5350 O.2   208  ASP208     -0.2864
    123  CB         6.5880   26.6860   45.9470 C.3   208  ASP208      0.1436
    124  CG         7.6210   25.9010   46.7310 C.2   208  ASP208      0.3671
    125  OD1        7.2860   24.8960   47.4090 O.co2 208  ASP208     -0.2456
    126  OD2        8.8020   26.3110   46.6610 O.co2 208  ASP208     -0.2456
    127  N         16.1780   21.5400   41.0150 N.3   231  GLU231     -0.1245
    128  CA        16.8490   21.0130   42.1970 C.3   231  GLU231      0.1567
    129  C         16.6280   19.5180   42.2890 C.2   231  GLU231      0.2260
    130  O         15.5860   18.9990   41.8400 O.2   231  GLU231     -0.2867
    131  CB        16.2970   21.6460   43.4760 C.3   231  GLU231      0.0388
    132  CG        14.7520   21.4810   43.5990 C.3   231  GLU231      0.1160
    133  CD        14.2260   21.7870   45.0220 C.2   231  GLU231      0.3649
    134  OE1       15.0020   21.9630   46.0020 O.co2 231  GLU231     -0.2457
    135  OE2       12.9920   21.8680   45.1740 O.co2 231  GLU231     -0.2457
    136  N          3.4300   19.1810   49.9890 N.3   269  ALA269     -0.1245
    137  CA         4.6530   19.4100   49.2490 C.3   269  ALA269      0.1562
    138  C          4.5740   18.6150   47.9500 C.2   269  ALA269      0.2260
    139  O          4.5130   17.3760   47.9710 O.2   269  ALA269     -0.2867
    140  CB         5.8750   19.0070   50.0960 C.3   269  ALA269      0.0290
    141  N          6.5790   18.2710   45.2060 N.3   271  GLN271     -0.1245
    142  CA         7.7310   17.9420   44.3650 C.3   271  GLN271      0.1566
    143  C          7.5330   16.5950   43.6670 C.2   271  GLN271      0.2260
    144  O          6.7310   15.7450   44.1180 O.2   271  GLN271     -0.2867
    145  CB         9.0240   17.8820   45.2060 C.3   271  GLN271      0.0367
    146  CG         9.3790   19.1250   45.9720 C.3   271  GLN271      0.0905
    147  CD         8.8990   19.1010   47.4080 C.2   271  GLN271      0.2608
    148  OE1        7.9800   18.3560   47.7480 O.2   271  GLN271     -0.2717
    149  NE2        9.4870   19.9430   48.2620 N.am  271  GLN271     -0.0878
@<TRIPOS>BOND
     1   127   128    1
     2   130   129    2
     3   109   110    1
     4   100    99    1
     5   100   101    2
     6   104   106   ar
     7   104   103   ar
     8   106   108   ar
     9    99    98    1
    10    99   102    1
    11   128   129    1
    12   128   131    1
    13   110   113    1
    14   110   111    1
    15    76    75    2
    16   102   103    1
    17   103   105   ar
    18   108   107   ar
    19   113   114    1
    20   131   132    1
    21   132   133    1
    22   115   114   ar
    23   115   117   ar
    24   143   144    2
    25   143   142    1
    26   111   119   am
    27   111   112    2
    28    53    54    2
    29    53    52    1
    30   114   116   ar
    31    79    77    1
    32    75    74    1
    33   119   120    1
    34   142   145    1
    35   142   141    1
    36   105   107   ar
    37   117   118   ar
    38   121   120    1
    39   121   122    2
    40   133   135   ar
    41   133   134   ar
    42    74    77    1
    43    74    73    1
    44    52    55    1
    45    52    51    1
    46   145   146    1
    47    72    71    2
    48   120   123    1
    49   116   118   ar
    50    77    78    1
    51   123   124    1
    52   146   147    1
    53    55    56    1
    54    71    73   am
    55    71    70    1
    56    50    48    1
    57    57    56   ar
    58    57    59   ar
    59    48    49    1
    60    48    45    1
    61   126   124   ar
    62   124   125   ar
    63    89    88    2
    64    56    58   ar
    65    59    61   ar
    66    45    46    1
    67    45    44    1
    68   147   148    2
    69   147   149   am
    70    46    47    2
    71    70    69    1
    72    66    65    2
    73    68    67    1
    74    88    87    1
    75    88    90   am
    76   138   139    2
    77   138   137    1
    78    58    60   ar
    79    87    86    1
    80    93    92    2
    81    61    60   ar
    82    61    62    1
    83    65    69   am
    84    65    64    1
    85    44    42   am
    86    91    92    1
    87    91    90    1
    88    91    94    1
    89    67    64    1
    90    43    42    2
    91    95    94    1
    92    95    97    1
    93   137   136    1
    94   137   140    1
    95    42    41    1
    96    64    63    1
    97    94    96    1
    98    83    82    2
    99    86    82   am
   100    82    81    1
   101    39    38    1
   102    41    40    1
   103    38    35    1
   104    81    80    1
   105    81    84    1
   106    18    16    1
   107    35    36    1
   108    35    34    1
   109    36    37    2
   110    34    32   am
   111    84    85    1
   112     4     3    2
   113    11     8    1
   114    17    16    1
   115     8     9    1
   116     8     7    1
   117    29    27    1
   118    16    13    1
   119    12     9   am
   120    12    13    1
   121     3     7   am
   122     3     2    1
   123     9    10    2
   124     5     2    1
   125     5     6    1
   126    32    31    1
   127    32    33    2
   128    13    14    1
   129    31    30    1
   130    27    28    1
   131    27    26    2
   132     2     1    1
   133    26    25    1
   134    14    15    2
   135    25    24    1
   136    24    23    1
   137    23    20    1
   138    21    20    1
   139    21    22    2
   140    20    19    1
