@<TRIPOS>MOLECULE
tmp/4r74D00.pdb
 153 145 0 0 0
SMALL
GASTEIGER

@<TRIPOS>ATOM
      1  N        -23.9200   17.6700  -56.3650 N.3    10  SER10      -0.1202
      2  CA       -23.7220   18.8870  -57.1460 C.3    10  SER10       0.2020
      3  C        -24.7260   18.9860  -58.3020 C.2    10  SER10       0.2619
      4  O        -24.6410   19.8850  -59.1340 O.2    10  SER10      -0.2717
      5  CB       -22.2910   18.9640  -57.6730 C.3    10  SER10       0.2103
      6  OG       -21.3510   19.1890  -56.6340 O.3    10  SER10      -0.2182
      7  N        -25.6680   18.0520  -58.3370 N.am   11  ALA11      -0.1965
      8  CA       -26.7930   18.1150  -59.2600 C.3    11  ALA11       0.1728
      9  C        -27.9220   18.9330  -58.6210 C.2    11  ALA11       0.2616
     10  O        -27.7100   19.5600  -57.5880 O.2    11  ALA11      -0.2715
     11  CB       -27.2600   16.7210  -59.6130 C.3    11  ALA11       0.0334
     12  N        -29.1060   18.9570  -59.2300 N.am   12  THR12      -0.1951
     13  CA       -30.2120   19.7010  -58.6290 C.3    12  THR12       0.1897
     14  C        -30.6940   18.9900  -57.3710 C.2    12  THR12       0.2313
     15  O        -30.5950   17.7660  -57.2680 O.2    12  THR12      -0.2863
     16  CB       -31.4010   19.8610  -59.5780 C.3    12  THR12       0.1794
     17  OG1      -31.8510   18.5720  -60.0020 O.3    12  THR12      -0.2208
     18  CG2      -31.0300   20.7150  -60.7940 C.3    12  THR12       0.0378
     19  N        -26.1140   19.8140  -50.8090 N.3    35  ARG35      -0.1245
     20  CA       -26.0210   20.2510  -52.2000 C.3    35  ARG35       0.1563
     21  C        -25.2300   21.5550  -52.3510 C.2    35  ARG35       0.2260
     22  O        -25.4390   22.5030  -51.5980 O.2    35  ARG35      -0.2867
     23  CB       -27.4240   20.4220  -52.7860 C.3    35  ARG35       0.0307
     24  CG       -27.5030   20.2610  -54.2960 C.3    35  ARG35       0.0489
     25  CD       -28.3110   21.3920  -54.9280 C.3    35  ARG35       0.2205
     26  NE       -27.5210   22.6190  -55.0220 N.pl3  35  ARG35      -0.0865
     27  CZ       -26.6600   22.8940  -56.0030 C.cat  35  ARG35       0.5346
     28  NH1      -26.4620   22.0300  -56.9960 N.pl3  35  ARG35       0.1354
     29  NH2      -25.9920   24.0400  -55.9910 N.pl3  35  ARG35       0.1354
     30  N        -22.5640   23.7320  -55.7090 N.3    37  GLY37      -0.1210
     31  CA       -22.0590   23.7280  -57.0760 C.3    37  GLY37       0.1956
     32  C        -20.7960   22.8930  -57.2070 C.2    37  GLY37       0.2612
     33  O        -20.1820   22.5610  -56.1980 O.2    37  GLY37      -0.2717
     34  N        -20.4020   22.5590  -58.4370 N.am   38  SER38      -0.1952
     35  CA       -19.2460   21.6790  -58.6570 C.3    38  SER38       0.1924
     36  C        -17.9510   22.2940  -58.1270 C.2    38  SER38       0.2314
     37  O        -17.1930   21.6380  -57.4230 O.2    38  SER38      -0.2863
     38  CB       -19.0790   21.3470  -60.1470 C.3    38  SER38       0.2116
     39  OG       -20.3070   20.9260  -60.7140 O.3    38  SER38      -0.2180
     40  N        -22.8290   17.1600  -60.5780 N.3    60  GLY60      -0.1210
     41  CA       -21.9380   18.2260  -60.9960 C.3    60  GLY60       0.1956
     42  C        -21.0120   17.7390  -62.0930 C.2    60  GLY60       0.2612
     43  O        -20.9940   16.5520  -62.4280 O.2    60  GLY60      -0.2717
     44  N        -20.2230   18.6540  -62.6420 N.am   61  THR61      -0.1952
     45  CA       -19.3660   18.3350  -63.7670 C.3    61  THR61       0.1897
     46  C        -18.1300   17.5350  -63.3420 C.2    61  THR61       0.2313
     47  O        -17.6710   17.6230  -62.1970 O.2    61  THR61      -0.2863
     48  CB       -18.9160   19.6210  -64.4910 C.3    61  THR61       0.1794
     49  OG1      -18.0610   20.3740  -63.6240 O.3    61  THR61      -0.2208
     50  CG2      -20.1280   20.4690  -64.8540 C.3    61  THR61       0.0378
     51  N        -23.6690   10.6020  -66.0940 N.3   104  TYR104     -0.1241
     52  CA       -24.5450   11.1820  -67.1130 C.3   104  TYR104      0.1605
     53  C        -23.7890   12.1500  -68.0330 C.2   104  TYR104      0.2264
     54  O        -22.6290   12.4950  -67.7860 O.2   104  TYR104     -0.2867
     55  CB       -25.7660   11.8890  -66.4740 C.3   104  TYR104      0.0534
     56  CG       -25.4880   13.0190  -65.4960 C.ar  104  TYR104     -0.0201
     57  CD1      -25.0040   14.2560  -65.9300 C.ar  104  TYR104     -0.0009
     58  CD2      -25.7640   12.8650  -64.1380 C.ar  104  TYR104     -0.0009
     59  CE1      -24.7770   15.2940  -65.0340 C.ar  104  TYR104      0.0417
     60  CE2      -25.5360   13.8900  -63.2350 C.ar  104  TYR104      0.0417
     61  CZ       -25.0460   15.1030  -63.6850 C.ar  104  TYR104      0.1957
     62  OH       -24.8390   16.1170  -62.7760 O.3   104  TYR104     -0.2866
     63  N        -19.2860   27.4350  -60.3510 N.3   149  SER149     -0.1202
     64  CA       -20.0550   26.5850  -61.2690 C.3   149  SER149      0.2020
     65  C        -19.2100   25.7210  -62.2020 C.2   149  SER149      0.2619
     66  O        -18.3060   26.2200  -62.8780 O.2   149  SER149     -0.2717
     67  CB       -20.9770   27.4700  -62.1240 C.3   149  SER149      0.2103
     68  OG       -21.5530   26.7450  -63.2080 O.3   149  SER149     -0.2182
     69  N        -19.5190   24.4290  -62.2640 N.am  150  GLY150     -0.1942
     70  CA       -18.8340   23.5560  -63.2050 C.3   150  GLY150      0.2014
     71  C        -19.2740   23.8660  -64.6300 C.2   150  GLY150      0.2639
     72  O        -18.4820   23.7950  -65.5750 O.2   150  GLY150     -0.2714
     73  N        -20.5470   24.2230  -64.7730 N.am  151  THR151     -0.1950
     74  CA       -21.1440   24.5540  -66.0740 C.3   151  THR151      0.1897
     75  C        -20.3680   25.6550  -66.7820 C.2   151  THR151      0.2313
     76  O        -20.0990   25.5690  -67.9830 O.2   151  THR151     -0.2863
     77  CB       -22.6210   25.0030  -65.9100 C.3   151  THR151      0.1794
     78  OG1      -23.3460   23.9810  -65.2070 O.3   151  THR151     -0.2208
     79  CG2      -23.2990   25.2520  -67.2760 C.3   151  THR151      0.0378
     80  N        -24.2190   32.3000  -59.4840 N.3   184  LYS184     -0.1231
     81  CA       -23.4500   31.3520  -58.6870 C.3   184  LYS184      0.1693
     82  C        -23.7010   29.9130  -59.1730 C.2   184  LYS184      0.2593
     83  O        -22.7560   29.1350  -59.3180 O.2   184  LYS184     -0.2718
     84  CB       -23.7840   31.4910  -57.2000 C.3   184  LYS184      0.0285
     85  CG       -23.1390   30.4240  -56.3120 C.3   184  LYS184      0.0035
     86  CD       -23.3310   30.7800  -54.8400 C.3   184  LYS184      0.0206
     87  CE       -22.7520   29.7330  -53.9080 C.3   184  LYS184      0.1093
     88  NZ       -23.0240   30.1030  -52.4790 N.3   184  LYS184     -0.1314
     89  N        -24.9600   29.5790  -59.4480 N.am  185  SER185     -0.1938
     90  CA       -25.3240   28.2180  -59.8440 C.3   185  SER185      0.2055
     91  C        -25.4540   28.0870  -61.3570 C.2   185  SER185      0.2644
     92  O        -25.9520   28.9950  -62.0160 O.2   185  SER185     -0.2714
     93  CB       -26.6330   27.8070  -59.1910 C.3   185  SER185      0.2130
     94  OG       -26.5780   28.0240  -57.7870 O.3   185  SER185     -0.2179
     95  N        -25.0100   26.9510  -61.8880 N.am  186  GLY186     -0.1939
     96  CA       -25.0800   26.6790  -63.3150 C.3   186  GLY186      0.2014
     97  C        -26.4840   26.7920  -63.8720 C.2   186  GLY186      0.2638
     98  O        -26.6910   27.3330  -64.9550 O.2   186  GLY186     -0.2714
     99  N        -27.4560   26.3110  -63.1060 N.am  187  ILE187     -0.1977
    100  CA       -28.8300   26.2040  -63.5840 C.3   187  ILE187      0.1596
    101  C        -29.5940   27.5350  -63.5600 C.2   187  ILE187      0.2287
    102  O        -30.6510   27.6680  -64.1780 O.2   187  ILE187     -0.2864
    103  CB       -29.6000   25.1520  -62.7470 C.3   187  ILE187      0.0276
    104  CG1      -30.8420   24.6750  -63.4920 C.3   187  ILE187      0.0022
    105  CG2      -29.9150   25.6940  -61.3250 C.3   187  ILE187      0.0022
    106  CD1      -31.5290   23.4840  -62.8330 C.3   187  ILE187      0.0001
    107  N        -26.6500   23.8600  -69.4930 N.3   204  PHE204     -0.1241
    108  CA       -26.7980   22.5060  -70.0100 C.3   204  PHE204      0.1605
    109  C        -28.2490   22.3340  -70.4360 C.2   204  PHE204      0.2264
    110  O        -29.1620   22.6450  -69.6800 O.2   204  PHE204     -0.2867
    111  CB       -26.3740   21.4630  -68.9660 C.3   204  PHE204      0.0534
    112  CG       -24.8880   21.4800  -68.6660 C.ar  204  PHE204     -0.0203
    113  CD1      -23.9570   21.4920  -69.6990 C.ar  204  PHE204     -0.0042
    114  CD2      -24.4300   21.5360  -67.3600 C.ar  204  PHE204     -0.0042
    115  CE1      -22.5830   21.5200  -69.4410 C.ar  204  PHE204     -0.0003
    116  CE2      -23.0520   21.5710  -67.0810 C.ar  204  PHE204     -0.0003
    117  CZ       -22.1260   21.5740  -68.1270 C.ar  204  PHE204     -0.0000
    118  N        -30.4620   20.0320  -70.9020 N.3   206  HIS206     -0.1226
    119  CA       -31.4730   19.2510  -70.1950 C.3   206  HIS206      0.1752
    120  C        -32.1900   20.0850  -69.1360 C.2   206  HIS206      0.2596
    121  O        -33.3520   19.8490  -68.8640 O.2   206  HIS206     -0.2718
    122  CB       -30.8710   17.9850  -69.5590 C.3   206  HIS206      0.0759
    123  CG       -29.7460   18.2580  -68.6200 C.ar  206  HIS206      0.0818
    124  ND1      -28.4260   18.1650  -69.0000 N.ar  206  HIS206     -0.2268
    125  CD2      -29.7420   18.6330  -67.3200 C.ar  206  HIS206      0.1154
    126  CE1      -27.6550   18.4700  -67.9720 C.ar  206  HIS206      0.1986
    127  NE2      -28.4290   18.7560  -66.9410 N.ar  206  HIS206     -0.2212
    128  N        -31.5210   21.0740  -68.5490 N.am  207  ASP207     -0.1974
    129  CA       -32.2000   21.9330  -67.5820 C.3   207  ASP207      0.1709
    130  C        -33.2650   22.7900  -68.2800 C.2   207  ASP207      0.2293
    131  O        -34.3510   23.0150  -67.7410 O.2   207  ASP207     -0.2864
    132  CB       -31.1980   22.8200  -66.8370 C.3   207  ASP207      0.1436
    133  CG       -30.2780   22.0190  -65.9340 C.2   207  ASP207      0.3671
    134  OD1      -30.7620   21.0470  -65.3080 O.co2 207  ASP207     -0.2456
    135  OD2      -29.0740   22.3460  -65.8720 O.co2 207  ASP207     -0.2456
    136  N        -20.8060   18.2880  -70.3440 N.3   230  GLU230     -0.1245
    137  CA       -20.3010   17.7480  -69.0930 C.3   230  GLU230      0.1567
    138  C        -20.4440   16.2420  -69.1070 C.2   230  GLU230      0.2260
    139  O        -21.3420   15.7000  -69.7630 O.2   230  GLU230     -0.2867
    140  CB       -21.0670   18.3040  -67.8960 C.3   230  GLU230      0.0388
    141  CG       -22.5690   18.0560  -68.0140 C.3   230  GLU230      0.1160
    142  CD       -23.3060   18.1990  -66.6990 C.2   230  GLU230      0.3649
    143  OE1      -22.6400   18.2940  -65.6300 O.co2 230  GLU230     -0.2457
    144  OE2      -24.5530   18.2130  -66.7400 O.co2 230  GLU230     -0.2457
    145  N        -30.7980   14.5270  -67.9330 N.3   270  GLN270     -0.1245
    146  CA       -29.5080   14.2550  -68.5620 C.3   270  GLN270      0.1566
    147  C        -29.5320   12.9450  -69.3740 C.2   270  GLN270      0.2260
    148  O        -30.3640   12.0580  -69.1400 O.2   270  GLN270     -0.2867
    149  CB       -28.3910   14.1830  -67.5070 C.3   270  GLN270      0.0367
    150  CG       -28.2010   15.4400  -66.6480 C.3   270  GLN270      0.0905
    151  CD       -28.9270   15.3570  -65.3080 C.2   270  GLN270      0.2608
    152  OE1      -29.8400   14.5500  -65.1370 O.2   270  GLN270     -0.2717
    153  NE2      -28.5150   16.1930  -64.3480 N.am  270  GLN270     -0.0878
@<TRIPOS>BOND
     1   118   119    1
     2   109   108    1
     3   109   110    2
     4   136   137    1
     5   119   122    1
     6   119   120    1
     7   108   107    1
     8   108   111    1
     9   139   138    2
    10   113   115   ar
    11   113   112   ar
    12   122   123    1
    13   115   117   ar
    14   147   148    2
    15   147   146    1
    16   120   121    2
    17   120   128   am
    18   138   137    1
    19   137   140    1
    20   124   123   ar
    21   124   126   ar
    22   111   112    1
    23   112   114   ar
    24   123   125   ar
    25   146   145    1
    26   146   149    1
    27   128   129    1
    28   130   131    2
    29   130   129    1
    30   117   116   ar
    31    53    54    2
    32    53    52    1
    33   141   140    1
    34   141   142    1
    35    76    75    2
    36   126   127   ar
    37   129   132    1
    38   149   150    1
    39   114   116   ar
    40   125   127   ar
    41    79    77    1
    42    52    55    1
    43    52    51    1
    44   132   133    1
    45    75    74    1
    46   144   142   ar
    47   142   143   ar
    48   150   151    1
    49    55    56    1
    50    74    77    1
    51    74    73    1
    52   133   135   ar
    53   133   134   ar
    54    57    56   ar
    55    57    59   ar
    56    77    78    1
    57    72    71    2
    58    56    58   ar
    59   151   152    2
    60   151   153   am
    61    59    61   ar
    62    98    97    2
    63    50    48    1
    64    73    71   am
    65    71    70    1
    66    48    45    1
    67    48    49    1
    68   102   101    2
    69    58    60   ar
    70    97    96    1
    71    97    99   am
    72    45    46    1
    73    45    44    1
    74    61    60   ar
    75    61    62    1
    76   100   101    1
    77   100    99    1
    78   100   103    1
    79   104   106    1
    80   104   103    1
    81    46    47    2
    82    96    95    1
    83    68    67    1
    84    70    69    1
    85    66    65    2
    86   103   105    1
    87    44    42   am
    88    43    42    2
    89    69    65   am
    90    65    64    1
    91    67    64    1
    92    42    41    1
    93    92    91    2
    94    95    91   am
    95    91    90    1
    96    64    63    1
    97    41    40    1
    98    18    16    1
    99    39    38    1
   100    38    35    1
   101    17    16    1
   102    90    89    1
   103    90    93    1
   104    11     8    1
   105    16    13    1
   106    80    81    1
   107    89    82   am
   108    83    82    2
   109     8     9    1
   110     8     7    1
   111    12    13    1
   112    12     9   am
   113    93    94    1
   114    82    81    1
   115     4     3    2
   116    81    84    1
   117    35    34    1
   118    35    36    1
   119    13    14    1
   120     9    10    2
   121    34    32   am
   122     7     3   am
   123     3     2    1
   124    36    37    2
   125     5     2    1
   126     5     6    1
   127    14    15    2
   128    32    31    1
   129    32    33    2
   130    84    85    1
   131     2     1    1
   132    31    30    1
   133    28    27    1
   134    85    86    1
   135    27    29    1
   136    27    26    2
   137    26    25    1
   138    25    24    1
   139    86    87    1
   140    24    23    1
   141    87    88    1
   142    23    20    1
   143    21    20    1
   144    21    22    2
   145    20    19    1
