@<TRIPOS>MOLECULE
tmp/4r75A00.pdb
 174 165 0 0 0
SMALL
GASTEIGER

@<TRIPOS>ATOM
      1  N        -16.5400   -2.7230   10.2980 N.3     9  SER9       -0.1202
      2  CA       -15.7130   -3.8950   10.0220 C.3     9  SER9        0.2020
      3  C        -15.9450   -5.0220   11.0180 C.2     9  SER9        0.2619
      4  O        -15.2540   -6.0420   10.9640 O.2     9  SER9       -0.2717
      5  CB       -14.2300   -3.5270    9.9700 C.3     9  SER9        0.2103
      6  OG       -13.9520   -2.6470    8.8880 O.3     9  SER9       -0.2182
      7  N        -16.8810   -4.8250   11.9450 N.am   10  ALA10      -0.1965
      8  CA       -17.3210   -5.9200   12.8080 C.3    10  ALA10       0.1728
      9  C        -18.3070   -6.7930   12.0310 C.2    10  ALA10       0.2616
     10  O        -18.5490   -6.5480   10.8450 O.2    10  ALA10      -0.2715
     11  CB       -17.9570   -5.3760   14.0810 C.3    10  ALA10       0.0334
     12  N        -18.8810   -7.7980   12.6800 N.am   11  THR11      -0.1951
     13  CA       -19.8650   -8.6440   11.9980 C.3    11  THR11       0.1897
     14  C        -21.1220   -7.8320   11.7280 C.2    11  THR11       0.2313
     15  O        -21.4190   -6.8650   12.4330 O.2    11  THR11      -0.2863
     16  CB       -20.2640   -9.8630   12.8390 C.3    11  THR11       0.1794
     17  OG1      -20.6190   -9.4250   14.1540 O.3    11  THR11      -0.2208
     18  CG2      -19.1180  -10.8890   12.9060 C.3    11  THR11       0.0378
     19  N        -20.6520   -2.8130    5.5460 N.3    34  ARG34      -0.1245
     20  CA       -19.6640   -3.6820    6.1710 C.3    34  ARG34       0.1563
     21  C        -18.6470   -4.2430    5.1800 C.2    34  ARG34       0.2260
     22  O        -19.0170   -4.7920    4.1350 O.2    34  ARG34      -0.2867
     23  CB       -20.3370   -4.8380    6.9100 C.3    34  ARG34       0.0307
     24  CG       -19.2940   -5.7670    7.5160 C.3    34  ARG34       0.0489
     25  CD       -19.8110   -7.1210    7.9610 C.3    34  ARG34       0.2205
     26  NE       -18.6810   -7.9110    8.4450 N.pl3  34  ARG34      -0.0865
     27  CZ       -17.8900   -8.6370    7.6590 C.cat  34  ARG34       0.5346
     28  NH1      -18.1340   -8.7030    6.3570 N.pl3  34  ARG34       0.1354
     29  NH2      -16.8650   -9.3060    8.1720 N.pl3  34  ARG34       0.1354
     30  N        -14.4240   -6.1350    5.7660 N.3    36  GLY36      -0.1210
     31  CA       -13.3840   -6.4500    6.7360 C.3    36  GLY36       0.1956
     32  C        -12.4270   -5.2900    6.9270 C.2    36  GLY36       0.2613
     33  O        -12.4430   -4.3290    6.1660 O.2    36  GLY36      -0.2717
     34  N        -11.5580   -5.3750    7.9220 N.am   37  SER37      -0.1938
     35  CA       -10.6610   -4.2630    8.2000 C.3    37  SER37       0.2055
     36  C         -9.6170   -4.0720    7.0970 C.2    37  SER37       0.2644
     37  O         -9.2140   -2.9500    6.8040 O.2    37  SER37      -0.2714
     38  CB       -10.0240   -4.4080    9.5830 C.3    37  SER37       0.2130
     39  OG        -9.2750   -5.6060    9.6710 O.3    37  SER37      -0.2179
     40  N         -9.1800   -5.1630    6.4780 N.am   38  GLY38      -0.1939
     41  CA        -8.2290   -5.0520    5.3870 C.3    38  GLY38       0.2014
     42  C         -8.8460   -4.3490    4.1860 C.2    38  GLY38       0.2639
     43  O         -8.2660   -3.4030    3.6350 O.2    38  GLY38      -0.2714
     44  N        -10.0130   -4.8180    3.7630 N.am   39  SER39      -0.1949
     45  CA       -10.6960   -4.2100    2.6280 C.3    39  SER39       0.1924
     46  C        -11.0610   -2.7590    2.9100 C.2    39  SER39       0.2314
     47  O        -10.9320   -1.8970    2.0410 O.2    39  SER39      -0.2863
     48  CB       -11.9540   -4.9990    2.2690 C.3    39  SER39       0.2116
     49  OG       -11.6280   -6.2790    1.7560 O.3    39  SER39      -0.2180
     50  N        -13.3280   -3.7580   13.5070 N.3    59  GLY59      -0.1210
     51  CA       -12.2250   -4.2560   12.6930 C.3    59  GLY59       0.1956
     52  C        -10.8950   -4.1090   13.4060 C.2    59  GLY59       0.2612
     53  O        -10.7370   -3.2720   14.2940 O.2    59  GLY59      -0.2717
     54  N         -9.9240   -4.9350   13.0210 N.am   60  THR60      -0.1952
     55  CA        -8.6100   -4.9020   13.6500 C.3    60  THR60       0.1897
     56  C         -7.9970   -3.5120   13.5770 C.2    60  THR60       0.2313
     57  O         -8.2340   -2.7350   12.6380 O.2    60  THR60      -0.2863
     58  CB        -7.6260   -5.9000   13.0170 C.3    60  THR60       0.1794
     59  OG1       -7.3990   -5.5380   11.6570 O.3    60  THR60      -0.2208
     60  CG2       -8.1390   -7.3340   13.0890 C.3    60  THR60       0.0378
     61  N        -12.7570   -2.8650   21.5210 N.3   103  TYR103     -0.1241
     62  CA       -12.8170   -4.2290   22.0370 C.3   103  TYR103      0.1605
     63  C        -11.4810   -4.9550   21.8670 C.2   103  TYR103      0.2264
     64  O        -10.5670   -4.4320   21.2140 O.2   103  TYR103     -0.2867
     65  CB       -13.9560   -5.0420   21.3890 C.3   103  TYR103      0.0534
     66  CG       -13.9370   -5.1810   19.8680 C.ar  103  TYR103     -0.0201
     67  CD1      -12.9860   -5.9640   19.2070 C.ar  103  TYR103     -0.0009
     68  CD2      -14.9250   -4.5730   19.0970 C.ar  103  TYR103     -0.0009
     69  CE1      -13.0140   -6.0970   17.8240 C.ar  103  TYR103      0.0417
     70  CE2      -14.9600   -4.7050   17.7250 C.ar  103  TYR103      0.0417
     71  CZ       -13.9990   -5.4610   17.0970 C.ar  103  TYR103      0.1957
     72  OH       -14.0530   -5.5770   15.7350 O.3   103  TYR103     -0.2866
     73  N         -5.0770   -9.8170    2.1140 N.3   147  SER147     -0.1202
     74  CA        -6.3640   -9.1300    2.1060 C.3   147  SER147      0.2020
     75  C         -6.9320   -8.8480    3.4970 C.2   147  SER147      0.2619
     76  O         -7.6580   -7.8700    3.6830 O.2   147  SER147     -0.2717
     77  CB        -7.3790   -9.9310    1.2850 C.3   147  SER147      0.2103
     78  OG        -7.6680  -11.1710    1.8970 O.3   147  SER147     -0.2182
     79  N         -6.5970   -9.6830    4.4720 N.am  148  SER148     -0.1937
     80  CA        -7.3270   -9.6990    5.7320 C.3   148  SER148      0.2055
     81  C         -6.5580   -9.1050    6.9190 C.2   148  SER148      0.2644
     82  O         -5.4000   -9.4470    7.1650 O.2   148  SER148     -0.2714
     83  CB        -7.7150  -11.1480    6.0290 C.3   148  SER148      0.2130
     84  OG        -7.9870  -11.3610    7.4060 O.3   148  SER148     -0.2179
     85  N         -7.2470   -8.2740    7.6890 N.am  149  GLY149     -0.1939
     86  CA        -6.7010   -7.7620    8.9300 C.3   149  GLY149      0.2014
     87  C         -6.4550   -8.8480    9.9540 C.2   149  GLY149      0.2639
     88  O         -5.4590   -8.8170   10.6670 O.2   149  GLY149     -0.2714
     89  N         -7.3710   -9.8100   10.0310 N.am  150  THR150     -0.1950
     90  CA        -7.2290  -10.9460   10.9470 C.3   150  THR150      0.1897
     91  C         -5.9380  -11.6980   10.6520 C.2   150  THR150      0.2313
     92  O         -5.1840  -12.0670   11.5640 O.2   150  THR150     -0.2863
     93  CB        -8.4290  -11.8860   10.7910 C.3   150  THR150      0.1794
     94  OG1       -9.6250  -11.1370   11.0440 O.3   150  THR150     -0.2208
     95  CG2       -8.3460  -13.0590   11.7470 C.3   150  THR150      0.0378
     96  N        -10.6250  -14.7820    1.9300 N.3   183  LYS183     -0.1231
     97  CA       -10.5600  -13.3270    1.8150 C.3   183  LYS183      0.1693
     98  C        -11.0580  -12.6630    3.0910 C.2   183  LYS183      0.2593
     99  O        -10.5340  -11.6370    3.5010 O.2   183  LYS183     -0.2718
    100  CB       -11.3630  -12.8320    0.6060 C.3   183  LYS183      0.0285
    101  CG       -10.8480  -13.3430   -0.7360 C.3   183  LYS183      0.0035
    102  CD        -9.4680  -12.8120   -1.0630 C.3   183  LYS183      0.0206
    103  CE        -9.1200  -13.0720   -2.5260 C.3   183  LYS183      0.1093
    104  NZ        -9.1550  -14.5210   -2.8780 N.3   183  LYS183     -0.1314
    105  N        -12.0670  -13.2540    3.7210 N.am  184  SER184     -0.1938
    106  CA       -12.6100  -12.7210    4.9750 C.3   184  SER184      0.2055
    107  C        -11.9780  -13.4010    6.1840 C.2   184  SER184      0.2644
    108  O        -11.8000  -14.6310    6.2120 O.2   184  SER184     -0.2714
    109  CB       -14.1340  -12.8810    5.0510 C.3   184  SER184      0.2130
    110  OG       -14.6350  -12.5000    6.3340 O.3   184  SER184     -0.2179
    111  N        -11.6630  -12.5990    7.1900 N.am  185  GLY185     -0.1939
    112  CA       -11.1320  -13.1170    8.4360 C.3   185  GLY185      0.2014
    113  C        -12.0630  -14.0970    9.1170 C.2   185  GLY185      0.2638
    114  O        -11.5880  -14.9760    9.8240 O.2   185  GLY185     -0.2714
    115  N        -13.3740  -13.9540    8.9080 N.am  186  ILE186     -0.1977
    116  CA       -14.3420  -14.7810    9.6240 C.3   186  ILE186      0.1596
    117  C        -14.7610  -16.0760    8.9030 C.2   186  ILE186      0.2287
    118  O        -15.4460  -16.9260    9.4840 O.2   186  ILE186     -0.2864
    119  CB       -15.6050  -13.9800   10.0260 C.3   186  ILE186      0.0276
    120  CG1      -16.4300  -13.5940    8.7980 C.3   186  ILE186      0.0022
    121  CG2      -15.2310  -12.7800   10.8980 C.3   186  ILE186      0.0022
    122  CD1      -17.7160  -12.8480    9.1450 C.3   186  ILE186      0.0001
    123  N        -10.2140  -15.1250   15.3340 N.3   203  PHE203     -0.1241
    124  CA       -10.4730  -14.5710   16.6520 C.3   203  PHE203      0.1605
    125  C        -11.5270  -15.3940   17.3530 C.2   203  PHE203      0.2264
    126  O        -12.6000  -15.6860   16.7970 O.2   203  PHE203     -0.2867
    127  CB       -10.8980  -13.1120   16.5200 C.3   203  PHE203      0.0534
    128  CG        -9.8090  -12.2320   15.9710 C.ar  203  PHE203     -0.0203
    129  CD1       -8.5350  -12.2800   16.5240 C.ar  203  PHE203     -0.0042
    130  CD2      -10.0350  -11.4000   14.8850 C.ar  203  PHE203     -0.0042
    131  CE1       -7.5070  -11.4810   16.0040 C.ar  203  PHE203     -0.0003
    132  CE2       -9.0270  -10.5900   14.3800 C.ar  203  PHE203     -0.0003
    133  CZ        -7.7610  -10.6280   14.9410 C.ar  203  PHE203     -0.0000
    134  N        -13.7640  -15.2030   19.7060 N.3   205  HIS205     -0.1226
    135  CA       -15.1610  -14.8290   19.9490 C.3   205  HIS205      0.1752
    136  C        -16.0700  -15.2450   18.7910 C.2   205  HIS205      0.2596
    137  O        -17.2550  -15.5390   19.0160 O.2   205  HIS205     -0.2718
    138  CB       -15.2990  -13.3320   20.2550 C.3   205  HIS205      0.0759
    139  CG       -14.7370  -12.4580   19.1910 C.ar  205  HIS205      0.0818
    140  ND1      -13.4390  -11.9970   19.2250 N.ar  205  HIS205     -0.2268
    141  CD2      -15.2970  -11.9410   18.0690 C.ar  205  HIS205      0.1154
    142  CE1      -13.2180  -11.2560   18.1550 C.ar  205  HIS205      0.1986
    143  NE2      -14.3270  -11.2030   17.4410 N.ar  205  HIS205     -0.2212
    144  N        -15.5460  -15.2710   17.5660 N.am  206  ASP206     -0.1974
    145  CA       -16.3690  -15.6750   16.4280 C.3   206  ASP206      0.1709
    146  C        -16.7040  -17.1510   16.4960 C.2   206  ASP206      0.2293
    147  O        -17.8160  -17.5730   16.1640 O.2   206  ASP206     -0.2864
    148  CB       -15.6780  -15.3520   15.1070 C.3   206  ASP206      0.1436
    149  CG       -15.5270  -13.8560   14.8930 C.2   206  ASP206      0.3671
    150  OD1      -16.5100  -13.1080   15.1150 O.co2 206  ASP206     -0.2456
    151  OD2      -14.4300  -13.4050   14.5020 O.co2 206  ASP206     -0.2456
    152  N         -6.2410   -8.8950   18.6280 N.3   229  GLU229     -0.1245
    153  CA        -6.5480   -7.6060   18.0090 C.3   229  GLU229      0.1567
    154  C         -7.1300   -6.6660   19.0540 C.2   229  GLU229      0.2260
    155  O         -7.6980   -7.1050   20.0670 O.2   229  GLU229     -0.2867
    156  CB        -7.6190   -7.7680   16.9230 C.3   229  GLU229      0.0388
    157  CG        -8.9160   -8.4240   17.4490 C.3   229  GLU229      0.1160
    158  CD       -10.1500   -8.1480   16.6120 C.2   229  GLU229      0.3649
    159  OE1      -10.1000   -7.2550   15.7310 O.co2 229  GLU229     -0.2457
    160  OE2      -11.1650   -8.8600   16.8440 O.co2 229  GLU229     -0.2457
    161  N        -22.1110  -10.2120   19.5780 N.3   267  ALA267     -0.1245
    162  CA       -20.6740  -10.0810   19.3660 C.3   267  ALA267      0.1562
    163  C        -19.9980  -10.2330   20.7080 C.2   267  ALA267      0.2260
    164  O        -20.2880   -9.4840   21.6420 O.2   267  ALA267     -0.2867
    165  CB       -20.3630   -8.7320   18.7420 C.3   267  ALA267      0.0290
    166  N        -16.6720  -10.1710   21.7780 N.3   269  GLN269     -0.1245
    167  CA       -15.3630   -9.6270   22.1080 C.3   269  GLN269      0.1566
    168  C        -15.3320   -9.1640   23.5400 C.2   269  GLN269      0.2260
    169  O        -16.3620   -8.8960   24.1570 O.2   269  GLN269     -0.2867
    170  CB       -14.9700   -8.4680   21.1850 C.3   269  GLN269      0.0367
    171  CG       -14.9540   -8.8210   19.7000 C.3   269  GLN269      0.0905
    172  CD       -16.2370   -8.3910   18.9950 C.2   269  GLN269      0.2608
    173  OE1      -17.2790   -8.2250   19.6350 O.2   269  GLN269     -0.2717
    174  NE2      -16.1670   -8.1960   17.6820 N.am  269  GLN269     -0.0878
@<TRIPOS>BOND
     1   104   103    1
     2   103   102    1
     3   102   101    1
     4   101   100    1
     5   100    97    1
     6    77    78    1
     7    77    74    1
     8    49    48    1
     9    97    96    1
    10    97    98    1
    11    47    46    2
    12    74    73    1
    13    74    75    1
    14    48    45    1
    15    45    46    1
    16    45    44    1
    17    98    99    2
    18    98   105   am
    19    75    76    2
    20    75    79   am
    21    43    42    2
    22   105   106    1
    23    44    42   am
    24    22    21    2
    25    42    41    1
    26    79    80    1
    27   106   109    1
    28   106   107    1
    29   109   110    1
    30    21    20    1
    31    41    40    1
    32    19    20    1
    33    80    83    1
    34    80    81    1
    35    30    31    1
    36    83    84    1
    37    33    32    2
    38    20    23    1
    39   107   108    2
    40   107   111   am
    41    28    27    1
    42    40    36   am
    43    31    32    1
    44    37    36    2
    45    23    24    1
    46    81    82    2
    47    81    85   am
    48    32    34   am
    49    36    35    1
    50   111   112    1
    51    24    25    1
    52    27    29    1
    53    27    26    2
    54    85    86    1
    55    34    35    1
    56    25    26    1
    57    35    38    1
    58   112   113    1
    59   120   122    1
    60   120   119    1
    61     6     5    1
    62   117   118    2
    63   117   116    1
    64   115   113   am
    65   115   116    1
    66    86    87    1
    67   113   114    2
    68    38    39    1
    69   116   119    1
    70    87    89   am
    71    87    88    2
    72     5     2    1
    73     2     1    1
    74     2     3    1
    75   119   121    1
    76    89    90    1
    77    91    90    1
    78    91    92    2
    79    93    90    1
    80    93    94    1
    81    93    95    1
    82    10     9    2
    83     4     3    2
    84     3     7   am
    85    59    58    1
    86    14    13    1
    87    14    15    2
    88     7     8    1
    89    13    12    1
    90    13    16    1
    91     9    12   am
    92     9     8    1
    93    57    56    2
    94    51    52    1
    95    51    50    1
    96     8    11    1
    97    16    18    1
    98    16    17    1
    99    58    60    1
   100    58    55    1
   101    54    52   am
   102    54    55    1
   103    52    53    2
   104    56    55    1
   105   132   130   ar
   106   132   133   ar
   107   151   149   ar
   108   130   128   ar
   109   149   148    1
   110   149   150   ar
   111   133   131   ar
   112   148   145    1
   113   123   124    1
   114   159   158   ar
   115    72    71    1
   116   128   127    1
   117   128   129   ar
   118   131   129   ar
   119   147   146    2
   120   145   146    1
   121   145   144    1
   122   127   124    1
   123   158   160   ar
   124   158   157    1
   125   124   125    1
   126   126   125    2
   127   156   157    1
   128   156   153    1
   129    71    70   ar
   130    71    69   ar
   131   143   141   ar
   132   143   142   ar
   133   144   136   am
   134   174   172   am
   135    70    68   ar
   136    69    67   ar
   137   153   152    1
   138   153   154    1
   139   141   139   ar
   140   142   140   ar
   141   165   162    1
   142   136   137    2
   143   136   135    1
   144   172   173    2
   145   172   171    1
   146   154   155    2
   147    68    66   ar
   148   139   140   ar
   149   139   138    1
   150    67    66   ar
   151   162   161    1
   152   162   163    1
   153   171   170    1
   154   134   135    1
   155    66    65    1
   156   135   138    1
   157   163   164    2
   158   170   167    1
   159    64    63    2
   160    65    62    1
   161    61    62    1
   162   166   167    1
   163    63    62    1
   164   167   168    1
   165   168   169    2
