@<TRIPOS>MOLECULE
tmp/4r75A01.pdb
 87 84 0 0 0
SMALL
GASTEIGER

@<TRIPOS>ATOM
      1  N        -16.6830  -18.7600   19.3510 N.3   208  ALA208     -0.1245
      2  CA       -17.5030  -18.9110   20.5530 C.3   208  ALA208      0.1562
      3  C        -18.9830  -18.7570   20.2270 C.2   208  ALA208      0.2260
      4  O        -19.8220  -19.5090   20.7320 O.2   208  ALA208     -0.2867
      5  CB       -17.0950  -17.9190   21.6120 C.3   208  ALA208      0.0290
      6  N        -20.2210  -21.8150   18.4550 N.3   211  LYS211     -0.1231
      7  CA       -20.3390  -22.8860   19.4340 C.3   211  LYS211      0.1693
      8  C        -21.6200  -22.7540   20.2400 C.2   211  LYS211      0.2591
      9  O        -22.3830  -23.7110   20.3820 O.2   211  LYS211     -0.2718
     10  CB       -19.1220  -22.8850   20.3710 C.3   211  LYS211      0.0285
     11  CG       -19.1430  -23.9660   21.4450 C.3   211  LYS211      0.0035
     12  CD       -17.9290  -23.8080   22.3550 C.3   211  LYS211      0.0206
     13  CE       -17.9540  -24.7800   23.5300 C.3   211  LYS211      0.1093
     14  NZ       -17.7980  -26.1860   23.0770 N.3   211  LYS211     -0.1314
     15  N        -21.8770  -21.5710   20.7660 N.am  212  GLU212     -0.1979
     16  CA       -23.0610  -21.3890   21.5940 C.3   212  GLU212      0.1602
     17  C        -24.3440  -21.5720   20.7920 C.2   212  GLU212      0.2287
     18  O        -25.3840  -21.9500   21.3470 O.2   212  GLU212     -0.2864
     19  CB       -23.0260  -20.0340   22.2900 C.3   212  GLU212      0.0415
     20  CG       -21.8840  -19.9270   23.3050 C.3   212  GLU212      0.1163
     21  CD       -21.8500  -21.0990   24.2940 C.2   212  GLU212      0.3649
     22  OE1      -22.9250  -21.6110   24.6670 O.co2 212  GLU212     -0.2457
     23  OE2      -20.7480  -21.5180   24.6900 O.co2 212  GLU212     -0.2457
     24  N        -12.8510  -24.5680   21.4050 N.3   219  MET219     -0.1245
     25  CA       -11.9820  -23.4100   21.2680 C.3   219  MET219      0.1570
     26  C        -10.6450  -23.6440   21.9420 C.2   219  MET219      0.2261
     27  O        -10.5480  -24.2780   22.9920 O.2   219  MET219     -0.2867
     28  CB       -12.6400  -22.1550   21.8240 C.3   219  MET219      0.0387
     29  CG       -13.7110  -21.5810   20.9170 C.3   219  MET219      0.0595
     30  SD       -14.4720  -20.1250   21.6400 S.3   219  MET219     -0.1393
     31  CE       -15.1670  -20.8430   23.1230 C.3   219  MET219      0.0692
     32  N        -20.5420  -13.1100   29.7790 N.3   280  PRO280     -0.2102
     33  CA       -20.0260  -14.3170   30.4380 C.3   280  PRO280      0.1504
     34  C        -19.2330  -15.2070   29.4790 C.2   280  PRO280      0.2576
     35  O        -18.4770  -16.0650   29.9390 O.2   280  PRO280     -0.2718
     36  CB       -21.3010  -15.0330   30.9120 C.3   280  PRO280      0.0282
     37  CG       -22.3200  -13.9490   31.0250 C.3   280  PRO280      0.0208
     38  CD       -22.0060  -12.9890   29.9030 C.3   280  PRO280      0.0893
     39  N        -19.3910  -14.9980   28.1750 N.am  281  LEU281     -0.1966
     40  CA       -18.6830  -15.7960   27.1780 C.3   281  LEU281      0.1728
     41  C        -17.4170  -15.0990   26.6610 C.2   281  LEU281      0.2616
     42  O        -16.7060  -15.6650   25.8330 O.2   281  LEU281     -0.2715
     43  CB       -19.6020  -16.1080   26.0000 C.3   281  LEU281      0.0311
     44  CG       -20.8650  -16.8930   26.3650 C.3   281  LEU281      0.0022
     45  CD1      -21.8380  -16.9870   25.1990 C.3   281  LEU281      0.0001
     46  CD2      -20.4960  -18.2840   26.8730 C.3   281  LEU281      0.0001
     47  N        -17.1430  -13.8800   27.1300 N.am  282  ALA282     -0.1963
     48  CA       -15.9610  -13.1430   26.6900 C.3   282  ALA282      0.1728
     49  C        -14.7190  -13.6480   27.4060 C.2   282  ALA282      0.2616
     50  O        -14.7740  -14.1030   28.5570 O.2   282  ALA282     -0.2715
     51  CB       -16.1330  -11.6300   26.8960 C.3   282  ALA282      0.0334
     52  N        -13.5920  -13.5730   26.7160 N.am  283  PHE283     -0.1960
     53  CA       -12.3330  -13.9790   27.3110 C.3   283  PHE283      0.1771
     54  C        -11.8350  -12.9470   28.3280 C.2   283  PHE283      0.2619
     55  O        -12.0020  -11.7340   28.1620 O.2   283  PHE283     -0.2715
     56  CB       -11.2880  -14.2580   26.2200 C.3   283  PHE283      0.0574
     57  CG       -11.5460  -15.5200   25.4640 C.ar  283  PHE283     -0.0200
     58  CD1      -12.4160  -15.5340   24.3870 C.ar  283  PHE283     -0.0042
     59  CD2      -10.9330  -16.6970   25.8430 C.ar  283  PHE283     -0.0042
     60  CE1      -12.6750  -16.6970   23.7070 C.ar  283  PHE283     -0.0003
     61  CE2      -11.1850  -17.8680   25.1630 C.ar  283  PHE283     -0.0003
     62  CZ       -12.0510  -17.8720   24.0960 C.ar  283  PHE283     -0.0000
     63  N        -11.2560  -13.4590   29.4070 N.am  284  ASP284     -0.1971
     64  CA       -10.6400  -12.6570   30.4520 C.3   284  ASP284      0.1709
     65  C         -9.1350  -12.6090   30.1760 C.2   284  ASP284      0.2293
     66  O         -8.4500  -13.6330   30.2860 O.2   284  ASP284     -0.2864
     67  CB       -10.9170  -13.3400   31.7960 C.3   284  ASP284      0.1436
     68  CG       -10.3940  -12.5580   32.9850 C.2   284  ASP284      0.3671
     69  OD1       -9.5940  -11.6240   32.8080 O.co2 284  ASP284     -0.2456
     70  OD2      -10.7960  -12.9040   34.1170 O.co2 284  ASP284     -0.2456
     71  N         -6.3750  -14.1520   32.4090 N.3   287  LYS287     -0.1231
     72  CA        -6.2680  -15.5810   32.5170 C.3   287  LYS287      0.1693
     73  C         -5.4440  -16.2170   31.3920 C.2   287  LYS287      0.2591
     74  O         -5.3190  -17.3850   31.3630 O.2   287  LYS287     -0.2718
     75  CB        -7.6260  -16.2430   32.5140 C.3   287  LYS287      0.0285
     76  CG        -8.5570  -15.7170   33.5920 C.3   287  LYS287      0.0035
     77  CD        -9.0690  -16.8490   34.4050 C.3   287  LYS287      0.0206
     78  CE        -9.8120  -16.3380   35.6020 C.3   287  LYS287      0.1093
     79  NZ       -11.1840  -16.2020   35.1410 N.3   287  LYS287     -0.1314
     80  N         -4.9720  -15.3830   30.4630 N.am  288  LEU288     -0.1980
     81  CA        -4.4100  -15.8860   29.2080 C.3   288  LEU288      0.1596
     82  C         -2.9260  -15.5970   29.0220 C.2   288  LEU288      0.2287
     83  O         -2.4210  -14.5640   29.4700 O.2   288  LEU288     -0.2864
     84  CB        -5.1760  -15.2970   28.0190 C.3   288  LEU288      0.0297
     85  CG        -6.6940  -15.4560   28.0140 C.3   288  LEU288      0.0022
     86  CD1       -7.2860  -14.8350   26.7580 C.3   288  LEU288      0.0001
     87  CD2       -7.0480  -16.9330   28.0910 C.3   288  LEU288      0.0001
@<TRIPOS>BOND
     1     6     7    1
     2     1     2    1
     3     7     8    1
     4     7    10    1
     5     3     2    1
     6     3     4    2
     7     8     9    2
     8     8    15   am
     9    10    11    1
    10     2     5    1
    11    15    16    1
    12    17    18    2
    13    17    16    1
    14    29    30    1
    15    29    28    1
    16    25    24    1
    17    25    28    1
    18    25    26    1
    19    11    12    1
    20    16    19    1
    21    30    31    1
    22    26    27    2
    23    19    20    1
    24    12    13    1
    25    14    13    1
    26    20    21    1
    27    60    62   ar
    28    60    58   ar
    29    62    61   ar
    30    21    22   ar
    31    21    23   ar
    32    58    57   ar
    33    61    59   ar
    34    45    44    1
    35    57    59   ar
    36    57    56    1
    37    42    41    2
    38    43    44    1
    39    43    40    1
    40    56    53    1
    41    44    46    1
    42    41    47   am
    43    41    40    1
    44    48    51    1
    45    48    47    1
    46    48    49    1
    47    52    53    1
    48    52    49   am
    49    86    85    1
    50    40    39    1
    51    53    54    1
    52    49    50    2
    53    85    84    1
    54    85    87    1
    55    84    81    1
    56    55    54    2
    57    39    34   am
    58    54    63   am
    59    82    81    1
    60    82    83    2
    61    81    80    1
    62    63    64    1
    63    34    35    2
    64    34    33    1
    65    32    38    1
    66    32    33    1
    67    38    37    1
    68    65    66    2
    69    65    64    1
    70    33    36    1
    71    64    67    1
    72    80    73   am
    73    36    37    1
    74    74    73    2
    75    73    72    1
    76    67    68    1
    77    71    72    1
    78    75    72    1
    79    75    76    1
    80    69    68   ar
    81    68    70   ar
    82    76    77    1
    83    77    78    1
    84    79    78    1
