@<TRIPOS>MOLECULE
tmp/4r76J00.pdb
 194 182 0 0 0
SMALL
GASTEIGER

@<TRIPOS>ATOM
      1  N         68.5040   33.4470  138.8560 N.3   282  LYS282     -0.1245
      2  CA        69.9020   33.5420  139.2580 C.3   282  LYS282      0.1561
      3  C         70.0110   33.5850  140.7770 C.2   282  LYS282      0.2260
      4  O         69.4210   34.4480  141.4270 O.2   282  LYS282     -0.2867
      5  CB        70.5620   34.7770  138.6480 C.3   282  LYS282      0.0271
      6  CG        71.9910   35.0060  139.1030 C.3   282  LYS282      0.0035
      7  CD        72.5560   36.2930  138.5190 C.3   282  LYS282      0.0206
      8  CE        73.9420   36.5840  139.0690 C.3   282  LYS282      0.1093
      9  NZ        74.6590   37.6270  138.2880 N.3   282  LYS282     -0.1314
     10  N         78.1320   37.9530  145.5260 N.3   287  ASP287     -0.1239
     11  CA        78.9860   38.1130  144.3590 C.3   287  ASP287      0.1674
     12  C         80.1710   39.0160  144.6750 C.2   287  ASP287      0.2266
     13  O         80.0620   40.2380  144.6300 O.2   287  ASP287     -0.2867
     14  CB        78.1820   38.6790  143.1850 C.3   287  ASP287      0.1410
     15  CG        78.9680   38.6920  141.8870 C.2   287  ASP287      0.3668
     16  OD1       80.0290   38.0390  141.8190 O.co2 287  ASP287     -0.2456
     17  OD2       78.5180   39.3520  140.9290 O.co2 287  ASP287     -0.2456
     18  N         85.3450   42.8320  142.6090 N.3   294  LYS294     -0.1245
     19  CA        84.6530   44.1100  142.5200 C.3   294  LYS294      0.1561
     20  C         85.3710   45.1460  143.3780 C.2   294  LYS294      0.2260
     21  O         84.9980   45.3740  144.5280 O.2   294  LYS294     -0.2867
     22  CB        83.1950   43.9720  142.9630 C.3   294  LYS294      0.0271
     23  CG        82.3240   43.1690  142.0140 C.3   294  LYS294      0.0035
     24  CD        80.9320   42.9820  142.5900 C.3   294  LYS294      0.0206
     25  CE        80.0820   42.0890  141.7060 C.3   294  LYS294      0.1093
     26  NZ        80.0460   42.5760  140.2980 N.3   294  LYS294     -0.1314
     27  N         82.3380   52.2010  142.2170 N.3   298  GLY298     -0.1210
     28  CA        81.0140   52.0700  141.6400 C.3   298  GLY298      0.1956
     29  C         80.5940   50.6280  141.4270 C.2   298  GLY298      0.2613
     30  O         79.4860   50.3590  140.9610 O.2   298  GLY298     -0.2717
     31  N         81.4770   49.6940  141.7660 N.am  299  SER299     -0.1938
     32  CA        81.1660   48.2760  141.6240 C.3   299  SER299      0.2055
     33  C         80.2000   47.8190  142.7170 C.2   299  SER299      0.2642
     34  O         79.5830   46.7590  142.6010 O.2   299  SER299     -0.2714
     35  CB        82.4450   47.4370  141.6500 C.3   299  SER299      0.2130
     36  OG        83.2150   47.7100  142.8060 O.3   299  SER299     -0.2179
     37  N         80.0840   48.6280  143.7700 N.am  300  MET300     -0.1976
     38  CA        79.1000   48.4290  144.8380 C.3   300  MET300      0.1605
     39  C         79.0580   47.0060  145.3870 C.2   300  MET300      0.2287
     40  O         78.0250   46.3400  145.3170 O.2   300  MET300     -0.2864
     41  CB        77.7060   48.8220  144.3420 C.3   300  MET300      0.0413
     42  CG        77.4830   50.3230  144.2490 C.3   300  MET300      0.0598
     43  SD        75.7710   50.7620  143.8880 S.3   300  MET300     -0.1393
     44  CE        75.6940   50.4190  142.1330 C.3   300  MET300      0.0692
     45  N         76.4960   45.6640  148.0470 N.3   303  LEU303     -0.1231
     46  CA        75.1270   45.3950  147.6320 C.3   303  LEU303      0.1693
     47  C         74.9330   43.9230  147.2780 C.2   303  LEU303      0.2591
     48  O         73.8170   43.4240  147.2810 O.2   303  LEU303     -0.2718
     49  CB        74.7520   46.2740  146.4340 C.3   303  LEU303      0.0284
     50  CG        73.3020   46.2360  145.9450 C.3   303  LEU303      0.0019
     51  CD1       72.3920   46.9350  146.9370 C.3   303  LEU303      0.0001
     52  CD2       73.1700   46.8590  144.5610 C.3   303  LEU303      0.0001
     53  N         76.0320   43.2240  147.0120 N.am  304  MET304     -0.1979
     54  CA        75.9810   41.9460  146.3020 C.3   304  MET304      0.1605
     55  C         75.3730   40.7500  147.0490 C.2   304  MET304      0.2287
     56  O         75.4120   39.6270  146.5470 O.2   304  MET304     -0.2864
     57  CB        77.3880   41.5860  145.8320 C.3   304  MET304      0.0413
     58  CG        77.8440   42.4510  144.6700 C.3   304  MET304      0.0598
     59  SD        76.6680   42.3960  143.3030 S.3   304  MET304     -0.1393
     60  CE        76.8540   44.0410  142.6180 C.3   304  MET304      0.0692
     61  N         72.4650   40.8940  147.2130 N.3   306  PHE306     -0.1227
     62  CA        71.2920   41.1140  146.3830 C.3   306  PHE306      0.1736
     63  C         71.3200   40.2710  145.1020 C.2   306  PHE306      0.2595
     64  O         70.3070   40.1190  144.4190 O.2   306  PHE306     -0.2718
     65  CB        71.2310   42.6270  146.1130 C.3   306  PHE306      0.0547
     66  CG        70.6840   43.0270  144.7820 C.ar  306  PHE306     -0.0202
     67  CD1       69.3480   42.8900  144.4900 C.ar  306  PHE306     -0.0042
     68  CD2       71.5160   43.5950  143.8300 C.ar  306  PHE306     -0.0042
     69  CE1       68.8610   43.2880  143.2720 C.ar  306  PHE306     -0.0003
     70  CE2       71.0270   43.9910  142.6110 C.ar  306  PHE306     -0.0003
     71  CZ        69.6970   43.8390  142.3300 C.ar  306  PHE306     -0.0000
     72  N         72.4710   39.6680  144.8200 N.am  307  ASP307     -0.1974
     73  CA        72.6880   38.9410  143.5690 C.3   307  ASP307      0.1709
     74  C         71.9050   37.6250  143.4490 C.2   307  ASP307      0.2293
     75  O         72.1530   36.8370  142.5360 O.2   307  ASP307     -0.2864
     76  CB        74.1820   38.6580  143.3930 C.3   307  ASP307      0.1436
     77  CG        74.5830   38.5280  141.9400 C.2   307  ASP307      0.3671
     78  OD1       74.0050   39.2480  141.1000 O.co2 307  ASP307     -0.2456
     79  OD2       75.4750   37.7100  141.6350 O.co2 307  ASP307     -0.2456
     80  N         86.3160   36.6770  132.5090 N.3   365  ASN365     -0.1240
     81  CA        86.0500   37.4940  133.6850 C.3   365  ASN365      0.1653
     82  C         85.2070   36.7380  134.7120 C.2   365  ASN365      0.2266
     83  O         84.0590   36.3790  134.4460 O.2   365  ASN365     -0.2867
     84  CB        85.3550   38.7930  133.2770 C.3   365  ASN365      0.1155
     85  CG        85.4450   39.8590  134.3450 C.2   365  ASN365      0.2627
     86  OD1       84.9380   39.6870  135.4490 O.2   365  ASN365     -0.2716
     87  ND2       86.1030   40.9670  134.0230 N.am  365  ASN365     -0.0877
     88  N         83.7760   37.7060  137.2260 N.3   367  ASP367     -0.1225
     89  CA        82.6660   38.5010  137.7440 C.3   367  ASP367      0.1805
     90  C         81.4460   38.3950  136.8290 C.2   367  ASP367      0.2598
     91  O         80.4080   39.0050  137.0810 O.2   367  ASP367     -0.2718
     92  CB        83.0910   39.9640  137.9110 C.3   367  ASP367      0.1424
     93  CG        82.0960   40.7770  138.7160 C.2   367  ASP367      0.3668
     94  OD1       81.2830   40.1730  139.4460 O.co2 367  ASP367     -0.2456
     95  OD2       82.1250   42.0220  138.6160 O.co2 367  ASP367     -0.2456
     96  N         81.5790   37.6160  135.7620 N.am  368  ALA368     -0.1966
     97  CA        80.4490   37.3230  134.8900 C.3   368  ALA368      0.1728
     98  C         79.9620   35.9040  135.1580 C.2   368  ALA368      0.2616
     99  O         79.7760   35.1120  134.2340 O.2   368  ALA368     -0.2715
    100  CB        80.8370   37.4980  133.4330 C.3   368  ALA368      0.0334
    101  N         79.7530   35.5940  136.4340 N.am  369  GLU369     -0.1963
    102  CA        79.4710   34.2290  136.8630 C.3   369  GLU369      0.1733
    103  C         78.0000   33.8590  136.7240 C.2   369  GLU369      0.2617
    104  O         77.6580   32.6780  136.6560 O.2   369  GLU369     -0.2715
    105  CB        79.9150   34.0280  138.3160 C.3   369  GLU369      0.0429
    106  CG        78.8880   34.4530  139.3650 C.3   369  GLU369      0.1163
    107  CD        78.6680   35.9530  139.4130 C.2   369  GLU369      0.3649
    108  OE1       79.5400   36.7040  138.9270 O.co2 369  GLU369     -0.2457
    109  OE2       77.6190   36.3840  139.9390 O.co2 369  GLU369     -0.2457
    110  N         77.1340   34.8670  136.6880 N.am  370  GLY370     -0.1940
    111  CA        75.7040   34.6350  136.6180 C.3   370  GLY370      0.2014
    112  C         75.2900   33.8450  135.3930 C.2   370  GLY370      0.2638
    113  O         74.5100   32.8970  135.4890 O.2   370  GLY370     -0.2714
    114  N         75.8250   34.2310  134.2400 N.am  371  ARG371     -0.1977
    115  CA        75.5110   33.5590  132.9870 C.3   371  ARG371      0.1597
    116  C         76.0560   32.1350  132.9880 C.2   371  ARG371      0.2287
    117  O         75.5140   31.2540  132.3220 O.2   371  ARG371     -0.2864
    118  CB        76.0760   34.3430  131.8020 C.3   371  ARG371      0.0334
    119  CG        77.5850   34.2330  131.6440 C.3   371  ARG371      0.0492
    120  CD        78.1040   35.2640  130.6670 C.3   371  ARG371      0.2205
    121  NE        77.8950   36.6140  131.1750 N.pl3 371  ARG371     -0.0865
    122  CZ        78.1100   37.7200  130.4730 C.cat 371  ARG371      0.5346
    123  NH1       78.5390   37.6410  129.2190 N.pl3 371  ARG371      0.1354
    124  NH2       77.8920   38.9050  131.0250 N.pl3 371  ARG371      0.1354
    125  N         69.6930   39.2000  138.0970 N.3   394  THR394     -0.1203
    126  CA        70.4530   40.4350  138.2390 C.3   394  THR394      0.1994
    127  C         71.7630   40.2700  137.4760 C.2   394  THR394      0.2618
    128  O         72.8230   40.0760  138.0710 O.2   394  THR394     -0.2717
    129  CB        70.7330   40.7720  139.7150 C.3   394  THR394      0.1784
    130  OG1       71.4770   39.7070  140.3190 O.3   394  THR394     -0.2211
    131  CG2       69.4290   40.9540  140.4690 C.3   394  THR394      0.0376
    132  N         71.6790   40.3470  136.1510 N.am  395  LEU395     -0.1965
    133  CA        72.7550   39.8730  135.2880 C.3   395  LEU395      0.1728
    134  C         73.8070   40.9230  134.9410 C.2   395  LEU395      0.2617
    135  O         74.9940   40.6940  135.1460 O.2   395  LEU395     -0.2715
    136  CB        72.1670   39.3020  133.9960 C.3   395  LEU395      0.0311
    137  CG        73.0110   38.2240  133.3130 C.3   395  LEU395      0.0022
    138  CD1       73.0650   36.9700  134.1780 C.3   395  LEU395      0.0001
    139  CD2       72.4680   37.8990  131.9340 C.3   395  LEU395      0.0001
    140  N         73.3870   42.0620  134.4020 N.am  396  THR396     -0.1937
    141  CA        74.3490   43.0490  133.9180 C.3   396  THR396      0.2028
    142  C         74.1070   44.4500  134.4670 C.2   396  THR396      0.2642
    143  O         72.9790   44.9410  134.4730 O.2   396  THR396     -0.2714
    144  CB        74.3450   43.1240  132.3770 C.3   396  THR396      0.1808
    145  OG1       73.0230   43.4210  131.9120 O.3   396  THR396     -0.2208
    146  CG2       74.8100   41.8050  131.7750 C.3   396  THR396      0.0379
    147  N         75.1840   45.0940  134.9080 N.am  397  GLY397     -0.1954
    148  CA        75.1080   46.4370  135.4520 C.3   397  GLY397      0.1869
    149  C         74.8440   47.4880  134.3900 C.2   397  GLY397      0.2309
    150  O         74.4290   48.6050  134.6990 O.2   397  GLY397     -0.2863
    151  N         71.7030   49.6680  134.0800 N.3   400  LEU400     -0.1245
    152  CA        71.5930   50.9660  134.7320 C.3   400  LEU400      0.1561
    153  C         71.8560   52.1010  133.7500 C.2   400  LEU400      0.2260
    154  O         71.4130   53.2300  133.9600 O.2   400  LEU400     -0.2867
    155  CB        72.5640   51.0560  135.9100 C.3   400  LEU400      0.0270
    156  CG        72.2030   50.2400  137.1520 C.3   400  LEU400      0.0019
    157  CD1       73.3760   50.1800  138.1170 C.3   400  LEU400      0.0001
    158  CD2       70.9830   50.8340  137.8310 C.3   400  LEU400      0.0001
    159  N         82.5160   36.2540  127.8260 N.3   455  ILE455     -0.1231
    160  CA        82.2830   37.6800  127.6250 C.3   455  ILE455      0.1692
    161  C         82.9290   38.2020  126.3500 C.2   455  ILE455      0.2592
    162  O         83.7610   37.5360  125.7340 O.2   455  ILE455     -0.2718
    163  CB        82.8200   38.5190  128.7970 C.3   455  ILE455      0.0266
    164  CG1       84.3290   38.3100  128.9490 C.3   455  ILE455      0.0019
    165  CG2       82.0900   38.1760  130.0810 C.3   455  ILE455      0.0020
    166  CD1       85.0360   39.4590  129.6280 C.3   455  ILE455      0.0001
    167  N         82.5360   39.4100  125.9700 N.am  456  SER456     -0.1952
    168  CA        83.1380   40.1010  124.8440 C.3   456  SER456      0.1924
    169  C         84.3380   40.9110  125.3090 C.2   456  SER456      0.2314
    170  O         84.3270   41.4800  126.4010 O.2   456  SER456     -0.2863
    171  CB        82.1170   41.0150  124.1690 C.3   456  SER456      0.2116
    172  OG        82.7300   41.8290  123.1860 O.3   456  SER456     -0.2180
    173  N         76.9330   44.9040  127.0270 N.3   462  SER462     -0.1217
    174  CA        77.0110   43.7270  127.8900 C.3   462  SER462      0.1889
    175  C         75.7120   42.9310  127.9640 C.2   462  SER462      0.2288
    176  O         75.7250   41.7020  127.8970 O.2   462  SER462     -0.2866
    177  CB        77.4230   44.1450  129.3040 C.3   462  SER462      0.2089
    178  OG        78.5820   44.9580  129.2780 O.3   462  SER462     -0.2183
    179  N         68.8490   43.5660  137.0600 N.3   485  ALA485     -0.1245
    180  CA        70.0270   44.0360  137.7800 C.3   485  ALA485      0.1562
    181  C         69.9030   45.4900  138.2250 C.2   485  ALA485      0.2260
    182  O         70.4560   45.8800  139.2530 O.2   485  ALA485     -0.2867
    183  CB        71.2640   43.8600  136.9220 C.3   485  ALA485      0.0290
    184  N         67.4940   51.8320  145.8060 N.3   491  PHE491     -0.1241
    185  CA        68.6470   52.5390  146.3580 C.3   491  PHE491      0.1605
    186  C         68.2600   53.7040  147.2600 C.2   491  PHE491      0.2264
    187  O         68.9380   53.9820  148.2500 O.2   491  PHE491     -0.2867
    188  CB        69.5440   53.0450  145.2270 C.3   491  PHE491      0.0534
    189  CG        70.0960   51.9510  144.3590 C.ar  491  PHE491     -0.0203
    190  CD1       71.1770   51.1960  144.7790 C.ar  491  PHE491     -0.0042
    191  CD2       69.5290   51.6720  143.1260 C.ar  491  PHE491     -0.0042
    192  CE1       71.6870   50.1880  143.9860 C.ar  491  PHE491     -0.0003
    193  CE2       70.0350   50.6640  142.3260 C.ar  491  PHE491     -0.0003
    194  CZ        71.1150   49.9220  142.7590 C.ar  491  PHE491     -0.0000
@<TRIPOS>BOND
     1   172   171    1
     2   171   168    1
     3   168   169    1
     4   168   167    1
     5   169   170    2
     6   162   161    2
     7   167   161   am
     8   161   160    1
     9   173   174    1
    10   160   159    1
    11   160   163    1
    12   174   175    1
    13   174   177    1
    14   176   175    2
    15   163   164    1
    16   163   165    1
    17   164   166    1
    18   123   122    1
    19   178   177    1
    20   122   124    1
    21   122   121    2
    22   120   121    1
    23   120   119    1
    24   119   118    1
    25   146   144    1
    26   118   115    1
    27   145   144    1
    28   139   137    1
    29   117   116    2
    30   144   141    1
    31    80    81    1
    32   115   116    1
    33   115   114    1
    34    84    81    1
    35    84    85    1
    36   137   136    1
    37   137   138    1
    38   100    97    1
    39    81    82    1
    40   153   154    2
    41   153   152    1
    42   141   140    1
    43   141   142    1
    44   136   133    1
    45    87    85   am
    46   151   152    1
    47    99    98    2
    48   114   112   am
    49    85    86    2
    50   149   150    2
    51   149   148    1
    52   140   134   am
    53    83    82    2
    54   142   143    2
    55   142   147   am
    56   152   155    1
    57    97    98    1
    58    97    96    1
    59   147   148    1
    60   134   135    2
    61   134   133    1
    62    98   101   am
    63   133   132    1
    64   112   113    2
    65   112   111    1
    66    96    90   am
    67   155   156    1
    68   132   127   am
    69   101   102    1
    70   111   110    1
    71   104   103    2
    72   110   103   am
    73   103   102    1
    74    90    91    2
    75    90    89    1
    76   102   105    1
    77   183   180    1
    78   179   180    1
    79   156   158    1
    80   156   157    1
    81    88    89    1
    82   127   128    2
    83   127   126    1
    84    89    92    1
    85   180   181    1
    86    92    93    1
    87   125   126    1
    88   181   182    2
    89   126   129    1
    90     9     8    1
    91   105   106    1
    92     7     8    1
    93     7     6    1
    94    95    93   ar
    95     5     6    1
    96     5     2    1
    97    93    94   ar
    98     1     2    1
    99   108   107   ar
   100     2     3    1
   101   106   107    1
   102   107   109   ar
   103   129   130    1
   104   129   131    1
   105    26    25    1
   106     3     4    2
   107    17    15   ar
   108    30    29    2
   109    78    77   ar
   110    29    28    1
   111    29    31   am
   112    32    35    1
   113    32    31    1
   114    32    33    1
   115    79    77   ar
   116    28    27    1
   117    35    36    1
   118    25    24    1
   119    16    15   ar
   120    15    14    1
   121    77    76    1
   122    23    24    1
   123    23    22    1
   124    44    43    1
   125   193   194   ar
   126   193   191   ar
   127    71    70   ar
   128    71    69   ar
   129    19    18    1
   130    19    22    1
   131    19    20    1
   132    75    74    2
   133    34    33    2
   134    70    68   ar
   135    60    59    1
   136    33    37   am
   137   194   192   ar
   138   191   189   ar
   139    14    11    1
   140    69    67   ar
   141    59    58    1
   142    20    21    2
   143    76    73    1
   144    74    73    1
   145    73    72    1
   146    37    38    1
   147    68    66   ar
   148    43    42    1
   149   192   190   ar
   150    42    41    1
   151    41    38    1
   152   189   190   ar
   153   189   188    1
   154    11    12    1
   155    11    10    1
   156    64    63    2
   157    67    66   ar
   158    52    50    1
   159    13    12    2
   160    58    57    1
   161    66    65    1
   162    72    63   am
   163    38    39    1
   164    63    62    1
   165   188   185    1
   166    40    39    2
   167   184   185    1
   168    57    54    1
   169    50    49    1
   170    50    51    1
   171    65    62    1
   172    54    53    1
   173    54    55    1
   174   185   186    1
   175    62    61    1
   176    49    46    1
   177    56    55    2
   178    53    47   am
   179   186   187    2
   180    47    48    2
   181    47    46    1
   182    46    45    1
