@<TRIPOS>MOLECULE
tmp/4r78A00.pdb
 153 145 0 0 0
SMALL
GASTEIGER

@<TRIPOS>ATOM
      1  N         13.8260  -19.5800    2.9710 N.3    31  MET31      -0.1230
      2  CA        13.7840  -19.1550    4.3560 C.3    31  MET31       0.1702
      3  C         12.8510  -20.0070    5.2210 C.2    31  MET31       0.2593
      4  O         13.2290  -20.4260    6.3200 O.2    31  MET31      -0.2718
      5  CB        13.3460  -17.6970    4.3750 C.3    31  MET31       0.0401
      6  CG        13.1650  -17.1050    5.7250 C.3    31  MET31       0.0596
      7  SD        12.6560  -15.4100    5.4790 S.3    31  MET31      -0.1393
      8  CE        12.3350  -14.9590    7.1660 C.3    31  MET31       0.0692
      9  N         11.6420  -20.2600    4.7200 N.am   32  THR32      -0.1953
     10  CA        10.6110  -20.9630    5.4860 C.3    32  THR32       0.1897
     11  C         10.5700  -22.4560    5.1790 C.2    32  THR32       0.2313
     12  O         11.2170  -22.9230    4.2450 O.2    32  THR32      -0.2863
     13  CB         9.1980  -20.3750    5.2310 C.3    32  THR32       0.1794
     14  OG1        8.7120  -20.8070    3.9500 O.3    32  THR32      -0.2208
     15  CG2        9.2100  -18.8480    5.3040 C.3    32  THR32       0.0378
     16  N          7.8730  -23.9950    4.1640 N.3    34  GLN34      -0.1231
     17  CA         6.6120  -24.1530    3.4310 C.3    34  GLN34       0.1698
     18  C          6.7110  -24.8970    2.1030 C.2    34  GLN34       0.2592
     19  O          5.7160  -25.4420    1.6260 O.2    34  GLN34      -0.2718
     20  CB         5.9780  -22.7910    3.1640 C.3    34  GLN34       0.0381
     21  CG         5.5410  -22.0400    4.3960 C.3    34  GLN34       0.0905
     22  CD         5.0180  -20.6740    4.0430 C.2    34  GLN34       0.2608
     23  OE1        3.8070  -20.4590    3.9750 O.2    34  GLN34      -0.2717
     24  NE2        5.9290  -19.7430    3.7780 N.am   34  GLN34      -0.0878
     25  N          7.8920  -24.8980    1.4980 N.am   35  ASN35      -0.1974
     26  CA         8.0170  -25.2730    0.0940 C.3    35  ASN35       0.1688
     27  C          8.6450  -26.6430   -0.1270 C.2    35  ASN35       0.2292
     28  O          9.6850  -26.9640    0.4530 O.2    35  ASN35      -0.2864
     29  CB         8.7760  -24.1800   -0.6540 C.3    35  ASN35       0.1181
     30  CG         8.0980  -22.8280   -0.5260 C.2    35  ASN35       0.2629
     31  OD1        6.9700  -22.6460   -0.9820 O.2    35  ASN35      -0.2716
     32  ND2        8.7660  -21.8850    0.1280 N.am   35  ASN35      -0.0877
     33  N          3.2100  -25.8800   -1.7510 N.3    48  LYS48      -0.1245
     34  CA         3.3360  -24.9100   -0.6740 C.3    48  LYS48       0.1561
     35  C          2.3810  -25.2550    0.4620 C.2    48  LYS48       0.2260
     36  O          1.1580  -25.1830    0.3140 O.2    48  LYS48      -0.2867
     37  CB         3.1110  -23.4780   -1.1610 C.3    48  LYS48       0.0271
     38  CG         3.5780  -22.4470   -0.1460 C.3    48  LYS48       0.0035
     39  CD         3.4870  -21.0230   -0.6660 C.3    48  LYS48       0.0206
     40  CE         4.0870  -20.0560    0.3500 C.3    48  LYS48       0.1093
     41  NZ         4.0440  -18.6380   -0.1130 N.3    48  LYS48      -0.1314
     42  N          2.3650   -9.4640   -1.4240 N.3   179  ASP179     -0.1239
     43  CA         3.6080  -10.0960   -0.9610 C.3   179  ASP179      0.1674
     44  C          4.6470  -10.1630   -2.0900 C.2   179  ASP179      0.2266
     45  O          5.0940  -11.2490   -2.4800 O.2   179  ASP179     -0.2867
     46  CB         3.3980  -11.4770   -0.3130 C.3   179  ASP179      0.1410
     47  CG         4.6530  -12.0140    0.3570 C.2   179  ASP179      0.3668
     48  OD1        5.4890  -11.2000    0.8070 O.co2 179  ASP179     -0.2456
     49  OD2        4.8060  -13.2510    0.4340 O.co2 179  ASP179     -0.2456
     50  N          7.8090  -10.0950   -2.7440 N.3   181  VAL181     -0.1245
     51  CA         9.2170  -10.4920   -2.6410 C.3   181  VAL181      0.1561
     52  C          9.7180  -10.9060   -4.0320 C.2   181  VAL181      0.2260
     53  O          8.9430  -11.4310   -4.8370 O.2   181  VAL181     -0.2867
     54  CB         9.4470  -11.6270   -1.6010 C.3   181  VAL181      0.0252
     55  CG1        9.1970  -11.1250   -0.1860 C.3   181  VAL181      0.0019
     56  CG2        8.5710  -12.8530   -1.8970 C.3   181  VAL181      0.0019
     57  N          9.0890  -14.3480   -5.6370 N.3   184  ASN184     -0.1240
     58  CA         7.7540  -14.6730   -6.1430 C.3   184  ASN184      0.1653
     59  C          7.6120  -14.4350   -7.6460 C.2   184  ASN184      0.2266
     60  O          6.5370  -14.6260   -8.2140 O.2   184  ASN184     -0.2867
     61  CB         6.6620  -13.9520   -5.3430 C.3   184  ASN184      0.1155
     62  CG         6.3340  -14.6650   -4.0420 C.2   184  ASN184      0.2627
     63  OD1        6.7260  -15.8140   -3.8380 O.2   184  ASN184     -0.2716
     64  ND2        5.6100  -13.9920   -3.1600 N.am  184  ASN184     -0.0877
     65  N          2.5390  -17.3910   -5.7550 N.3   197  ASP197     -0.1239
     66  CA         2.3180  -17.3430   -4.3080 C.3   197  ASP197      0.1674
     67  C          1.3960  -16.2040   -3.8810 C.2   197  ASP197      0.2266
     68  O          1.7970  -15.2580   -3.1960 O.2   197  ASP197     -0.2867
     69  CB         3.6500  -17.3630   -3.5430 C.3   197  ASP197      0.1410
     70  CG         4.3240  -18.7300   -3.5700 C.2   197  ASP197      0.3668
     71  OD1        3.7620  -19.6900   -4.1450 O.co2 197  ASP197     -0.2456
     72  OD2        5.4230  -18.8490   -2.9950 O.co2 197  ASP197     -0.2456
     73  N         -1.5830  -14.2810    0.1010 N.3   200  TYR200     -0.1241
     74  CA        -1.9740  -13.0840    0.8400 C.3   200  TYR200      0.1605
     75  C         -2.8640  -12.1470    0.0390 C.2   200  TYR200      0.2264
     76  O         -3.2930  -11.1080    0.5580 O.2   200  TYR200     -0.2867
     77  CB        -0.7330  -12.3460    1.3470 C.3   200  TYR200      0.0534
     78  CG         0.0870  -13.1710    2.3110 C.ar  200  TYR200     -0.0201
     79  CD1       -0.2400  -13.2240    3.6660 C.ar  200  TYR200     -0.0009
     80  CD2        1.1760  -13.9160    1.8620 C.ar  200  TYR200     -0.0009
     81  CE1        0.5070  -13.9930    4.5530 C.ar  200  TYR200      0.0417
     82  CE2        1.9310  -14.6860    2.7400 C.ar  200  TYR200      0.0417
     83  CZ         1.5880  -14.7180    4.0820 C.ar  200  TYR200      0.1957
     84  OH         2.3370  -15.4780    4.9540 O.3   200  TYR200     -0.2866
     85  N         11.2730   -5.0160   -0.5300 N.3   216  GLU216     -0.1245
     86  CA        11.7880   -6.3840   -0.5150 C.3   216  GLU216      0.1567
     87  C         13.0070   -6.5850   -1.4150 C.2   216  GLU216      0.2260
     88  O         13.8020   -7.4950   -1.1800 O.2   216  GLU216     -0.2867
     89  CB        10.6890   -7.4040   -0.8550 C.3   216  GLU216      0.0388
     90  CG         9.4980   -7.4140    0.1210 C.3   216  GLU216      0.1160
     91  CD         9.7800   -8.0990    1.4570 C.2   216  GLU216      0.3649
     92  OE1       10.9430   -8.4510    1.7550 O.co2 216  GLU216     -0.2457
     93  OE2        8.8110   -8.2900    2.2210 O.co2 216  GLU216     -0.2457
     94  N          5.5180   -7.8300    9.1210 N.3   254  TRP254     -0.1241
     95  CA         6.3890   -8.9870    8.8930 C.3   254  TRP254      0.1605
     96  C          7.3550   -9.2630   10.0550 C.2   254  TRP254      0.2264
     97  O          7.7840  -10.4040   10.2460 O.2   254  TRP254     -0.2867
     98  CB         7.0970   -8.9110    7.5300 C.3   254  TRP254      0.0550
     99  CG         6.1350   -8.8920    6.3550 C.ar  254  TRP254      0.0003
    100  CD1        6.0240   -7.9150    5.4030 C.ar  254  TRP254      0.0946
    101  CD2        5.1470   -9.8840    6.0220 C.ar  254  TRP254      0.0152
    102  NE1        5.0390   -8.2360    4.4980 N.ar  254  TRP254     -0.2442
    103  CE2        4.4850   -9.4380    4.8520 C.ar  254  TRP254      0.0810
    104  CE3        4.7600  -11.1060    6.5940 C.ar  254  TRP254      0.0012
    105  CZ2        3.4550  -10.1670    4.2440 C.ar  254  TRP254      0.0191
    106  CZ3        3.7360  -11.8350    5.9870 C.ar  254  TRP254      0.0001
    107  CH2        3.0950  -11.3600    4.8230 C.ar  254  TRP254      0.0015
    108  N          4.9920  -11.3230   12.2200 N.3   257  TRP257     -0.1241
    109  CA         4.9680  -12.6230   11.5460 C.3   257  TRP257      0.1605
    110  C          6.1810  -13.4800   11.9390 C.2   257  TRP257      0.2264
    111  O          6.0440  -14.6790   12.2010 O.2   257  TRP257     -0.2867
    112  CB         4.9170  -12.3950   10.0320 C.3   257  TRP257      0.0550
    113  CG         5.0160  -13.6270    9.1580 C.ar  257  TRP257      0.0003
    114  CD1        3.9810  -14.3880    8.6850 C.ar  257  TRP257      0.0946
    115  CD2        6.2150  -14.2110    8.6330 C.ar  257  TRP257      0.0152
    116  NE1        4.4650  -15.4110    7.9030 N.ar  257  TRP257     -0.2442
    117  CE2        5.8310  -15.3270    7.8520 C.ar  257  TRP257      0.0810
    118  CE3        7.5790  -13.8990    8.7470 C.ar  257  TRP257      0.0012
    119  CZ2        6.7650  -16.1420    7.1980 C.ar  257  TRP257      0.0191
    120  CZ3        8.5080  -14.7040    8.0930 C.ar  257  TRP257      0.0001
    121  CH2        8.0940  -15.8110    7.3240 C.ar  257  TRP257      0.0015
    122  N          6.1810  -17.1850   13.7050 N.3   261  LYS261     -0.1245
    123  CA         6.8040  -18.3240   13.0340 C.3   261  LYS261      0.1561
    124  C          7.8800  -18.9780   13.8930 C.2   261  LYS261      0.2260
    125  O          8.0210  -20.2090   13.9020 O.2   261  LYS261     -0.2867
    126  CB         7.3670  -17.9170   11.6680 C.3   261  LYS261      0.0271
    127  CG         6.3010  -17.7190   10.5910 C.3   261  LYS261      0.0035
    128  CD         5.7220  -19.0620   10.1500 C.3   261  LYS261      0.0206
    129  CE         4.8520  -18.9380    8.9160 C.3   261  LYS261      0.1093
    130  NZ         4.3350  -20.2840    8.5250 N.3   261  LYS261     -0.1314
    131  N         16.2630  -11.6880   11.2740 N.3   271  TYR271     -0.1241
    132  CA        15.3800  -11.2100   10.2090 C.3   271  TYR271      0.1605
    133  C         14.3070  -10.2390   10.7270 C.2   271  TYR271      0.2264
    134  O         14.1310   -9.1500   10.1760 O.2   271  TYR271     -0.2867
    135  CB        14.7330  -12.3890    9.4640 C.3   271  TYR271      0.0534
    136  CG        13.6930  -11.9720    8.4400 C.ar  271  TYR271     -0.0201
    137  CD1       14.0600  -11.6550    7.1290 C.ar  271  TYR271     -0.0009
    138  CD2       12.3420  -11.9040    8.7850 C.ar  271  TYR271     -0.0009
    139  CE1       13.1040  -11.2730    6.1890 C.ar  271  TYR271      0.0417
    140  CE2       11.3830  -11.5220    7.8560 C.ar  271  TYR271      0.0417
    141  CZ        11.7710  -11.2150    6.5640 C.ar  271  TYR271      0.1957
    142  OH        10.8190  -10.8330    5.6540 O.3   271  TYR271     -0.2866
    143  N         13.9730   -6.0130   10.4270 N.3   275  ARG275     -0.1245
    144  CA        12.8040   -5.3900    9.8090 C.3   275  ARG275      0.1563
    145  C         12.1630   -4.3900   10.7670 C.2   275  ARG275      0.2260
    146  O         11.7880   -3.2910   10.3660 O.2   275  ARG275     -0.2867
    147  CB        11.7850   -6.4320    9.3450 C.3   275  ARG275      0.0307
    148  CG        12.2480   -7.2480    8.1440 C.3   275  ARG275      0.0489
    149  CD        11.0940   -7.8360    7.3650 C.3   275  ARG275      0.2205
    150  NE        10.3970   -6.7900    6.6170 N.pl3 275  ARG275     -0.0865
    151  CZ         9.7200   -6.9790    5.4870 C.cat 275  ARG275      0.5346
    152  NH1        9.1390   -5.9440    4.8970 N.pl3 275  ARG275      0.1354
    153  NH2        9.6150   -8.1860    4.9440 N.pl3 275  ARG275      0.1354
@<TRIPOS>BOND
     1    60    59    2
     2    59    58    1
     3    58    57    1
     4    58    61    1
     5    65    66    1
     6    61    62    1
     7    53    52    2
     8    66    67    1
     9    66    69    1
    10    71    70   ar
    11    62    63    2
    12    62    64   am
    13    52    51    1
    14    67    68    2
    15    70    69    1
    16    70    72   ar
    17    50    51    1
    18    51    54    1
    19    45    44    2
    20    44    43    1
    21    56    54    1
    22    33    34    1
    23    54    55    1
    24    42    43    1
    25    87    88    2
    26    87    86    1
    27    37    34    1
    28    37    38    1
    29    31    30    2
    30    43    46    1
    31    89    86    1
    32    89    90    1
    33    34    35    1
    34    39    38    1
    35    39    40    1
    36    29    30    1
    37    29    26    1
    38    85    86    1
    39    30    32   am
    40    46    47    1
    41    27    26    1
    42    27    28    2
    43    41    40    1
    44    75    76    2
    45    75    74    1
    46    26    25    1
    47    73    74    1
    48    90    91    1
    49    36    35    2
    50    47    49   ar
    51    47    48   ar
    52    74    77    1
    53    77    78    1
    54    91    92   ar
    55    91    93   ar
    56    25    18   am
    57    19    18    2
    58    80    78   ar
    59    80    82   ar
    60    18    17    1
    61    78    79   ar
    62    82    83   ar
    63     1     2    1
    64    20    17    1
    65    20    21    1
    66    17    16    1
    67    79    81   ar
    68    24    22   am
    69    14    13    1
    70    23    22    2
    71    22    21    1
    72    83    81   ar
    73    83    84    1
    74   105   107   ar
    75   105   103   ar
    76    12    11    2
    77     2     5    1
    78     2     3    1
    79     5     6    1
    80   102   103   ar
    81   102   100   ar
    82     9     3   am
    83     9    10    1
    84   107   106   ar
    85   103   101   ar
    86   152   151    1
    87   153   151    1
    88    11    10    1
    89     3     4    2
    90    13    15    1
    91    13    10    1
    92   100    99   ar
    93     7     6    1
    94     7     8    1
    95   151   150    2
    96   142   141    1
    97   106   104   ar
    98   101    99   ar
    99   101   104   ar
   100   139   141   ar
   101   139   137   ar
   102    99    98    1
   103   141   140   ar
   104   150   149    1
   105   137   136   ar
   106   119   121   ar
   107   119   117   ar
   108   121   120   ar
   109   149   148    1
   110    98    95    1
   111   117   116   ar
   112   117   115   ar
   113   140   138   ar
   114   116   114   ar
   115   120   118   ar
   116   148   147    1
   117   136   138   ar
   118   136   135    1
   119   130   129    1
   120   115   118   ar
   121   115   113   ar
   122   114   113   ar
   123    95    94    1
   124    95    96    1
   125   129   128    1
   126   113   112    1
   127   147   144    1
   128   135   132    1
   129   144   143    1
   130   144   145    1
   131   112   109    1
   132    96    97    2
   133   128   127    1
   134   134   133    2
   135   132   133    1
   136   132   131    1
   137   146   145    2
   138   127   126    1
   139   109   110    1
   140   109   108    1
   141   126   123    1
   142   110   111    2
   143   123   122    1
   144   123   124    1
   145   124   125    2
