@<TRIPOS>MOLECULE
tmp/4r78A01.pdb
 150 138 0 0 0
SMALL
GASTEIGER

@<TRIPOS>ATOM
      1  N         12.2110  -27.9940   -0.4450 N.3    28  LEU28      -0.1245
      2  CA        12.9320  -27.1160   -1.3540 C.3    28  LEU28       0.1561
      3  C         13.6860  -26.0850   -0.5290 C.2    28  LEU28       0.2260
      4  O         13.5420  -26.0330    0.6940 O.2    28  LEU28      -0.2867
      5  CB        11.9710  -26.4160   -2.3210 C.3    28  LEU28       0.0270
      6  CG        11.4130  -27.2210   -3.4970 C.3    28  LEU28       0.0019
      7  CD1       10.1730  -26.5410   -4.0280 C.3    28  LEU28       0.0001
      8  CD2       12.4500  -27.3960   -4.6050 C.3    28  LEU28       0.0001
      9  N         15.0010  -22.1000    0.6000 N.3    30  GLY30      -0.1225
     10  CA        14.2960  -20.9290    1.0710 C.3    30  GLY30       0.1811
     11  C         14.2990  -20.7490    2.5720 C.2    30  GLY30       0.2280
     12  O         14.6930  -21.6330    3.3360 O.2    30  GLY30      -0.2866
     13  N          7.8730  -23.9950    4.1640 N.3    34  GLN34      -0.1231
     14  CA         6.6120  -24.1530    3.4310 C.3    34  GLN34       0.1698
     15  C          6.7110  -24.8970    2.1030 C.2    34  GLN34       0.2592
     16  O          5.7160  -25.4420    1.6260 O.2    34  GLN34      -0.2718
     17  CB         5.9780  -22.7910    3.1640 C.3    34  GLN34       0.0381
     18  CG         5.5410  -22.0400    4.3960 C.3    34  GLN34       0.0905
     19  CD         5.0180  -20.6740    4.0430 C.2    34  GLN34       0.2608
     20  OE1        3.8070  -20.4590    3.9750 O.2    34  GLN34      -0.2717
     21  NE2        5.9290  -19.7430    3.7780 N.am   34  GLN34      -0.0878
     22  N          7.8920  -24.8980    1.4980 N.am   35  ASN35      -0.1974
     23  CA         8.0170  -25.2730    0.0940 C.3    35  ASN35       0.1688
     24  C          8.6450  -26.6430   -0.1270 C.2    35  ASN35       0.2292
     25  O          9.6850  -26.9640    0.4530 O.2    35  ASN35      -0.2864
     26  CB         8.7760  -24.1800   -0.6540 C.3    35  ASN35       0.1181
     27  CG         8.0980  -22.8280   -0.5260 C.2    35  ASN35       0.2629
     28  OD1        6.9700  -22.6460   -0.9820 O.2    35  ASN35      -0.2716
     29  ND2        8.7660  -21.8850    0.1280 N.am   35  ASN35      -0.0877
     30  N          5.1440  -28.8190   -7.4390 N.3    46  ILE46      -0.1245
     31  CA         5.5940  -27.8430   -6.4520 C.3    46  ILE46       0.1561
     32  C          4.4970  -27.7000   -5.4000 C.2    46  ILE46       0.2260
     33  O          3.3340  -27.4790   -5.7340 O.2    46  ILE46      -0.2867
     34  CB         5.9160  -26.4770   -7.1230 C.3    46  ILE46       0.0252
     35  CG1        7.2010  -26.5730   -7.9640 C.3    46  ILE46       0.0019
     36  CG2        5.9850  -25.3450   -6.0910 C.3    46  ILE46       0.0019
     37  CD1        8.4880  -26.8130   -7.1670 C.3    46  ILE46       0.0001
     38  N          3.2100  -25.8800   -1.7510 N.3    48  LYS48      -0.1245
     39  CA         3.3360  -24.9100   -0.6740 C.3    48  LYS48       0.1561
     40  C          2.3810  -25.2550    0.4620 C.2    48  LYS48       0.2260
     41  O          1.1580  -25.1830    0.3140 O.2    48  LYS48      -0.2867
     42  CB         3.1110  -23.4780   -1.1610 C.3    48  LYS48       0.0271
     43  CG         3.5780  -22.4470   -0.1460 C.3    48  LYS48       0.0035
     44  CD         3.4870  -21.0230   -0.6660 C.3    48  LYS48       0.0206
     45  CE         4.0870  -20.0560    0.3500 C.3    48  LYS48       0.1093
     46  NZ         4.0440  -18.6380   -0.1130 N.3    48  LYS48      -0.1314
     47  N          1.3670  -19.5880  -12.0420 N.3    77  VAL77      -0.1245
     48  CA         1.5320  -20.9200  -12.6120 C.3    77  VAL77       0.1561
     49  C          0.2590  -21.7530  -12.4190 C.2    77  VAL77       0.2260
     50  O         -0.6660  -21.3530  -11.7020 O.2    77  VAL77      -0.2867
     51  CB         2.7600  -21.6580  -12.0160 C.3    77  VAL77       0.0252
     52  CG1        4.0420  -20.8740  -12.2820 C.3    77  VAL77       0.0019
     53  CG2        2.5820  -21.8950  -10.5170 C.3    77  VAL77       0.0019
     54  N          1.0140  -27.2690   -7.2080 N.3    91  ASN91      -0.1225
     55  CA         1.1330  -26.6000   -8.5000 C.3    91  ASN91       0.1785
     56  C          2.0440  -27.3550   -9.4580 C.2    91  ASN91       0.2597
     57  O          2.7770  -28.2600   -9.0510 O.2    91  ASN91      -0.2718
     58  CB         1.6810  -25.1770   -8.3010 C.3    91  ASN91       0.1169
     59  CG         0.6140  -24.1810   -7.8670 C.2    91  ASN91       0.2627
     60  OD1       -0.5500  -24.5280   -7.6720 O.2    91  ASN91      -0.2716
     61  ND2        1.0160  -22.9270   -7.7100 N.am   91  ASN91      -0.0877
     62  N          2.0000  -26.9680  -10.7300 N.am   92  GLU92      -0.1965
     63  CA         2.9370  -27.4860  -11.7190 C.3    92  GLU92       0.1733
     64  C          4.3810  -27.1900  -11.3170 C.2    92  GLU92       0.2616
     65  O          4.6700  -26.1600  -10.6950 O.2    92  GLU92      -0.2715
     66  CB         2.6390  -26.9040  -13.1070 C.3    92  GLU92       0.0429
     67  CG         2.9140  -25.4040  -13.2420 C.3    92  GLU92       0.1163
     68  CD         2.7750  -24.8920  -14.6610 C.2    92  GLU92       0.3649
     69  OE1        2.2690  -23.7660  -14.8250 O.co2  92  GLU92      -0.2457
     70  OE2        3.1670  -25.6090  -15.6100 O.co2  92  GLU92      -0.2457
     71  N          5.2740  -28.1140  -11.6590 N.am   93  TYR93      -0.1960
     72  CA         6.7080  -27.8890  -11.5350 C.3    93  TYR93       0.1771
     73  C          7.2550  -27.5060  -12.9020 C.2    93  TYR93       0.2619
     74  O          7.1020  -28.2450  -13.8780 O.2    93  TYR93      -0.2715
     75  CB         7.4170  -29.1410  -11.0010 C.3    93  TYR93       0.0574
     76  CG         8.9350  -29.0460  -10.9500 C.ar   93  TYR93      -0.0198
     77  CD1        9.5720  -28.1170  -10.1270 C.ar   93  TYR93      -0.0009
     78  CD2        9.7290  -29.8980  -11.7130 C.ar   93  TYR93      -0.0009
     79  CE1       10.9620  -28.0320  -10.0710 C.ar   93  TYR93       0.0417
     80  CE2       11.1200  -29.8240  -11.6620 C.ar   93  TYR93       0.0417
     81  CZ        11.7270  -28.8890  -10.8400 C.ar   93  TYR93       0.1957
     82  OH        13.1030  -28.8090  -10.7880 O.3    93  TYR93      -0.2866
     83  N          7.8710  -26.3340  -12.9660 N.am   94  ILE94      -0.1977
     84  CA         8.5060  -25.8690  -14.1860 C.3    94  ILE94       0.1596
     85  C          9.9910  -26.1950  -14.1130 C.2    94  ILE94       0.2287
     86  O         10.7220  -25.6290  -13.2940 O.2    94  ILE94      -0.2864
     87  CB         8.2810  -24.3610  -14.4070 C.3    94  ILE94       0.0276
     88  CG1        6.7760  -24.0600  -14.4560 C.3    94  ILE94       0.0022
     89  CG2        8.9960  -23.8930  -15.6830 C.3    94  ILE94       0.0022
     90  CD1        6.4300  -22.5950  -14.5510 C.3    94  ILE94       0.0001
     91  N         13.4300  -23.6780  -14.1990 N.3    97  ALA97      -0.1245
     92  CA        12.8980  -22.3430  -13.9650 C.3    97  ALA97       0.1562
     93  C         13.9240  -21.4950  -13.2260 C.2    97  ALA97       0.2260
     94  O         14.6790  -22.0030  -12.3920 O.2    97  ALA97      -0.2867
     95  CB        11.5950  -22.4150  -13.1750 C.3    97  ALA97       0.0290
     96  N         14.3610  -18.5070  -10.6310 N.3    99  THR99      -0.1218
     97  CA        13.7330  -17.6940   -9.5980 C.3    99  THR99       0.1862
     98  C         14.4520  -16.3520   -9.5380 C.2    99  THR99       0.2287
     99  O         15.6820  -16.3010   -9.4490 O.2    99  THR99      -0.2866
    100  CB        13.8000  -18.3980   -8.2300 C.3    99  THR99       0.1770
    101  OG1       13.2150  -19.7010   -8.3430 O.3    99  THR99      -0.2211
    102  CG2       13.0550  -17.6080   -7.1690 C.3    99  THR99       0.0375
    103  N          7.8090  -10.0950   -2.7440 N.3   181  VAL181     -0.1245
    104  CA         9.2170  -10.4920   -2.6410 C.3   181  VAL181      0.1561
    105  C          9.7180  -10.9060   -4.0320 C.2   181  VAL181      0.2260
    106  O          8.9430  -11.4310   -4.8370 O.2   181  VAL181     -0.2867
    107  CB         9.4470  -11.6270   -1.6010 C.3   181  VAL181      0.0252
    108  CG1        9.1970  -11.1250   -0.1860 C.3   181  VAL181      0.0019
    109  CG2        8.5710  -12.8530   -1.8970 C.3   181  VAL181      0.0019
    110  N         11.5390  -13.2990   -5.0730 N.3   183  GLU183     -0.1231
    111  CA        11.4810  -14.7430   -5.3240 C.3   183  GLU183      0.1699
    112  C         10.0750  -15.2440   -5.6740 C.2   183  GLU183      0.2592
    113  O          9.8900  -16.4240   -5.9820 O.2   183  GLU183     -0.2718
    114  CB        12.1030  -15.5470   -4.1680 C.3   183  GLU183      0.0402
    115  CG        11.3510  -15.4960   -2.8380 C.3   183  GLU183      0.1161
    116  CD        11.8070  -14.3620   -1.9210 C.2   183  GLU183      0.3649
    117  OE1       11.5510  -14.4580   -0.7000 O.co2 183  GLU183     -0.2457
    118  OE2       12.4100  -13.3750   -2.4020 O.co2 183  GLU183     -0.2457
    119  N          9.0890  -14.3480   -5.6370 N.am  184  ASN184     -0.1974
    120  CA         7.7540  -14.6730   -6.1430 C.3   184  ASN184      0.1688
    121  C          7.6120  -14.4350   -7.6460 C.2   184  ASN184      0.2292
    122  O          6.5370  -14.6260   -8.2140 O.2   184  ASN184     -0.2864
    123  CB         6.6620  -13.9520   -5.3430 C.3   184  ASN184      0.1181
    124  CG         6.3340  -14.6650   -4.0420 C.2   184  ASN184      0.2629
    125  OD1        6.7260  -15.8140   -3.8380 O.2   184  ASN184     -0.2716
    126  ND2        5.6100  -13.9920   -3.1600 N.am  184  ASN184     -0.0877
    127  N          9.1180  -15.9350  -11.1090 N.3   186  ILE186     -0.1245
    128  CA         9.8810  -17.0500  -11.6670 C.3   186  ILE186      0.1561
    129  C          9.7590  -17.0490  -13.1870 C.2   186  ILE186      0.2260
    130  O          8.7110  -16.6990  -13.7390 O.2   186  ILE186     -0.2867
    131  CB         9.4880  -18.4330  -11.0560 C.3   186  ILE186      0.0252
    132  CG1        8.0580  -18.8250  -11.4380 C.3   186  ILE186      0.0019
    133  CG2        9.6830  -18.4390   -9.5330 C.3   186  ILE186      0.0019
    134  CD1        7.7600  -20.3070  -11.2670 C.3   186  ILE186      0.0001
    135  N          3.9560  -15.5860   -8.6420 N.3   196  ILE196     -0.1231
    136  CA         3.4030  -16.7320   -7.9170 C.3   196  ILE196      0.1692
    137  C          3.0950  -16.4050   -6.4590 C.2   196  ILE196      0.2592
    138  O          3.3410  -15.2890   -5.9980 O.2   196  ILE196     -0.2718
    139  CB         4.3570  -17.9600   -7.9890 C.3   196  ILE196      0.0266
    140  CG1        5.6590  -17.6750   -7.2290 C.3   196  ILE196      0.0019
    141  CG2        4.6030  -18.3510   -9.4480 C.3   196  ILE196      0.0020
    142  CD1        6.4880  -18.9030   -6.9350 C.3   196  ILE196      0.0001
    143  N          2.5390  -17.3910   -5.7550 N.am  197  ASP197     -0.1974
    144  CA         2.3180  -17.3430   -4.3080 C.3   197  ASP197      0.1709
    145  C          1.3960  -16.2040   -3.8810 C.2   197  ASP197      0.2293
    146  O          1.7970  -15.2580   -3.1960 O.2   197  ASP197     -0.2864
    147  CB         3.6500  -17.3630   -3.5430 C.3   197  ASP197      0.1436
    148  CG         4.3240  -18.7300   -3.5700 C.2   197  ASP197      0.3671
    149  OD1        3.7620  -19.6900   -4.1450 O.co2 197  ASP197     -0.2456
    150  OD2        5.4230  -18.8490   -2.9950 O.co2 197  ASP197     -0.2456
@<TRIPOS>BOND
     1    89    87    1
     2    70    68   ar
     3    69    68   ar
     4    68    67    1
     5    90    88    1
     6    88    87    1
     7    87    84    1
     8    91    92    1
     9    84    85    1
    10    84    83    1
    11    85    86    2
    12    92    93    1
    13    92    95    1
    14    74    73    2
    15   130   129    2
    16    67    66    1
    17    93    94    2
    18   129   128    1
    19    66    63    1
    20    83    73   am
    21    73    72    1
    22    48    49    1
    23    48    47    1
    24    48    51    1
    25    49    50    2
    26    52    51    1
    27    51    53    1
    28    63    64    1
    29    63    62    1
    30    78    80   ar
    31    78    76   ar
    32   128   127    1
    33   128   131    1
    34    80    81   ar
    35    71    72    1
    36    71    64   am
    37    72    75    1
    38   132   134    1
    39   132   131    1
    40    64    65    2
    41   131   133    1
    42    75    76    1
    43    76    77   ar
    44    81    82    1
    45    81    79   ar
    46    62    56   am
    47    96    97    1
    48    77    79   ar
    49    97    98    1
    50    97   100    1
    51    98    99    2
    52    56    57    2
    53    56    55    1
    54   141   139    1
    55   135   136    1
    56    55    58    1
    57    55    54    1
    58   101   100    1
    59    58    59    1
    60   100   102    1
    61   122   121    2
    62   139   136    1
    63   139   140    1
    64    35    37    1
    65    35    34    1
    66   136   137    1
    67    59    61   am
    68    59    60    2
    69   121   120    1
    70    30    31    1
    71   140   142    1
    72    34    31    1
    73    34    36    1
    74   137   138    2
    75   137   143   am
    76    31    32    1
    77   120   119    1
    78   120   123    1
    79   113   112    2
    80   143   144    1
    81    33    32    2
    82   112   119   am
    83   112   111    1
    84   123   124    1
    85   111   110    1
    86   111   114    1
    87   106   105    2
    88     8     6    1
    89   144   145    1
    90   144   147    1
    91   114   115    1
    92   149   148   ar
    93   124   125    2
    94   124   126   am
    95   105   104    1
    96     7     6    1
    97   145   146    2
    98   148   147    1
    99   148   150   ar
   100     6     5    1
   101   115   116    1
   102   103   104    1
   103   104   107    1
   104   118   116   ar
   105     5     2    1
   106   116   117   ar
   107   109   107    1
   108    38    39    1
   109   107   108    1
   110     2     3    1
   111     2     1    1
   112    42    39    1
   113    42    43    1
   114    28    27    2
   115    39    40    1
   116    44    43    1
   117    44    45    1
   118    26    27    1
   119    26    23    1
   120     3     4    2
   121    27    29   am
   122    24    23    1
   123    24    25    2
   124    46    45    1
   125    23    22    1
   126    41    40    2
   127     9    10    1
   128    10    11    1
   129    22    15   am
   130    16    15    2
   131    15    14    1
   132    11    12    2
   133    17    14    1
   134    17    18    1
   135    14    13    1
   136    21    19   am
   137    20    19    2
   138    19    18    1
