@<TRIPOS>MOLECULE
tmp/4r7aB00.pdb
 207 199 0 0 0
SMALL
GASTEIGER

@<TRIPOS>ATOM
      1  N        -14.3240    2.3380   19.0130 N.3    25  ALA25      -0.1231
      2  CA       -15.6920    1.9370   19.3310 C.3    25  ALA25       0.1694
      3  C        -16.4300    1.6440   18.0400 C.2    25  ALA25       0.2592
      4  O        -16.6630    2.5360   17.2330 O.2    25  ALA25      -0.2718
      5  CB       -16.4090    3.0180   20.1220 C.3    25  ALA25       0.0304
      6  N        -16.7610    0.3750   17.8330 N.am   26  LEU26      -0.1966
      7  CA       -17.5870   -0.0320   16.7040 C.3    26  LEU26       0.1728
      8  C        -19.0170    0.4440   16.9150 C.2    26  LEU26       0.2616
      9  O        -19.4310    0.6450   18.0480 O.2    26  LEU26      -0.2715
     10  CB       -17.5730   -1.5490   16.5770 C.3    26  LEU26       0.0311
     11  CG       -16.2010   -2.1430   16.2440 C.3    26  LEU26       0.0022
     12  CD1      -16.1700   -3.6140   16.6100 C.3    26  LEU26       0.0001
     13  CD2      -15.8770   -1.9390   14.7750 C.3    26  LEU26       0.0001
     14  N        -19.7580    0.6160   15.8210 N.am   27  GLU27      -0.1963
     15  CA       -21.1560    1.0420   15.8710 C.3    27  GLU27       0.1733
     16  C        -21.9850    0.1120   16.7630 C.2    27  GLU27       0.2616
     17  O        -22.7180    0.5690   17.6340 O.2    27  GLU27      -0.2715
     18  CB       -21.7400    1.0780   14.4600 C.3    27  GLU27       0.0429
     19  CG       -23.0970    1.7520   14.3490 C.3    27  GLU27       0.1163
     20  CD       -23.5090    1.9730   12.9030 C.2    27  GLU27       0.3649
     21  OE1      -23.4310    1.0180   12.0990 O.co2  27  GLU27      -0.2457
     22  OE2      -23.9160    3.1060   12.5710 O.co2  27  GLU27      -0.2457
     23  N        -21.8470   -1.1890   16.5110 N.am   28  TRP28      -0.1960
     24  CA       -22.4470   -2.2450   17.3050 C.3    28  TRP28       0.1756
     25  C        -21.2970   -3.1490   17.7480 C.2    28  TRP28       0.2461
     26  O        -20.2340   -3.1860   17.0900 O.2    28  TRP28      -0.2730
     27  CB       -23.4260   -3.0670   16.4560 C.3    28  TRP28       0.0590
     28  CG       -24.7120   -2.3710   16.1190 C.ar   28  TRP28       0.0006
     29  CD1      -25.0320   -1.7660   14.9320 C.ar   28  TRP28       0.0946
     30  CD2      -25.8570   -2.2130   16.9710 C.ar   28  TRP28       0.0152
     31  NE1      -26.3060   -1.2460   14.9930 N.ar   28  TRP28      -0.2442
     32  CE2      -26.8340   -1.5070   16.2330 C.ar   28  TRP28       0.0810
     33  CE3      -26.1530   -2.5970   18.2890 C.ar   28  TRP28       0.0012
     34  CZ2      -28.0880   -1.1770   16.7730 C.ar   28  TRP28       0.0191
     35  CZ3      -27.3970   -2.2680   18.8220 C.ar   28  TRP28       0.0001
     36  CH2      -28.3450   -1.5620   18.0640 C.ar   28  TRP28       0.0015
     37  N        -21.4940   -3.9060   18.8300 N.am   29  PRO29      -0.2727
     38  CA       -20.4090   -4.7920   19.2260 C.3    29  PRO29       0.1402
     39  C        -20.1960   -5.9390   18.2470 C.2    29  PRO29       0.2269
     40  O        -21.1330   -6.3580   17.5560 O.2    29  PRO29      -0.2865
     41  CB       -20.8470   -5.3600   20.5680 C.3    29  PRO29       0.0296
     42  CG       -22.2740   -4.9860   20.7420 C.3    29  PRO29       0.0237
     43  CD       -22.6520   -3.9530   19.7320 C.3    29  PRO29       0.0939
     44  N        -19.1310   -9.9430   18.1600 N.3    31  LEU31      -0.1245
     45  CA       -18.9190  -11.1630   18.9150 C.3    31  LEU31       0.1561
     46  C        -17.6890  -11.9450   18.4540 C.2    31  LEU31       0.2260
     47  O        -17.3220  -12.9470   19.0690 O.2    31  LEU31      -0.2867
     48  CB       -20.1490  -12.0690   18.7750 C.3    31  LEU31       0.0270
     49  CG       -21.4020  -11.4890   19.4410 C.3    31  LEU31       0.0019
     50  CD1      -22.6740  -11.9460   18.7430 C.3    31  LEU31       0.0001
     51  CD2      -21.4460  -11.8490   20.9160 C.3    31  LEU31       0.0001
     52  N        -23.5920   -7.2740   16.2260 N.3    57  HIS57      -0.1226
     53  CA       -24.5640   -7.8700   17.1250 C.3    57  HIS57       0.1752
     54  C        -25.4920   -6.7240   17.4730 C.2    57  HIS57       0.2597
     55  O        -25.1210   -5.8440   18.2470 O.2    57  HIS57      -0.2718
     56  CB       -23.8670   -8.4280   18.3580 C.3    57  HIS57       0.0759
     57  CG       -24.7920   -9.0000   19.3880 C.ar   57  HIS57       0.0818
     58  ND1      -24.4010   -9.2010   20.6940 N.ar   57  HIS57      -0.2268
     59  CD2      -26.0780   -9.4210   19.3090 C.ar   57  HIS57       0.1154
     60  CE1      -25.4070   -9.7260   21.3760 C.ar   57  HIS57       0.1986
     61  NE2      -26.4370   -9.8640   20.5600 N.ar   57  HIS57      -0.2212
     62  N        -26.6700   -6.7100   16.8580 N.am   58  THR58      -0.1939
     63  CA       -27.6010   -5.6060   17.0280 C.3    58  THR58       0.2028
     64  C        -28.8340   -6.0120   17.8290 C.2    58  THR58       0.2642
     65  O        -29.0610   -7.1780   18.1320 O.2    58  THR58      -0.2714
     66  CB       -28.1040   -5.0730   15.6720 C.3    58  THR58       0.1808
     67  OG1      -28.9800   -6.0370   15.0840 O.3    58  THR58      -0.2208
     68  CG2      -26.9490   -4.7800   14.7160 C.3    58  THR58       0.0379
     69  N        -29.6140   -5.0080   18.1890 N.am   59  SER59      -0.1949
     70  CA       -30.9850   -5.2090   18.6150 C.3    59  SER59       0.1924
     71  C        -31.8330   -4.3850   17.6590 C.2    59  SER59       0.2314
     72  O        -31.6360   -3.1780   17.5400 O.2    59  SER59      -0.2863
     73  CB       -31.1620   -4.7170   20.0360 C.3    59  SER59       0.2116
     74  OG       -30.7850   -3.3610   20.1020 O.3    59  SER59      -0.2180
     75  N        -31.9270   -4.0450   14.3380 N.3    61  GLU61      -0.1245
     76  CA       -31.2690   -3.3750   13.2260 C.3    61  GLU61       0.1567
     77  C        -30.5390   -4.4180   12.3560 C.2    61  GLU61       0.2260
     78  O        -30.2120   -5.5030   12.8250 O.2    61  GLU61      -0.2867
     79  CB       -30.3090   -2.2870   13.7320 C.3    61  GLU61       0.0388
     80  CG       -30.0460   -1.1890   12.7110 C.3    61  GLU61       0.1160
     81  CD       -29.1140   -0.0910   13.2130 C.2    61  GLU61       0.3649
     82  OE1      -29.5930    0.8530   13.8720 O.co2  61  GLU61      -0.2457
     83  OE2      -27.8990   -0.1440   12.9200 O.co2  61  GLU61      -0.2457
     84  N        -27.2570  -11.7430   14.2790 N.3    87  GLU87      -0.1245
     85  CA       -25.8930  -11.4370   14.7120 C.3    87  GLU87       0.1567
     86  C        -24.9090  -12.5170   14.2380 C.2    87  GLU87       0.2260
     87  O        -25.2910  -13.6680   14.0210 O.2    87  GLU87      -0.2867
     88  CB       -25.8320  -11.2930   16.2420 C.3    87  GLU87       0.0388
     89  CG       -26.2790  -12.5170   17.0410 C.3    87  GLU87       0.1160
     90  CD       -27.7490  -12.4950   17.4540 C.2    87  GLU87       0.3649
     91  OE1      -28.5700  -11.7850   16.8140 O.co2  87  GLU87      -0.2457
     92  OE2      -28.0860  -13.2160   18.4220 O.co2  87  GLU87      -0.2457
     93  N        -22.3680  -14.8560   15.2780 N.3    89  ASN89      -0.1225
     94  CA       -21.8440  -15.5420   16.4590 C.3    89  ASN89       0.1785
     95  C        -20.3260  -15.7640   16.3610 C.2    89  ASN89       0.2597
     96  O        -19.6210  -15.6760   17.3660 O.2    89  ASN89      -0.2718
     97  CB       -22.5350  -16.8980   16.6670 C.3    89  ASN89       0.1169
     98  CG       -23.9230  -16.7790   17.2910 C.2    89  ASN89       0.2627
     99  OD1      -24.4030  -15.6850   17.6050 O.2    89  ASN89      -0.2716
    100  ND2      -24.5710  -17.9200   17.4810 N.am   89  ASN89      -0.0877
    101  N        -19.8710  -16.0920   15.1550 N.am   90  ARG90      -0.1979
    102  CA       -18.4670  -16.3870   14.8450 C.3    90  ARG90       0.1597
    103  C        -18.2840  -16.2980   13.3400 C.2    90  ARG90       0.2287
    104  O        -19.1950  -16.6570   12.5790 O.2    90  ARG90      -0.2864
    105  CB       -18.0640  -17.7880   15.3080 C.3    90  ARG90       0.0334
    106  CG       -16.5570  -18.0400   15.2000 C.3    90  ARG90       0.0492
    107  CD       -16.0570  -18.9800   16.2800 C.3    90  ARG90       0.2205
    108  NE       -16.2070  -18.3550   17.5890 N.pl3  90  ARG90      -0.0865
    109  CZ       -16.0770  -18.9700   18.7570 C.cat  90  ARG90       0.5346
    110  NH1      -15.7740  -20.2670   18.8290 N.pl3  90  ARG90       0.1354
    111  NH2      -16.2620  -18.2710   19.8680 N.pl3  90  ARG90       0.1354
    112  N        -27.6920  -16.8260   14.6470 N.3   106  PRO106     -0.2116
    113  CA       -28.5740  -17.2240   15.7590 C.3   106  PRO106      0.1372
    114  C        -29.6330  -18.2720   15.4090 C.2   106  PRO106      0.2244
    115  O        -30.3940  -18.6980   16.2880 O.2   106  PRO106     -0.2868
    116  CB       -29.2330  -15.9070   16.1960 C.3   106  PRO106      0.0268
    117  CG       -29.0570  -14.9680   15.0710 C.3   106  PRO106      0.0207
    118  CD       -27.8700  -15.4140   14.2750 C.3   106  PRO106      0.0892
    119  N        -28.4760  -22.7610   17.0280 N.3   140  GLU140     -0.1245
    120  CA       -27.2700  -21.9460   16.8720 C.3   140  GLU140      0.1567
    121  C        -26.0780  -22.5410   17.6090 C.2   140  GLU140      0.2260
    122  O        -26.2190  -23.4360   18.4410 O.2   140  GLU140     -0.2867
    123  CB       -27.5100  -20.5100   17.3720 C.3   140  GLU140      0.0388
    124  CG       -27.8110  -20.3930   18.8650 C.3   140  GLU140      0.1160
    125  CD       -27.7340  -18.9710   19.4060 C.2   140  GLU140      0.3649
    126  OE1      -27.2100  -18.0600   18.7230 O.co2 140  GLU140     -0.2457
    127  OE2      -28.1950  -18.7630   20.5590 O.co2 140  GLU140     -0.2457
    128  N        -21.4030  -21.7690   18.3350 N.3   142  TYR142     -0.1241
    129  CA       -20.2290  -20.9210   18.2300 C.3   142  TYR142      0.1605
    130  C        -19.0890  -21.5820   17.4690 C.2   142  TYR142      0.2264
    131  O        -18.6420  -21.0370   16.4650 O.2   142  TYR142     -0.2867
    132  CB       -19.8120  -20.4480   19.6220 C.3   142  TYR142      0.0534
    133  CG       -20.8950  -19.5640   20.1820 C.ar  142  TYR142     -0.0201
    134  CD1      -21.9910  -20.1160   20.8380 C.ar  142  TYR142     -0.0009
    135  CD2      -20.8700  -18.1900   19.9820 C.ar  142  TYR142     -0.0009
    136  CE1      -23.0180  -19.3190   21.3050 C.ar  142  TYR142      0.0417
    137  CE2      -21.8910  -17.3800   20.4510 C.ar  142  TYR142      0.0417
    138  CZ       -22.9620  -17.9560   21.1130 C.ar  142  TYR142      0.1957
    139  OH       -23.9910  -17.1780   21.5850 O.3   142  TYR142     -0.2866
    140  N        -19.5730  -26.4600   22.6380 N.3   192  GLU192     -0.1245
    141  CA       -19.1880  -25.0540   22.6640 C.3   192  GLU192      0.1567
    142  C        -18.1490  -24.7100   21.6030 C.2   192  GLU192      0.2260
    143  O        -18.2260  -23.6460   20.9750 O.2   192  GLU192     -0.2867
    144  CB       -18.6480  -24.6770   24.0520 C.3   192  GLU192      0.0388
    145  CG       -19.6570  -24.7470   25.1980 C.3   192  GLU192      0.1160
    146  CD       -20.6720  -23.6110   25.2050 C.2   192  GLU192      0.3649
    147  OE1      -20.6990  -22.7820   24.2770 O.co2 192  GLU192     -0.2457
    148  OE2      -21.4700  -23.5360   26.1620 O.co2 192  GLU192     -0.2457
    149  N        -15.5220  -24.2360   27.1670 N.3   238  ASN238     -0.1240
    150  CA       -15.9830  -23.2990   26.1370 C.3   238  ASN238      0.1653
    151  C        -15.1090  -23.1710   24.8990 C.2   238  ASN238      0.2266
    152  O        -15.5650  -22.6670   23.8760 O.2   238  ASN238     -0.2867
    153  CB       -16.1600  -21.9200   26.7580 C.3   238  ASN238      0.1155
    154  CG       -17.2740  -21.8930   27.7830 C.2   238  ASN238      0.2627
    155  OD1      -18.3420  -22.4680   27.5660 O.2   238  ASN238     -0.2716
    156  ND2      -17.0340  -21.2290   28.8940 N.am  238  ASN238     -0.0877
    157  N        -13.9180  -17.7810   27.8590 N.3   282  PHE282     -0.1241
    158  CA       -14.5790  -18.1000   26.5980 C.3   282  PHE282      0.1605
    159  C        -13.6690  -18.3450   25.3960 C.2   282  PHE282      0.2264
    160  O        -14.0860  -19.0140   24.4590 O.2   282  PHE282     -0.2867
    161  CB       -15.6220  -17.0420   26.2510 C.3   282  PHE282      0.0534
    162  CG       -16.9400  -17.2680   26.9400 C.ar  282  PHE282     -0.0203
    163  CD1      -17.3170  -16.4900   28.0280 C.ar  282  PHE282     -0.0042
    164  CD2      -17.7820  -18.2940   26.5260 C.ar  282  PHE282     -0.0042
    165  CE1      -18.5340  -16.7060   28.6610 C.ar  282  PHE282     -0.0003
    166  CE2      -19.0040  -18.5150   27.1540 C.ar  282  PHE282     -0.0003
    167  CZ       -19.3780  -17.7180   28.2240 C.ar  282  PHE282     -0.0000
    168  N        -17.0890   -7.6510   29.2650 N.3   332  LYS332     -0.1245
    169  CA       -16.7810   -9.0210   28.8690 C.3   332  LYS332      0.1561
    170  C        -16.1190   -9.0190   27.4880 C.2   332  LYS332      0.2260
    171  O        -16.6010   -8.3630   26.5710 O.2   332  LYS332     -0.2867
    172  CB       -18.0690   -9.8510   28.8250 C.3   332  LYS332      0.0271
    173  CG       -17.8970  -11.2820   28.3300 C.3   332  LYS332      0.0035
    174  CD       -19.2210  -11.8550   27.8600 C.3   332  LYS332      0.0206
    175  CE       -19.2710  -13.3720   27.9200 C.3   332  LYS332      0.1093
    176  NZ       -20.6700  -13.8710   27.8000 N.3   332  LYS332     -0.1314
    177  N        -15.4390  -10.8100   24.0800 N.3   334  SER334     -0.1217
    178  CA       -16.1490  -11.7850   23.2570 C.3   334  SER334      0.1889
    179  C        -15.2060  -12.6710   22.4390 C.2   334  SER334      0.2288
    180  O        -15.4350  -13.8800   22.2940 O.2   334  SER334     -0.2866
    181  CB       -17.1320  -11.0530   22.3390 C.3   334  SER334      0.2089
    182  OG       -18.1980  -10.4980   23.0950 O.3   334  SER334     -0.2183
    183  N        -18.0570   -6.6360   24.7090 N.3   351  GLU351     -0.1231
    184  CA       -19.5060   -6.4680   24.5610 C.3   351  GLU351      0.1699
    185  C        -20.0040   -5.0220   24.5860 C.2   351  GLU351      0.2592
    186  O        -21.1570   -4.7790   24.2540 O.2   351  GLU351     -0.2718
    187  CB       -20.2330   -7.2210   25.6740 C.3   351  GLU351      0.0402
    188  CG       -20.2220   -8.7290   25.5560 C.3   351  GLU351      0.1161
    189  CD       -21.1140   -9.3790   26.6130 C.2   351  GLU351      0.3649
    190  OE1      -21.4790   -8.6840   27.5840 O.co2 351  GLU351     -0.2457
    191  OE2      -21.4340  -10.5790   26.4730 O.co2 351  GLU351     -0.2457
    192  N        -19.1480   -4.0870   25.0000 N.am  352  ASP352     -0.1960
    193  CA       -19.4630   -2.6620   25.0270 C.3   352  ASP352      0.1840
    194  C        -19.0590   -1.9100   23.7480 C.2   352  ASP352      0.2622
    195  O        -18.9760   -0.6770   23.7520 O.2   352  ASP352     -0.2715
    196  CB       -18.7750   -2.0110   26.2420 C.3   352  ASP352      0.1450
    197  CG       -17.2540   -2.1450   26.2030 C.2   352  ASP352      0.3671
    198  OD1      -16.7360   -2.8590   25.3090 O.co2 352  ASP352     -0.2456
    199  OD2      -16.5800   -1.5490   27.0750 O.co2 352  ASP352     -0.2456
    200  N        -18.8000   -2.6520   22.6660 N.am  353  ASN353     -0.1972
    201  CA       -18.5000   -2.1130   21.3300 C.3   353  ASN353      0.1688
    202  C        -17.0210   -1.8250   21.1000 C.2   353  ASN353      0.2292
    203  O        -16.6300   -1.4660   19.9950 O.2   353  ASN353     -0.2864
    204  CB       -19.3260   -0.8660   20.9620 C.3   353  ASN353      0.1181
    205  CG       -20.8260   -1.0780   21.1130 C.2   353  ASN353      0.2629
    206  OD1      -21.2680   -1.8860   21.9170 O.2   353  ASN353     -0.2716
    207  ND2      -21.6130   -0.3440   20.3390 N.am  353  ASN353     -0.0877
@<TRIPOS>BOND
     1    21    20   ar
     2    77    78    2
     3    77    76    1
     4    22    20   ar
     5   104   103    2
     6    80    81    1
     7    80    79    1
     8    20    19    1
     9    83    81   ar
    10    81    82   ar
    11    76    79    1
    12    76    75    1
    13   103   102    1
    14    87    86    2
    15    86    85    1
    16   118   112    1
    17   118   117    1
    18    84    85    1
    19    19    18    1
    20    18    15    1
    21   112   113    1
    22    85    88    1
    23    68    66    1
    24    13    11    1
    25   102   101    1
    26   102   105    1
    27    29    31   ar
    28    29    28   ar
    29    31    32   ar
    30   117   116    1
    31    67    66    1
    32   101    95   am
    33   106   105    1
    34   106   107    1
    35    93    94    1
    36   114   113    1
    37   114   115    2
    38    66    63    1
    39   113   116    1
    40    14    15    1
    41    14     8   am
    42    15    16    1
    43    28    27    1
    44    28    30   ar
    45    52    53    1
    46    32    34   ar
    47    32    30   ar
    48    88    89    1
    49    11    10    1
    50    11    12    1
    51   107   108    1
    52    95    94    1
    53    95    96    2
    54    27    24    1
    55    94    97    1
    56   131   130    2
    57    23    16   am
    58    23    24    1
    59    10     7    1
    60    97    98    1
    61     7     8    1
    62     7     6    1
    63    16    17    2
    64    34    36   ar
    65    91    90   ar
    66    62    63    1
    67    62    54   am
    68   120   119    1
    69   120   123    1
    70   120   121    1
    71     8     9    2
    72    30    33   ar
    73    63    64    1
    74    89    90    1
    75    26    25    2
    76    53    54    1
    77    53    56    1
    78     4     3    2
    79    98   100   am
    80    98    99    2
    81    24    25    1
    82   123   124    1
    83    90    92   ar
    84   130   129    1
    85    54    55    2
    86    72    71    2
    87    40    39    2
    88   108   109    2
    89   121   122    2
    90    71    70    1
    91    25    37   am
    92    64    65    2
    93    64    69   am
    94     6     3   am
    95     3     2    1
    96    36    35   ar
    97    44    45    1
    98    69    70    1
    99   129   128    1
   100   129   132    1
   101    39    38    1
   102    33    35   ar
   103    56    57    1
   104    46    45    1
   105    46    47    2
   106    70    73    1
   107   126   125   ar
   108    50    49    1
   109   109   110    1
   110   109   111    1
   111    48    45    1
   112    48    49    1
   113    37    38    1
   114    37    43    1
   115   124   125    1
   116     1     2    1
   117    38    41    1
   118    59    57   ar
   119    59    61   ar
   120     2     5    1
   121    57    58   ar
   122   125   127   ar
   123    49    51    1
   124   132   133    1
   125    43    42    1
   126   135   133   ar
   127   135   137   ar
   128   203   202    2
   129    73    74    1
   130   133   134   ar
   131   207   205   am
   132   137   138   ar
   133    61    60   ar
   134    41    42    1
   135    58    60   ar
   136   134   136   ar
   137   204   205    1
   138   204   201    1
   139   143   142    2
   140   202   201    1
   141   138   136   ar
   142   138   139    1
   143   205   206    2
   144   201   200    1
   145   142   141    1
   146   180   179    2
   147   181   182    1
   148   181   178    1
   149   179   178    1
   150   140   141    1
   151   141   144    1
   152   200   194   am
   153   178   177    1
   154   194   195    2
   155   194   193    1
   156   152   151    2
   157   144   145    1
   158   186   185    2
   159   147   146   ar
   160   160   159    2
   161   184   185    1
   162   184   183    1
   163   184   187    1
   164   185   192   am
   165   151   150    1
   166   192   193    1
   167   193   196    1
   168   145   146    1
   169   146   148   ar
   170   198   197   ar
   171   159   158    1
   172   188   187    1
   173   188   189    1
   174   150   153    1
   175   150   149    1
   176   197   196    1
   177   197   199   ar
   178   161   158    1
   179   161   162    1
   180   191   189   ar
   181   164   162   ar
   182   164   166   ar
   183   171   170    2
   184   158   157    1
   185   189   190   ar
   186   153   154    1
   187   162   163   ar
   188   166   167   ar
   189   170   169    1
   190   155   154    2
   191   154   156   am
   192   176   175    1
   193   174   175    1
   194   174   173    1
   195   163   165   ar
   196   167   165   ar
   197   173   172    1
   198   172   169    1
   199   169   168    1
