@<TRIPOS>MOLECULE
tmp/4r7bA00.pdb
 99 96 0 0 0
SMALL
GASTEIGER

@<TRIPOS>ATOM
      1  N          4.0610  -13.0800   32.7710 N.3    31  MET31      -0.1230
      2  CA         3.9770  -11.6490   32.5460 C.3    31  MET31       0.1702
      3  C          2.6490  -11.0560   32.9990 C.2    31  MET31       0.2593
      4  O          2.6390   -9.9950   33.6160 O.2    31  MET31      -0.2718
      5  CB         4.2920  -11.2960   31.0920 C.3    31  MET31       0.0401
      6  CG         5.7800  -11.4570   30.7520 C.3    31  MET31       0.0596
      7  SD         6.1860  -10.8050   29.1270 S.3    31  MET31      -0.1393
      8  CE         6.4050   -9.0580   29.4650 C.3    31  MET31       0.0692
      9  N          1.5430  -11.7440   32.7090 N.am   32  THR32      -0.1953
     10  CA         0.2110  -11.2050   32.9980 C.3    32  THR32       0.1897
     11  C         -0.2300  -11.3730   34.4540 C.2    32  THR32       0.2313
     12  O         -0.7490  -10.4330   35.0670 O.2    32  THR32      -0.2863
     13  CB        -0.8650  -11.8100   32.0470 C.3    32  THR32       0.1794
     14  OG1       -0.5640  -11.4460   30.6970 O.3    32  THR32      -0.2208
     15  CG2       -2.2870  -11.3070   32.3990 C.3    32  THR32       0.0378
     16  N         -2.0940  -14.2590   21.2820 N.3   179  ASP179     -0.1239
     17  CA        -0.8040  -14.1140   22.0350 C.3   179  ASP179      0.1674
     18  C          0.0680  -15.3400   21.7720 C.2   179  ASP179      0.2266
     19  O          0.3300  -16.1610   22.6610 O.2   179  ASP179     -0.2867
     20  CB        -1.0620  -13.9020   23.5450 C.3   179  ASP179      0.1410
     21  CG         0.2330  -13.7280   24.3180 C.2   179  ASP179      0.3668
     22  OD1        1.2630  -13.3460   23.7140 O.co2 179  ASP179     -0.2456
     23  OD2        0.2180  -13.9670   25.5410 O.co2 179  ASP179     -0.2456
     24  N          3.1400  -16.2680   21.7400 N.3   181  VAL181     -0.1245
     25  CA         4.5300  -16.3780   22.2100 C.3   181  VAL181      0.1561
     26  C          4.8980  -17.8720   22.2500 C.2   181  VAL181      0.2260
     27  O          4.0250  -18.7140   22.4770 O.2   181  VAL181     -0.2867
     28  CB         4.7520  -15.7040   23.5900 C.3   181  VAL181      0.0252
     29  CG1        4.6080  -14.2070   23.4690 C.3   181  VAL181      0.0019
     30  CG2        3.7860  -16.2390   24.6700 C.3   181  VAL181      0.0019
     31  N          3.7420  -20.3810   24.9570 N.3   184  ASN184     -0.1240
     32  CA         2.3500  -20.8130   25.0010 C.3   184  ASN184      0.1653
     33  C          2.1040  -22.1670   24.3300 C.2   184  ASN184      0.2266
     34  O          0.9900  -22.7000   24.3660 O.2   184  ASN184     -0.2867
     35  CB         1.4140  -19.7020   24.4960 C.3   184  ASN184      0.1155
     36  CG         1.1560  -18.6610   25.5700 C.2   184  ASN184      0.2627
     37  OD1        1.3890  -18.9260   26.7420 O.2   184  ASN184     -0.2716
     38  ND2        0.7040  -17.4800   25.1820 N.am  184  ASN184     -0.0877
     39  N         -6.0680  -13.8010   26.4870 N.3   200  TYR200     -0.1241
     40  CA        -6.2030  -12.6800   25.5470 C.3   200  TYR200      0.1605
     41  C         -7.0650  -13.0160   24.3540 C.2   200  TYR200      0.2264
     42  O         -7.3590  -12.1400   23.5520 O.2   200  TYR200     -0.2867
     43  CB        -4.8280  -12.1800   25.0720 C.3   200  TYR200      0.0534
     44  CG        -4.0630  -11.5260   26.1840 C.ar  200  TYR200     -0.0201
     45  CD1       -4.3520  -10.2180   26.5830 C.ar  200  TYR200     -0.0009
     46  CD2       -3.0750  -12.2240   26.8740 C.ar  200  TYR200     -0.0009
     47  CE1       -3.6570   -9.6250   27.6200 C.ar  200  TYR200      0.0417
     48  CE2       -2.3830  -11.6330   27.9170 C.ar  200  TYR200      0.0417
     49  CZ        -2.6780  -10.3440   28.2840 C.ar  200  TYR200      0.1957
     50  OH        -1.9800   -9.7630   29.3330 O.3   200  TYR200     -0.2866
     51  N          7.0180  -12.9730   17.6650 N.3   216  GLU216     -0.1245
     52  CA         7.4530  -13.3800   19.0030 C.3   216  GLU216      0.1567
     53  C          8.6350  -14.3540   18.9750 C.2   216  GLU216      0.2260
     54  O          9.3890  -14.4150   19.9320 O.2   216  GLU216     -0.2867
     55  CB         6.3010  -13.9700   19.8310 C.3   216  GLU216      0.0388
     56  CG         5.1180  -13.0170   20.0600 C.3   216  GLU216      0.1160
     57  CD         5.3820  -11.9300   21.1200 C.2   216  GLU216      0.3649
     58  OE1        6.5310  -11.8210   21.6250 O.co2 216  GLU216     -0.2457
     59  OE2        4.4230  -11.1860   21.4610 O.co2 216  GLU216     -0.2457
     60  N          1.5880   -3.8880   22.5640 N.3   254  TRP254     -0.1241
     61  CA         2.2300   -4.5220   23.7200 C.3   254  TRP254      0.1605
     62  C          3.2540   -3.6230   24.4020 C.2   254  TRP254      0.2264
     63  O          3.5620   -3.8110   25.5730 O.2   254  TRP254     -0.2867
     64  CB         2.8280   -5.8890   23.3800 C.3   254  TRP254      0.0550
     65  CG         1.8330   -6.8800   22.8630 C.ar  254  TRP254      0.0003
     66  CD1        1.9520   -7.6380   21.7300 C.ar  254  TRP254      0.0946
     67  CD2        0.5680   -7.2280   23.4470 C.ar  254  TRP254      0.0152
     68  NE1        0.8400   -8.4260   21.5710 N.ar  254  TRP254     -0.2442
     69  CE2       -0.0210   -8.2020   22.6120 C.ar  254  TRP254      0.0810
     70  CE3       -0.1200   -6.8230   24.6110 C.ar  254  TRP254      0.0012
     71  CZ2       -1.2680   -8.7740   22.8890 C.ar  254  TRP254      0.0191
     72  CZ3       -1.3580   -7.3820   24.8770 C.ar  254  TRP254      0.0001
     73  CH2       -1.9210   -8.3500   24.0200 C.ar  254  TRP254      0.0015
     74  N          0.8490   -1.7920   26.6420 N.3   257  TRP257     -0.1241
     75  CA         0.5330   -2.7490   27.6930 C.3   257  TRP257      0.1605
     76  C          1.6520   -2.7560   28.7410 C.2   257  TRP257      0.2264
     77  O          1.3810   -2.7450   29.9340 O.2   257  TRP257     -0.2867
     78  CB         0.3360   -4.1320   27.0500 C.3   257  TRP257      0.0550
     79  CG         0.1760   -5.3100   27.9690 C.ar  257  TRP257      0.0003
     80  CD1       -0.9960   -5.9250   28.3090 C.ar  257  TRP257      0.0946
     81  CD2        1.2250   -6.0650   28.6060 C.ar  257  TRP257      0.0152
     82  NE1       -0.7440   -6.9970   29.1310 N.ar  257  TRP257     -0.2442
     83  CE2        0.6080   -7.1090   29.3240 C.ar  257  TRP257      0.0810
     84  CE3        2.6270   -5.9620   28.6280 C.ar  257  TRP257      0.0012
     85  CZ2        1.3360   -8.0450   30.0700 C.ar  257  TRP257      0.0191
     86  CZ3        3.3610   -6.8810   29.3850 C.ar  257  TRP257      0.0001
     87  CH2        2.7070   -7.9110   30.0960 C.ar  257  TRP257      0.0015
     88  N         11.7860   -4.4530   27.8950 N.3   271  TYR271     -0.1241
     89  CA        10.7910   -5.1360   27.0570 C.3   271  TYR271      0.1605
     90  C          9.9690   -4.1330   26.2390 C.2   271  TYR271      0.2264
     91  O          9.8810   -4.2480   25.0110 O.2   271  TYR271     -0.2867
     92  CB         9.8750   -6.0180   27.9150 C.3   271  TYR271      0.0534
     93  CG         8.8180   -6.7620   27.1350 C.ar  271  TYR271     -0.0201
     94  CD1        9.1090   -7.9660   26.5040 C.ar  271  TYR271     -0.0009
     95  CD2        7.5130   -6.2660   27.0420 C.ar  271  TYR271     -0.0009
     96  CE1        8.1220   -8.6590   25.7790 C.ar  271  TYR271      0.0417
     97  CE2        6.5330   -6.9480   26.3230 C.ar  271  TYR271      0.0417
     98  CZ         6.8400   -8.1410   25.7020 C.ar  271  TYR271      0.1957
     99  OH         5.8640   -8.8130   24.9830 O.3   271  TYR271     -0.2866
@<TRIPOS>BOND
     1    51    52    1
     2    53    52    1
     3    53    54    2
     4    52    55    1
     5    55    56    1
     6    56    57    1
     7    57    59   ar
     8    57    58   ar
     9    16    17    1
    10    68    66   ar
    11    68    69   ar
    12    66    65   ar
    13    24    25    1
    14    18    17    1
    15    18    19    2
    16    17    20    1
    17    25    26    1
    18    25    28    1
    19    26    27    2
    20    60    61    1
    21    69    71   ar
    22    69    67   ar
    23    65    64    1
    24    65    67   ar
    25    71    73   ar
    26    64    61    1
    27    67    70   ar
    28    29    28    1
    29    20    21    1
    30    42    41    2
    31    28    30    1
    32    22    21   ar
    33    61    62    1
    34    73    72   ar
    35    21    23   ar
    36    33    34    2
    37    33    32    1
    38    41    40    1
    39    62    63    2
    40    35    32    1
    41    35    36    1
    42    70    72   ar
    43    31    32    1
    44    99    98    1
    45    91    90    2
    46    43    40    1
    47    43    44    1
    48    38    36   am
    49    40    39    1
    50    36    37    2
    51    98    96   ar
    52    98    97   ar
    53    96    94   ar
    54    44    45   ar
    55    44    46   ar
    56    90    89    1
    57    97    95   ar
    58    94    93   ar
    59    45    47   ar
    60    74    75    1
    61    46    48   ar
    62    95    93   ar
    63    78    75    1
    64    78    79    1
    65    89    88    1
    66    89    92    1
    67    93    92    1
    68    47    49   ar
    69    75    76    1
    70    48    49   ar
    71    79    80   ar
    72    79    81   ar
    73    49    50    1
    74    80    82   ar
    75    81    84   ar
    76    81    83   ar
    77    84    86   ar
    78    76    77    2
    79     7     8    1
    80     7     6    1
    81    82    83   ar
    82    83    85   ar
    83    86    87   ar
    84    85    87   ar
    85    14    13    1
    86     6     5    1
    87     5     2    1
    88    13    15    1
    89    13    10    1
    90     2     1    1
    91     2     3    1
    92     9    10    1
    93     9     3   am
    94    10    11    1
    95     3     4    2
    96    11    12    2
