@<TRIPOS>MOLECULE
tmp/4r7fA00.pdb
 82 79 0 0 0
SMALL
GASTEIGER

@<TRIPOS>ATOM
      1  N         -2.1070   34.5230    9.6060 N.3     5  PHE5       -0.1227
      2  CA        -1.6610   33.1610    9.6580 C.3     5  PHE5        0.1736
      3  C         -2.8440   32.2860    9.4210 C.2     5  PHE5        0.2596
      4  O         -3.9910   32.6840    9.6670 O.2     5  PHE5       -0.2718
      5  CB        -0.9820   32.8400   11.0000 C.3     5  PHE5        0.0547
      6  CG        -1.8250   33.0810   12.2190 C.ar    5  PHE5       -0.0202
      7  CD1       -1.8580   34.3390   12.8270 C.ar    5  PHE5       -0.0042
      8  CD2       -2.5190   32.0480   12.8070 C.ar    5  PHE5       -0.0042
      9  CE1       -2.5900   34.5600   13.9810 C.ar    5  PHE5       -0.0003
     10  CE2       -3.2780   32.2610   13.9700 C.ar    5  PHE5       -0.0003
     11  CZ        -3.3160   33.5140   14.5610 C.ar    5  PHE5       -0.0000
     12  N         -2.5870   31.1050    8.9060 N.am    6  THR6       -0.1953
     13  CA        -3.6780   30.1780    8.6690 C.3     6  THR6        0.1897
     14  C         -4.3110   29.8030    9.9850 C.2     6  THR6        0.2313
     15  O         -3.6420   29.2590   10.8710 O.2     6  THR6       -0.2863
     16  CB        -3.1790   28.9490    7.9560 C.3     6  THR6        0.1794
     17  OG1       -2.6560   29.3640    6.6860 O.3     6  THR6       -0.2208
     18  CG2       -4.3220   27.9200    7.7680 C.3     6  THR6        0.0378
     19  N          5.0390   27.9830   12.7760 N.3   189  ARG189     -0.1231
     20  CA         5.4380   29.3650   12.9790 C.3   189  ARG189      0.1694
     21  C          5.9350   29.6330   14.3490 C.2   189  ARG189      0.2592
     22  O          6.6980   30.5420   14.5380 O.2   189  ARG189     -0.2718
     23  CB         4.2970   30.3070   12.6900 C.3   189  ARG189      0.0321
     24  CG         3.9630   30.3240   11.2050 C.3   189  ARG189      0.0489
     25  CD         3.3530   31.6570   10.8440 C.3   189  ARG189      0.2205
     26  NE         2.7890   31.6650    9.5050 N.pl3 189  ARG189     -0.0865
     27  CZ         2.1340   32.7060    8.9870 C.cat 189  ARG189      0.5346
     28  NH1        1.9340   33.8090    9.7150 N.pl3 189  ARG189      0.1354
     29  NH2        1.6590   32.6340    7.7460 N.pl3 189  ARG189      0.1354
     30  N          5.5100   28.8500   15.3260 N.am  190  ASP190     -0.1974
     31  CA         5.8210   29.1720   16.7150 C.3   190  ASP190      0.1709
     32  C          7.3160   29.2060   17.0260 C.2   190  ASP190      0.2293
     33  O          7.7520   30.0150   17.8520 O.2   190  ASP190     -0.2864
     34  CB         5.0990   28.2040   17.6450 C.3   190  ASP190      0.1436
     35  CG         5.6330   26.7760   17.5380 C.2   190  ASP190      0.3671
     36  OD1        5.2810   26.0830   16.5720 O.co2 190  ASP190     -0.2456
     37  OD2        6.3800   26.3420   18.4400 O.co2 190  ASP190     -0.2456
     38  N         -3.8430   23.4420   12.3350 N.3   309  ASN309     -0.1225
     39  CA        -3.0920   24.4010   11.5230 C.3   309  ASN309      0.1785
     40  C         -1.8040   24.8640   12.2070 C.2   309  ASN309      0.2597
     41  O         -1.3310   25.9950   12.0070 O.2   309  ASN309     -0.2718
     42  CB        -3.9980   25.5900   11.1900 C.3   309  ASN309      0.1169
     43  CG        -5.2860   25.1510   10.5180 C.2   309  ASN309      0.2627
     44  OD1       -6.3880   25.2160   11.0940 O.2   309  ASN309     -0.2716
     45  ND2       -5.1490   24.6810    9.3000 N.am  309  ASN309     -0.0877
     46  N         -1.2390   23.9910   13.0380 N.am  310  ASN310     -0.1960
     47  CA        -0.0560   24.3680   13.8140 C.3   310  ASN310      0.1819
     48  C         -0.1800   25.7020   14.6050 C.2   310  ASN310      0.2621
     49  O          0.7920   26.3770   14.8540 O.2   310  ASN310     -0.2715
     50  CB         1.1830   24.3310   12.9210 C.3   310  ASN310      0.1195
     51  CG         1.6080   22.9080   12.5880 C.2   310  ASN310      0.2630
     52  OD1        1.5170   22.0040   13.4100 O.2   310  ASN310     -0.2716
     53  ND2        2.0350   22.7080   11.3840 N.am  310  ASN310     -0.0877
     54  N         -1.4000   26.0280   15.0290 N.am  311  VAL311     -0.1963
     55  CA        -1.6620   27.1630   15.9050 C.3   311  VAL311      0.1727
     56  C         -1.6600   26.7270   17.3740 C.2   311  VAL311      0.2616
     57  O         -2.3320   25.7750   17.7600 O.2   311  VAL311     -0.2715
     58  CB        -3.0140   27.8150   15.5040 C.3   311  VAL311      0.0290
     59  CG1       -3.4570   28.9440   16.4450 C.3   311  VAL311      0.0023
     60  CG2       -2.9370   28.2950   14.0570 C.3   311  VAL311      0.0023
     61  N         -0.8820   27.4430   18.1770 N.am  312  LEU312     -0.1963
     62  CA        -0.8290   27.2530   19.6140 C.3   312  LEU312      0.1728
     63  C         -1.6660   28.3590   20.2090 C.2   312  LEU312      0.2616
     64  O         -1.2130   29.4960   20.3070 O.2   312  LEU312     -0.2715
     65  CB         0.6130   27.3310   20.1420 C.3   312  LEU312      0.0311
     66  CG         1.5780   26.3590   19.4540 C.3   312  LEU312      0.0022
     67  CD1        2.9420   26.4940   20.1100 C.3   312  LEU312      0.0001
     68  CD2        1.0560   24.9470   19.5850 C.3   312  LEU312      0.0001
     69  N         -2.9010   28.0010   20.5830 N.am  313  ASP313     -0.1971
     70  CA        -3.8430   28.8850   21.2330 C.3   313  ASP313      0.1709
     71  C         -4.8850   28.0720   22.0670 C.2   313  ASP313      0.2293
     72  O         -4.7220   26.8830   22.3140 O.2   313  ASP313     -0.2864
     73  CB        -4.5190   29.7570   20.1630 C.3   313  ASP313      0.1436
     74  CG        -5.5600   28.9840   19.2990 C.2   313  ASP313      0.3671
     75  OD1       -5.6990   27.7250   19.4350 O.co2 313  ASP313     -0.2456
     76  OD2       -6.2370   29.6540   18.4580 O.co2 313  ASP313     -0.2456
     77  N          5.9110   32.1860   23.5960 N.3   349  SER349     -0.1217
     78  CA         5.0100   31.7180   22.5060 C.3   349  SER349      0.1889
     79  C          5.6180   30.5600   21.6680 C.2   349  SER349      0.2288
     80  O          5.0560   30.1480   20.6410 O.2   349  SER349     -0.2866
     81  CB         4.6780   32.8820   21.5740 C.3   349  SER349      0.2089
     82  OG         5.8750   33.3970   21.0570 O.3   349  SER349     -0.2183
@<TRIPOS>BOND
     1    17    16    1
     2    29    27    1
     3    18    16    1
     4    16    13    1
     5    13    12    1
     6    13    14    1
     7    12     3   am
     8    27    26    2
     9    27    28    1
    10    45    43   am
    11     3     2    1
    12     3     4    2
    13    26    25    1
    14     1     2    1
    15     2     5    1
    16    14    15    2
    17    43    44    2
    18    43    42    1
    19    25    24    1
    20     5     6    1
    21    42    39    1
    22    24    23    1
    23    53    51   am
    24    39    40    1
    25    39    38    1
    26    41    40    2
    27    40    46   am
    28     6     8   ar
    29     6     7   ar
    30    51    50    1
    31    51    52    2
    32    23    20    1
    33    19    20    1
    34     8    10   ar
    35     7     9   ar
    36    50    47    1
    37    20    21    1
    38    46    47    1
    39    47    48    1
    40    10    11   ar
    41     9    11   ar
    42    60    58    1
    43    21    22    2
    44    21    30   am
    45    48    49    2
    46    48    54   am
    47    54    55    1
    48    30    31    1
    49    58    55    1
    50    58    59    1
    51    55    56    1
    52    36    35   ar
    53    31    32    1
    54    31    34    1
    55    32    33    2
    56    56    57    2
    57    56    61   am
    58    35    34    1
    59    35    37   ar
    60    61    62    1
    61    76    74   ar
    62    74    75   ar
    63    74    73    1
    64    66    68    1
    65    66    67    1
    66    66    65    1
    67    62    65    1
    68    62    63    1
    69    73    70    1
    70    63    64    2
    71    63    69   am
    72    69    70    1
    73    80    79    2
    74    82    81    1
    75    70    71    1
    76    81    78    1
    77    79    78    1
    78    71    72    2
    79    78    77    1
