@<TRIPOS>MOLECULE
tmp/4r7fA01.pdb
 112 109 0 0 0
SMALL
GASTEIGER

@<TRIPOS>ATOM
      1  N         -2.5870   31.1050    8.9060 N.3     6  THR6       -0.1218
      2  CA        -3.6780   30.1780    8.6690 C.3     6  THR6        0.1862
      3  C         -4.3110   29.8030    9.9850 C.2     6  THR6        0.2287
      4  O         -3.6420   29.2590   10.8710 O.2     6  THR6       -0.2866
      5  CB        -3.1790   28.9490    7.9560 C.3     6  THR6        0.1770
      6  OG1       -2.6560   29.3640    6.6860 O.3     6  THR6       -0.2211
      7  CG2       -4.3220   27.9200    7.7680 C.3     6  THR6        0.0375
      8  N          2.9630   25.0800    1.1920 N.3    28  PRO28      -0.2116
      9  CA         2.0310   26.1510    0.8360 C.3    28  PRO28       0.1372
     10  C          2.6980   27.2770    0.0500 C.2    28  PRO28       0.2244
     11  O          2.7150   28.4130    0.5000 O.2    28  PRO28      -0.2868
     12  CB         1.5620   26.6410    2.2120 C.3    28  PRO28       0.0268
     13  CG         2.7790   26.4540    3.0910 C.3    28  PRO28       0.0207
     14  CD         3.4880   25.2390    2.5700 C.3    28  PRO28       0.0892
     15  N          4.4950   38.5730    7.4950 N.3    63  TRP63      -0.1241
     16  CA         3.0480   38.2700    7.4910 C.3    63  TRP63       0.1605
     17  C          2.1940   39.3640    8.1090 C.2    63  TRP63       0.2264
     18  O          1.0660   39.1110    8.4950 O.2    63  TRP63      -0.2867
     19  CB         2.7590   36.8870    8.1030 C.3    63  TRP63       0.0550
     20  CG         3.1080   35.7920    7.1830 C.ar   63  TRP63       0.0003
     21  CD1        4.2600   35.0270    7.1920 C.ar   63  TRP63       0.0946
     22  CD2        2.3410   35.3390    6.0690 C.ar   63  TRP63       0.0152
     23  NE1        4.2360   34.1220    6.1500 N.ar   63  TRP63      -0.2442
     24  CE2        3.0690   34.2860    5.4530 C.ar   63  TRP63       0.0810
     25  CE3        1.1160   35.7100    5.5300 C.ar   63  TRP63       0.0012
     26  CZ2        2.5940   33.6040    4.3500 C.ar   63  TRP63       0.0191
     27  CZ3        0.6400   35.0220    4.4250 C.ar   63  TRP63       0.0001
     28  CH2        1.3770   33.9700    3.8560 C.ar   63  TRP63       0.0015
     29  N         -3.3420   30.9610    4.3610 N.3   132  CYS132     -0.1221
     30  CA        -2.1190   31.6670    3.9940 C.3   132  CYS132      0.1808
     31  C         -1.2120   30.7840    3.1260 C.2   132  CYS132      0.2601
     32  O         -1.0210   29.6050    3.4300 O.2   132  CYS132     -0.2717
     33  CB        -1.3480   32.0460    5.2630 C.3   132  CYS132      0.0970
     34  SG        -1.9950   33.4390    6.1810 S.3   132  CYS132     -0.0800
     35  N         -0.6430   31.3780    2.0730 N.am  133  PHE133     -0.1962
     36  CA         0.2750   30.7070    1.1640 C.3   133  PHE133      0.1771
     37  C          1.1900   31.7600    0.5610 C.2   133  PHE133      0.2620
     38  O          0.9500   32.9750    0.6790 O.2   133  PHE133     -0.2715
     39  CB        -0.4670   29.9420    0.0530 C.3   133  PHE133      0.0574
     40  CG        -1.2710   30.8210   -0.8610 C.ar  133  PHE133     -0.0200
     41  CD1       -2.5890   31.1310   -0.5640 C.ar  133  PHE133     -0.0042
     42  CD2       -0.7010   31.3650   -2.0100 C.ar  133  PHE133     -0.0042
     43  CE1       -3.3230   31.9700   -1.3940 C.ar  133  PHE133     -0.0003
     44  CE2       -1.4180   32.2150   -2.8410 C.ar  133  PHE133     -0.0003
     45  CZ        -2.7340   32.5130   -2.5310 C.ar  133  PHE133     -0.0000
     46  N          2.2520   31.3020   -0.0730 N.am  134  SER134     -0.1950
     47  CA         3.1870   32.2310   -0.6610 C.3   134  SER134      0.1924
     48  C          3.3510   31.9760   -2.1580 C.2   134  SER134      0.2314
     49  O          3.1760   30.8510   -2.6460 O.2   134  SER134     -0.2863
     50  CB         4.5390   32.1070    0.0290 C.3   134  SER134      0.2116
     51  OG         4.4780   32.4580    1.4080 O.3   134  SER134     -0.2180
     52  N         11.3640   27.6950    8.6640 N.3   184  TYR184     -0.1241
     53  CA        10.2950   27.0620    9.4080 C.3   184  TYR184      0.1605
     54  C         10.5660   25.5910    9.5150 C.2   184  TYR184      0.2264
     55  O         10.8520   24.9450    8.5090 O.2   184  TYR184     -0.2867
     56  CB         8.9540   27.2690    8.6910 C.3   184  TYR184      0.0534
     57  CG         8.5510   28.7140    8.5280 C.ar  184  TYR184     -0.0201
     58  CD1        7.8620   29.3780    9.5270 C.ar  184  TYR184     -0.0009
     59  CD2        8.8220   29.4100    7.3750 C.ar  184  TYR184     -0.0009
     60  CE1        7.4620   30.7010    9.3880 C.ar  184  TYR184      0.0417
     61  CE2        8.4400   30.7410    7.2290 C.ar  184  TYR184      0.0417
     62  CZ         7.7460   31.3810    8.2520 C.ar  184  TYR184      0.1957
     63  OH         7.3730   32.7140    8.1520 O.3   184  TYR184     -0.2866
     64  N          6.6400   23.2030    9.1520 N.3   187  ASN187     -0.1240
     65  CA         5.5630   24.1520    8.9090 C.3   187  ASN187      0.1653
     66  C          4.9890   24.8570   10.1510 C.2   187  ASN187      0.2266
     67  O          3.8130   25.2140   10.1740 O.2   187  ASN187     -0.2867
     68  CB         4.4800   23.4500    8.0690 C.3   187  ASN187      0.1155
     69  CG         4.8780   23.3920    6.5910 C.2   187  ASN187      0.2627
     70  OD1        4.9420   24.4150    5.9140 O.2   187  ASN187     -0.2716
     71  ND2        5.2000   22.2120    6.1170 N.am  187  ASN187     -0.0877
     72  N          5.0390   27.9830   12.7760 N.3   189  ARG189     -0.1245
     73  CA         5.4380   29.3650   12.9790 C.3   189  ARG189      0.1563
     74  C          5.9350   29.6330   14.3490 C.2   189  ARG189      0.2260
     75  O          6.6980   30.5420   14.5380 O.2   189  ARG189     -0.2867
     76  CB         4.2970   30.3070   12.6900 C.3   189  ARG189      0.0307
     77  CG         3.9630   30.3240   11.2050 C.3   189  ARG189      0.0489
     78  CD         3.3530   31.6570   10.8440 C.3   189  ARG189      0.2205
     79  NE         2.7890   31.6650    9.5050 N.pl3 189  ARG189     -0.0865
     80  CZ         2.1340   32.7060    8.9870 C.cat 189  ARG189      0.5346
     81  NH1        1.9340   33.8090    9.7150 N.pl3 189  ARG189      0.1354
     82  NH2        1.6590   32.6340    7.7460 N.pl3 189  ARG189      0.1354
     83  N         11.7030   24.6970    5.7470 N.3   368  SER368     -0.1217
     84  CA        11.4600   25.5330    4.5800 C.3   368  SER368      0.1889
     85  C         12.1500   26.8990    4.7890 C.2   368  SER368      0.2288
     86  O         11.9790   27.5360    5.8210 O.2   368  SER368     -0.2866
     87  CB         9.9650   25.7080    4.3550 C.3   368  SER368      0.2089
     88  OG         9.2430   24.4840    4.3220 O.3   368  SER368     -0.2183
     89  N         12.6310   30.5770    3.2510 N.3   370  TYR370     -0.1241
     90  CA        11.9750   31.5850    2.4370 C.3   370  TYR370      0.1605
     91  C         12.8840   32.7950    2.4050 C.2   370  TYR370      0.2264
     92  O         13.2600   33.3130    3.4600 O.2   370  TYR370     -0.2867
     93  CB        10.6560   32.0310    3.0930 C.3   370  TYR370      0.0534
     94  CG         9.5170   31.0280    3.0520 C.ar  370  TYR370     -0.0201
     95  CD1        9.5190   29.8980    3.8450 C.ar  370  TYR370     -0.0009
     96  CD2        8.4500   31.2270    2.2270 C.ar  370  TYR370     -0.0009
     97  CE1        8.4650   28.9810    3.8030 C.ar  370  TYR370      0.0417
     98  CE2        7.3990   30.3480    2.1840 C.ar  370  TYR370      0.0417
     99  CZ         7.4070   29.2260    2.9770 C.ar  370  TYR370      0.1957
    100  OH         6.3410   28.3650    2.9060 O.3   370  TYR370     -0.2866
    101  N         13.0760   36.5890    1.0910 N.3   372  TYR372     -0.1241
    102  CA        12.3410   37.7560    0.6740 C.3   372  TYR372      0.1605
    103  C         13.3130   38.8940    0.3700 C.2   372  TYR372      0.2264
    104  O         14.3790   38.9970    0.9840 O.2   372  TYR372     -0.2867
    105  CB        11.4070   38.2120    1.7930 C.3   372  TYR372      0.0534
    106  CG        10.3590   37.2190    2.1350 C.ar  372  TYR372     -0.0201
    107  CD1        9.1490   37.2070    1.4790 C.ar  372  TYR372     -0.0009
    108  CD2       10.5870   36.2540    3.0790 C.ar  372  TYR372     -0.0009
    109  CE1        8.1670   36.2850    1.8030 C.ar  372  TYR372      0.0417
    110  CE2        9.6350   35.3110    3.3790 C.ar  372  TYR372      0.0417
    111  CZ         8.4220   35.3350    2.7600 C.ar  372  TYR372      0.1957
    112  OH         7.4800   34.3580    3.0660 O.3   372  TYR372     -0.2866
@<TRIPOS>BOND
     1    44    45   ar
     2    44    42   ar
     3    49    48    2
     4    45    43   ar
     5    48    47    1
     6    42    40   ar
     7    43    41   ar
     8    40    41   ar
     9    40    39    1
    10    47    46    1
    11    47    50    1
    12    46    37   am
    13    50    51    1
    14    10    11    2
    15    10     9    1
    16    39    36    1
    17   103   102    1
    18   103   104    2
    19    37    38    2
    20    37    36    1
    21   102   101    1
    22   102   105    1
    23     9     8    1
    24     9    12    1
    25    36    35    1
    26     8    14    1
    27   107   109   ar
    28   107   106   ar
    29   105   106    1
    30   109   111   ar
    31    35    31   am
    32   106   108   ar
    33    98    96   ar
    34    98    99   ar
    35    12    13    1
    36    96    94   ar
    37    91    90    1
    38    91    92    2
    39    90    93    1
    40    90    89    1
    41    14    13    1
    42   111   112    1
    43   111   110   ar
    44   100    99    1
    45    99    97   ar
    46    94    93    1
    47    94    95   ar
    48   108   110   ar
    49    31    32    2
    50    31    30    1
    51    97    95   ar
    52    28    26   ar
    53    28    27   ar
    54    30    29    1
    55    30    33    1
    56    88    87    1
    57    26    24   ar
    58    87    84    1
    59    27    25   ar
    60    84    85    1
    61    84    83    1
    62    85    86    2
    63    33    34    1
    64    24    22   ar
    65    24    23   ar
    66    25    22   ar
    67    70    69    2
    68    22    20   ar
    69    71    69   am
    70    23    21   ar
    71    69    68    1
    72     6     5    1
    73    20    21   ar
    74    20    19    1
    75    61    59   ar
    76    61    62   ar
    77    59    57   ar
    78    16    15    1
    79    16    19    1
    80    16    17    1
    81    82    80    1
    82     7     5    1
    83     5     2    1
    84    68    65    1
    85    17    18    2
    86    63    62    1
    87    62    60   ar
    88    55    54    2
    89    57    56    1
    90    57    58   ar
    91    52    53    1
    92     2     1    1
    93     2     3    1
    94    56    53    1
    95    65    64    1
    96    65    66    1
    97    80    79    2
    98    80    81    1
    99    60    58   ar
   100    53    54    1
   101    79    78    1
   102     3     4    2
   103    66    67    2
   104    78    77    1
   105    77    76    1
   106    76    73    1
   107    72    73    1
   108    73    74    1
   109    74    75    2
