@<TRIPOS>MOLECULE
tmp/4r7hA00.pdb
 201 192 0 0 0
SMALL
GASTEIGER

@<TRIPOS>ATOM
      1  N         -5.8380   15.9730   13.3470 N.3     3  TYR3       -0.1241
      2  CA        -7.1150   15.3110   13.0960 C.3     3  TYR3        0.1605
      3  C         -8.2490   16.3240   12.9750 C.2     3  TYR3        0.2264
      4  O         -8.3400   17.2700   13.7600 O.2     3  TYR3       -0.2867
      5  CB        -7.4320   14.3060   14.2120 C.3     3  TYR3        0.0534
      6  CG        -8.6960   13.4950   13.9790 C.ar    3  TYR3       -0.0201
      7  CD1       -9.9480   14.0120   14.2920 C.ar    3  TYR3       -0.0009
      8  CD2       -8.6350   12.2100   13.4500 C.ar    3  TYR3       -0.0009
      9  CE1      -11.1030   13.2810   14.0770 C.ar    3  TYR3        0.0417
     10  CE2       -9.7880   11.4680   13.2340 C.ar    3  TYR3        0.0417
     11  CZ       -11.0190   12.0100   13.5500 C.ar    3  TYR3        0.1957
     12  OH       -12.1720   11.2860   13.3420 O.3     3  TYR3       -0.2866
     13  N        -12.6590   16.5130   12.3540 N.3     5  VAL5       -0.1231
     14  CA       -13.9150   15.7720   12.3380 C.3     5  VAL5        0.1692
     15  C        -14.2980   15.3710   10.9230 C.2     5  VAL5        0.2592
     16  O        -14.0380   16.1080    9.9740 O.2     5  VAL5       -0.2718
     17  CB       -15.0600   16.5910   12.9520 C.3     5  VAL5        0.0266
     18  CG1      -15.0270   16.4820   14.4610 C.3     5  VAL5        0.0020
     19  CG2      -14.9790   18.0450   12.5060 C.3     5  VAL5        0.0020
     20  N        -14.9160   14.2040   10.7850 N.am    6  ARG6       -0.1966
     21  CA       -15.2560   13.6950    9.4620 C.3     6  ARG6        0.1729
     22  C        -16.5130   14.3440    8.8730 C.2     6  ARG6        0.2616
     23  O        -16.4570   14.9180    7.7860 O.2     6  ARG6       -0.2715
     24  CB       -15.3750   12.1690    9.4760 C.3     6  ARG6        0.0348
     25  CG       -14.6850   11.5080    8.2930 C.3     6  ARG6        0.0492
     26  CD       -13.2730   12.0640    8.1180 C.3     6  ARG6        0.2205
     27  NE       -12.9510   12.3050    6.7120 N.pl3   6  ARG6       -0.0865
     28  CZ       -12.0110   13.1490    6.2930 C.cat   6  ARG6        0.5346
     29  NH1      -11.2930   13.8370    7.1720 N.pl3   6  ARG6        0.1354
     30  NH2      -11.7900   13.3090    4.9920 N.pl3   6  ARG6        0.1354
     31  N        -17.6390   14.2670    9.5800 N.am    7  TRP7       -0.1974
     32  CA       -18.8790   14.8180    9.0360 C.3     7  TRP7        0.1640
     33  C        -18.8620   16.3480    9.0360 C.2     7  TRP7        0.2290
     34  O        -18.3130   16.9750    9.9440 O.2     7  TRP7       -0.2864
     35  CB       -20.1390   14.2910    9.7480 C.3     7  TRP7        0.0576
     36  CG       -20.2280   12.7880    9.9090 C.ar    7  TRP7        0.0006
     37  CD1      -19.2580   11.8670    9.6280 C.ar    7  TRP7        0.0946
     38  CD2      -21.3500   12.0430   10.4030 C.ar    7  TRP7        0.0152
     39  NE1      -19.7050   10.6010    9.9180 N.ar    7  TRP7       -0.2442
     40  CE2      -20.9870   10.6800   10.3940 C.ar    7  TRP7        0.0810
     41  CE3      -22.6270   12.3970   10.8530 C.ar    7  TRP7        0.0012
     42  CZ2      -21.8550    9.6690   10.8140 C.ar    7  TRP7        0.0191
     43  CZ3      -23.4900   11.3880   11.2700 C.ar    7  TRP7        0.0001
     44  CH2      -23.1000   10.0430   11.2460 C.ar    7  TRP7        0.0015
     45  N        -14.3920   -2.2650   21.7270 N.3    40  LEU40      -0.1245
     46  CA       -15.0050   -2.6290   20.4530 C.3    40  LEU40       0.1561
     47  C        -14.1480   -2.2080   19.2580 C.2    40  LEU40       0.2260
     48  O        -14.2370   -2.7930   18.1790 O.2    40  LEU40      -0.2867
     49  CB       -16.3980   -2.0060   20.3410 C.3    40  LEU40       0.0270
     50  CG       -17.4250   -2.4700   21.3740 C.3    40  LEU40       0.0019
     51  CD1      -18.6790   -1.6140   21.3080 C.3    40  LEU40       0.0001
     52  CD2      -17.7590   -3.9360   21.1620 C.3    40  LEU40       0.0001
     53  N        -13.4920    2.8450   21.1100 N.3    48  VAL48      -0.1245
     54  CA       -14.8960    2.6210   21.4340 C.3    48  VAL48       0.1561
     55  C        -15.0200    1.4000   22.3360 C.2    48  VAL48       0.2260
     56  O        -14.6150    0.3000   21.9670 O.2    48  VAL48      -0.2867
     57  CB       -15.7540    2.4130   20.1720 C.3    48  VAL48       0.0252
     58  CG1      -17.1350    1.9030   20.5470 C.3    48  VAL48       0.0019
     59  CG2      -15.8640    3.7040   19.3940 C.3    48  VAL48       0.0019
     60  N        -22.2810    1.7180   23.4440 N.3    66  ALA66      -0.1245
     61  CA       -20.9310    1.9290   22.9450 C.3    66  ALA66       0.1562
     62  C        -20.4970    3.3250   23.3560 C.2    66  ALA66       0.2260
     63  O        -21.2170    4.2940   23.1270 O.2    66  ALA66      -0.2867
     64  CB       -20.8830    1.7720   21.4330 C.3    66  ALA66       0.0290
     65  N        -17.5230    6.2470   23.1360 N.3    68  LYS68      -0.1245
     66  CA       -16.3090    6.7170   22.4740 C.3    68  LYS68       0.1561
     67  C        -15.5450    7.6800   23.3730 C.2    68  LYS68       0.2260
     68  O        -16.1430    8.5250   24.0520 O.2    68  LYS68      -0.2867
     69  CB       -16.6160    7.3720   21.1240 C.3    68  LYS68       0.0271
     70  CG       -15.3990    7.4630   20.2040 C.3    68  LYS68       0.0035
     71  CD       -15.6170    8.4130   19.0280 C.3    68  LYS68       0.0206
     72  CE       -16.0660    7.6880   17.7670 C.3    68  LYS68       0.1093
     73  NZ       -16.0070    8.5780   16.5630 N.3    68  LYS68      -0.1314
     74  N        -17.7100   16.3120   17.2700 N.3    85  GLU85      -0.1245
     75  CA       -18.4810   15.1320   16.9050 C.3    85  GLU85       0.1567
     76  C        -19.7670   15.0640   17.7130 C.2    85  GLU85       0.2260
     77  O        -20.8490   14.8570   17.1650 O.2    85  GLU85      -0.2867
     78  CB       -17.6530   13.8640   17.1170 C.3    85  GLU85       0.0388
     79  CG       -18.4120   12.5760   16.8590 C.3    85  GLU85       0.1160
     80  CD       -17.5150   11.3520   16.8880 C.2    85  GLU85       0.3649
     81  OE1      -16.2750   11.5130   16.8780 O.co2  85  GLU85      -0.2457
     82  OE2      -18.0500   10.2240   16.9230 O.co2  85  GLU85      -0.2457
     83  N        -22.2070   17.8050   16.6930 N.3    88  ILE88      -0.1231
     84  CA       -22.7850   17.4800   15.3940 C.3    88  ILE88       0.1692
     85  C        -23.9080   16.4570   15.5330 C.2    88  ILE88       0.2591
     86  O        -24.9880   16.6290   14.9670 O.2    88  ILE88      -0.2718
     87  CB       -21.7150   16.9520   14.4150 C.3    88  ILE88       0.0266
     88  CG1      -20.7930   18.0910   13.9710 C.3    88  ILE88       0.0019
     89  CG2      -22.3660   16.3100   13.2020 C.3    88  ILE88       0.0020
     90  CD1      -19.5580   17.6270   13.2280 C.3    88  ILE88       0.0001
     91  N        -23.6540   15.3990   16.2980 N.am   89  MET89      -0.1979
     92  CA       -24.6490   14.3500   16.5020 C.3    89  MET89       0.1605
     93  C        -25.9180   14.8800   17.1660 C.2    89  MET89       0.2287
     94  O        -27.0250   14.4820   16.8020 O.2    89  MET89      -0.2864
     95  CB       -24.0650   13.1950   17.3180 C.3    89  MET89       0.0413
     96  CG       -22.8960   12.5000   16.6450 C.3    89  MET89       0.0598
     97  SD       -22.3420   11.0280   17.5260 S.3    89  MET89      -0.1393
     98  CE       -23.7740    9.9670   17.3420 C.3    89  MET89       0.0692
     99  N        -26.0720    5.6420   13.6220 N.3    99  VAL99      -0.1245
    100  CA       -25.6700    5.3860   14.9970 C.3    99  VAL99       0.1561
    101  C        -26.0810    6.5840   15.8410 C.2    99  VAL99       0.2260
    102  O        -25.5280    7.6720   15.6990 O.2    99  VAL99      -0.2867
    103  CB       -24.1520    5.1600   15.1150 C.3    99  VAL99       0.0252
    104  CG1      -23.7300    5.1370   16.5750 C.3    99  VAL99       0.0019
    105  CG2      -23.7510    3.8670   14.4120 C.3    99  VAL99       0.0019
    106  N        -18.5020   10.0050   24.8330 N.3   113  VAL113     -0.1245
    107  CA       -19.6730   10.0740   23.9620 C.3   113  VAL113      0.1561
    108  C        -20.3990    8.7290   23.9060 C.2   113  VAL113      0.2260
    109  O        -19.8610    7.7400   23.4070 O.2   113  VAL113     -0.2867
    110  CB       -19.3050   10.5500   22.5410 C.3   113  VAL113      0.0252
    111  CG1      -20.5130   10.4660   21.6210 C.3   113  VAL113      0.0019
    112  CG2      -18.7650   11.9730   22.5860 C.3   113  VAL113      0.0019
    113  N        -23.1510    6.1760   22.6130 N.3   115  THR115     -0.1203
    114  CA       -23.9790    5.8930   21.4470 C.3   115  THR115      0.1994
    115  C        -24.5910    4.4990   21.5210 C.2   115  THR115      0.2618
    116  O        -24.3150    3.7320   22.4420 O.2   115  THR115     -0.2717
    117  CB       -23.1850    6.0290   20.1340 C.3   115  THR115      0.1784
    118  OG1      -22.0680    5.1320   20.1480 O.3   115  THR115     -0.2211
    119  CG2      -22.6820    7.4520   19.9560 C.3   115  THR115      0.0376
    120  N        -25.4260    4.1810   20.5390 N.am  116  GLU116     -0.1965
    121  CA       -26.1020    2.8910   20.4840 C.3   116  GLU116      0.1733
    122  C        -25.1190    1.7480   20.2970 C.2   116  GLU116      0.2616
    123  O        -24.1610    1.8590   19.5370 O.2   116  GLU116     -0.2715
    124  CB       -27.1100    2.8670   19.3380 C.3   116  GLU116      0.0429
    125  CG       -28.2180    3.8840   19.4570 C.3   116  GLU116      0.1163
    126  CD       -29.1800    3.8130   18.2870 C.2   116  GLU116      0.3649
    127  OE1      -30.4040    3.9610   18.5090 O.co2 116  GLU116     -0.2457
    128  OE2      -28.7070    3.6080   17.1460 O.co2 116  GLU116     -0.2457
    129  N        -25.3690    0.6450   20.9900 N.am  117  TYR117     -0.1960
    130  CA       -24.5840   -0.5640   20.8050 C.3   117  TYR117      0.1771
    131  C        -25.1780   -1.3870   19.6670 C.2   117  TYR117      0.2619
    132  O        -26.3730   -1.6820   19.6580 O.2   117  TYR117     -0.2715
    133  CB       -24.5470   -1.3810   22.0960 C.3   117  TYR117      0.0574
    134  CG       -23.8020   -2.6890   21.9760 C.ar  117  TYR117     -0.0198
    135  CD1      -22.4140   -2.7190   21.9400 C.ar  117  TYR117     -0.0009
    136  CD2      -24.4850   -3.8950   21.9040 C.ar  117  TYR117     -0.0009
    137  CE1      -21.7280   -3.9170   21.8280 C.ar  117  TYR117      0.0417
    138  CE2      -23.8080   -5.0940   21.7940 C.ar  117  TYR117      0.0417
    139  CZ       -22.4320   -5.1000   21.7570 C.ar  117  TYR117      0.1957
    140  OH       -21.7570   -6.2940   21.6480 O.3   117  TYR117     -0.2866
    141  N        -24.3400   -1.7430   18.7020 N.am  118  CYS118     -0.1968
    142  CA       -24.7790   -2.5560   17.5760 C.3   118  CYS118      0.1712
    143  C        -24.1800   -3.9500   17.6830 C.2   118  CYS118      0.2296
    144  O        -22.9880   -4.1520   17.4490 O.2   118  CYS118     -0.2864
    145  CB       -24.4040   -1.8880   16.2570 C.3   118  CYS118      0.0983
    146  SG       -25.0610   -0.2140   16.1250 S.3   118  CYS118     -0.0798
    147  N        -21.8190   -5.7110   15.1410 N.3   121  GLY121     -0.1210
    148  CA       -20.6140   -4.9940   14.7660 C.3   121  GLY121      0.1956
    149  C        -20.6780   -4.3870   13.3790 C.2   121  GLY121      0.2611
    150  O        -21.7610   -4.1880   12.8310 O.2   121  GLY121     -0.2717
    151  N        -19.5090   -4.0950   12.8130 N.am  122  ASP122     -0.1973
    152  CA       -19.4230   -3.4490   11.5060 C.3   122  ASP122      0.1709
    153  C        -19.8330   -4.3820   10.3750 C.2   122  ASP122      0.2293
    154  O        -19.6450   -5.5940   10.4540 O.2   122  ASP122     -0.2864
    155  CB       -18.0190   -2.8970   11.2570 C.3   122  ASP122      0.1436
    156  CG       -16.9670   -3.9850   11.2000 C.2   122  ASP122      0.3671
    157  OD1      -16.5660   -4.4860   12.2750 O.co2 122  ASP122     -0.2456
    158  OD2      -16.5340   -4.3350   10.0800 O.co2 122  ASP122     -0.2456
    159  N        -22.8080   -0.1090   10.8990 N.3   178  LEU178     -0.1245
    160  CA       -23.0030   -1.0140   12.0250 C.3   178  LEU178      0.1561
    161  C        -24.2970   -1.8160   11.8870 C.2   178  LEU178      0.2260
    162  O        -25.2840   -1.3220   11.3470 O.2   178  LEU178     -0.2867
    163  CB       -22.9850   -0.2380   13.3440 C.3   178  LEU178      0.0270
    164  CG       -21.6440    0.2060   13.9440 C.3   178  LEU178      0.0019
    165  CD1      -20.7510   -0.9880   14.2330 C.3   178  LEU178      0.0001
    166  CD2      -20.9150    1.2200   13.0640 C.3   178  LEU178      0.0001
    167  N        -22.4260    4.9400   10.6570 N.3   188  GLY188     -0.1210
    168  CA       -21.7090    5.6970   11.6650 C.3   188  GLY188      0.1956
    169  C        -20.3080    6.0180   11.1890 C.2   188  GLY188      0.2612
    170  O        -20.0510    6.0610    9.9870 O.2   188  GLY188     -0.2717
    171  N        -19.4010    6.2440   12.1320 N.am  189  ASP189     -0.1959
    172  CA       -17.9960    6.4720   11.8110 C.3   189  ASP189      0.1840
    173  C        -17.1270    6.2650   13.0460 C.2   189  ASP189      0.2622
    174  O        -17.2920    6.9540   14.0540 O.2   189  ASP189     -0.2715
    175  CB       -17.7850    7.8810   11.2460 C.3   189  ASP189      0.1450
    176  CG       -16.3840    8.0860   10.6870 C.2   189  ASP189      0.3671
    177  OD1      -15.7940    7.1160   10.1680 O.co2 189  ASP189     -0.2456
    178  OD2      -15.8680    9.2190   10.7640 O.co2 189  ASP189     -0.2456
    179  N        -16.2050    5.3110   12.9640 N.am  190  PHE190     -0.1960
    180  CA       -15.2880    5.0350   14.0650 C.3   190  PHE190      0.1771
    181  C        -14.3770    6.2270   14.3310 C.2   190  PHE190      0.2620
    182  O        -14.1080    6.5620   15.4840 O.2   190  PHE190     -0.2715
    183  CB       -14.4590    3.7780   13.7830 C.3   190  PHE190      0.0574
    184  CG       -15.2070    2.4920   14.0100 C.ar  190  PHE190     -0.0200
    185  CD1      -16.1900    2.0800   13.1260 C.ar  190  PHE190     -0.0042
    186  CD2      -14.9230    1.6940   15.1070 C.ar  190  PHE190     -0.0042
    187  CE1      -16.8770    0.9020   13.3310 C.ar  190  PHE190     -0.0003
    188  CE2      -15.6090    0.5100   15.3160 C.ar  190  PHE190     -0.0003
    189  CZ       -16.5860    0.1150   14.4260 C.ar  190  PHE190     -0.0000
    190  N        -13.9160    6.8630   13.2570 N.am  191  GLY191     -0.1940
    191  CA       -13.0870    8.0530   13.3470 C.3   191  GLY191      0.2014
    192  C        -11.8560    7.8650   14.2120 C.2   191  GLY191      0.2638
    193  O        -10.9770    7.0660   13.8830 O.2   191  GLY191     -0.2714
    194  N        -11.8100    8.5970   15.3250 N.am  192  LEU192     -0.1977
    195  CA       -10.7290    8.4980   16.3060 C.3   192  LEU192      0.1596
    196  C        -10.4750    7.0590   16.7600 C.2   192  LEU192      0.2287
    197  O         -9.3550    6.7020   17.1290 O.2   192  LEU192     -0.2864
    198  CB       -11.0460    9.3450   17.5470 C.3   192  LEU192      0.0297
    199  CG       -11.1200   10.8790   17.5270 C.3   192  LEU192      0.0022
    200  CD1       -9.8850   11.4980   16.8760 C.3   192  LEU192      0.0001
    201  CD2      -12.4020   11.3790   16.8730 C.3   192  LEU192      0.0001
@<TRIPOS>BOND
     1    30    28    1
     2    28    27    2
     3    28    29    1
     4    27    26    1
     5    23    22    2
     6    26    25    1
     7    25    24    1
     8    22    21    1
     9    22    31   am
    10    33    32    1
    11    33    34    2
    12    32    31    1
    13    32    35    1
    14    21    24    1
    15    21    20    1
    16    37    36   ar
    17    37    39   ar
    18    35    36    1
    19    36    38   ar
    20    39    40   ar
    21    16    15    2
    22   170   169    2
    23   158   156   ar
    24   177   176   ar
    25   153   154    2
    26   153   152    1
    27    40    38   ar
    28    40    42   ar
    29    38    41   ar
    30   167   168    1
    31   176   178   ar
    32   176   175    1
    33    20    15   am
    34    42    44   ar
    35    41    43   ar
    36   159   160    1
    37    15    14    1
    38   169   168    1
    39   169   171   am
    40   156   155    1
    41   156   157   ar
    42    44    43   ar
    43   175   172    1
    44   155   152    1
    45   162   161    2
    46   152   151    1
    47   172   171    1
    48   172   173    1
    49   161   160    1
    50   160   163    1
    51    14    13    1
    52    14    17    1
    53    19    17    1
    54   151   149   am
    55   150   149    2
    56    17    18    1
    57   179   173   am
    58   179   180    1
    59     3     2    1
    60     3     4    2
    61   173   174    2
    62   166   164    1
    63     2     1    1
    64     2     5    1
    65   185   187   ar
    66   185   184   ar
    67    89    87    1
    68    90    88    1
    69    10     8   ar
    70    10    11   ar
    71   190   191    1
    72   190   181   am
    73   187   189   ar
    74    12    11    1
    75   163   164    1
    76   191   192    1
    77   149   148    1
    78     8     6   ar
    79    11     9   ar
    80    99   100    1
    81   183   184    1
    82   183   180    1
    83   193   192    2
    84   164   165    1
    85    88    87    1
    86     6     5    1
    87     6     7   ar
    88   184   186   ar
    89   180   181    1
    90     9     7   ar
    91   192   194   am
    92   181   182    2
    93   105   103    1
    94    87    84    1
    95   189   188   ar
    96   148   147    1
    97    86    85    2
    98   100   103    1
    99   100   101    1
   100   186   188   ar
   101   103   104    1
   102   194   195    1
   103    84    85    1
   104    84    83    1
   105    85    91   am
   106   102   101    2
   107   146   145    1
   108   145   142    1
   109    91    92    1
   110   195   196    1
   111   195   198    1
   112    92    93    1
   113    92    95    1
   114    73    72    1
   115    96    95    1
   116    96    97    1
   117   196   197    2
   118    94    93    2
   119    79    80    1
   120    79    78    1
   121   201   199    1
   122   200   199    1
   123    81    80   ar
   124    80    82   ar
   125    75    78    1
   126    75    74    1
   127    75    76    1
   128   128   126   ar
   129    77    76    2
   130    98    97    1
   131   144   143    2
   132   199   198    1
   133   142   143    1
   134   142   141    1
   135    72    71    1
   136    48    47    2
   137   126   127   ar
   138   126   125    1
   139   141   131   am
   140    71    70    1
   141    47    46    1
   142   124   125    1
   143   124   121    1
   144    59    57    1
   145   123   122    2
   146   132   131    2
   147   131   130    1
   148   119   117    1
   149   117   118    1
   150   117   114    1
   151    57    58    1
   152    57    54    1
   153    70    69    1
   154   122   121    1
   155   122   129   am
   156    49    46    1
   157    49    50    1
   158    46    45    1
   159   121   120    1
   160   120   115   am
   161   130   129    1
   162   130   133    1
   163    53    54    1
   164    69    66    1
   165    52    50    1
   166    51    50    1
   167    64    61    1
   168    54    55    1
   169   114   115    1
   170   114   113    1
   171   115   116    2
   172   111   110    1
   173   140   139    1
   174   139   138   ar
   175   139   137   ar
   176   138   136   ar
   177   137   135   ar
   178   136   134   ar
   179   135   134   ar
   180    56    55    2
   181   134   133    1
   182    66    65    1
   183    66    67    1
   184   110   112    1
   185   110   107    1
   186    61    62    1
   187    61    60    1
   188    63    62    2
   189    67    68    2
   190   109   108    2
   191   108   107    1
   192   107   106    1
