@<TRIPOS>MOLECULE
tmp/4r7iA00.pdb
 219 208 0 0 0
SMALL
GASTEIGER

@<TRIPOS>ATOM
      1  N         29.3270   18.9470   69.4970 N.3    22  LEU22      -0.1245
      2  CA        29.0380   18.2710   70.7580 C.3    22  LEU22       0.1561
      3  C         29.5110   19.0860   71.9590 C.2    22  LEU22       0.2260
      4  O         29.0510   18.8850   73.0830 O.2    22  LEU22      -0.2867
      5  CB        29.7020   16.8950   70.7720 C.3    22  LEU22       0.0270
      6  CG        29.3340   15.9900   69.5970 C.3    22  LEU22       0.0019
      7  CD1       30.1500   14.7020   69.6170 C.3    22  LEU22       0.0001
      8  CD2       27.8430   15.6930   69.6120 C.3    22  LEU22       0.0001
      9  N         34.5850   19.9520   69.8220 N.3    30  VAL30      -0.1245
     10  CA        34.3560   18.5720   69.4330 C.3    30  VAL30       0.1561
     11  C         33.1210   18.5190   68.5490 C.2    30  VAL30       0.2260
     12  O         32.0780   19.0760   68.8890 O.2    30  VAL30      -0.2867
     13  CB        34.1680   17.6600   70.6540 C.3    30  VAL30       0.0252
     14  CG1       33.6380   16.3010   70.2310 C.3    30  VAL30       0.0019
     15  CG2       35.4800   17.5130   71.4000 C.3    30  VAL30       0.0019
     16  N         33.4210   11.0030   67.3330 N.3    48  ALA48      -0.1231
     17  CA        33.6580   12.3510   67.8390 C.3    48  ALA48       0.1694
     18  C         34.9910   12.8470   67.2910 C.2    48  ALA48       0.2592
     19  O         35.9720   12.0980   67.2550 O.2    48  ALA48      -0.2718
     20  CB        33.6730   12.3540   69.3570 C.3    48  ALA48       0.0304
     21  N         35.0230   14.1020   66.8540 N.am   49  VAL49      -0.1966
     22  CA        36.2350   14.6760   66.2810 C.3    49  VAL49       0.1727
     23  C         36.6190   15.9830   66.9700 C.2    49  VAL49       0.2616
     24  O         35.9000   16.9740   66.8710 O.2    49  VAL49      -0.2715
     25  CB        36.0650   14.9460   64.7680 C.3    49  VAL49       0.0290
     26  CG1       37.3560   15.5010   64.1680 C.3    49  VAL49       0.0023
     27  CG2       35.6370   13.6800   64.0440 C.3    49  VAL49       0.0023
     28  N         37.7510   15.9830   67.6680 N.am   50  LYS50      -0.1977
     29  CA        38.2640   17.2060   68.2780 C.3    50  LYS50       0.1596
     30  C         39.1280   17.9740   67.2870 C.2    50  LYS50       0.2287
     31  O         39.9370   17.3880   66.5670 O.2    50  LYS50      -0.2864
     32  CB        39.0670   16.9000   69.5450 C.3    50  LYS50       0.0298
     33  CG        39.5460   18.1470   70.2780 C.3    50  LYS50       0.0038
     34  CD        40.1980   17.8180   71.6140 C.3    50  LYS50       0.0206
     35  CE        39.1700   17.3480   72.6290 C.3    50  LYS50       0.1093
     36  NZ        39.7980   17.0510   73.9470 N.3    50  LYS50      -0.1314
     37  N         48.1880   15.7480   73.2350 N.3    67  GLU67      -0.1245
     38  CA        47.0290   14.9730   73.6440 C.3    67  GLU67       0.1567
     39  C         46.8960   13.7230   72.7780 C.2    67  GLU67       0.2260
     40  O         46.6560   12.6300   73.2840 O.2    67  GLU67      -0.2867
     41  CB        45.7660   15.8290   73.5480 C.3    67  GLU67       0.0388
     42  CG        44.5060   15.1260   74.0020 C.3    67  GLU67       0.1160
     43  CD        43.2960   16.0370   73.9900 C.2    67  GLU67       0.3649
     44  OE1       43.4390   17.2130   73.5990 O.co2  67  GLU67      -0.2457
     45  OE2       42.2020   15.5760   74.3730 O.co2  67  GLU67      -0.2457
     46  N         49.7060   11.2470   73.6510 N.3    70  ILE70      -0.1231
     47  CA        49.4080   10.6060   74.9270 C.3    70  ILE70       0.1692
     48  C         48.3780    9.4920   74.7600 C.2    70  ILE70       0.2591
     49  O         48.5720    8.3800   75.2480 O.2    70  ILE70      -0.2718
     50  CB        48.9070   11.6310   75.9650 C.3    70  ILE70       0.0266
     51  CG1       50.0260   12.6080   76.3250 C.3    70  ILE70       0.0019
     52  CG2       48.3990   10.9310   77.2160 C.3    70  ILE70       0.0020
     53  CD1       49.6040   13.6840   77.2950 C.3    70  ILE70       0.0001
     54  N         47.2920    9.7950   74.0570 N.am   71  MET71      -0.1979
     55  CA        46.2330    8.8200   73.8200 C.3    71  MET71       0.1605
     56  C         46.7370    7.5640   73.1090 C.2    71  MET71       0.2287
     57  O         46.2340    6.4680   73.3440 O.2    71  MET71      -0.2864
     58  CB        45.0870    9.4610   73.0360 C.3    71  MET71       0.0413
     59  CG        44.3760   10.5640   73.8050 C.3    71  MET71       0.0598
     60  SD        43.0800   11.3900   72.8610 S.3    71  MET71      -0.1393
     61  CE        41.8850   10.0650   72.6900 C.3    71  MET71       0.0692
     62  N         48.7310    5.5750   75.8110 N.3    74  LEU74      -0.1245
     63  CA        47.8770    4.9760   76.8340 C.3    74  LEU74       0.1561
     64  C         47.4690    3.5400   76.5290 C.2    74  LEU74       0.2260
     65  O         47.5140    2.6720   77.4020 O.2    74  LEU74      -0.2867
     66  CB        46.6170    5.8220   77.0330 C.3    74  LEU74       0.0270
     67  CG        46.8070    7.1670   77.7240 C.3    74  LEU74       0.0019
     68  CD1       45.5010    7.9480   77.7560 C.3    74  LEU74       0.0001
     69  CD2       47.3430    6.9440   79.1250 C.3    74  LEU74       0.0001
     70  N         37.6720    4.0340   79.1090 N.3    80  ILE80      -0.1231
     71  CA        38.1820    5.3430   78.7220 C.3    80  ILE80       0.1692
     72  C         37.6420    5.6780   77.3390 C.2    80  ILE80       0.2591
     73  O         37.1350    4.8030   76.6310 O.2    80  ILE80      -0.2718
     74  CB        39.7220    5.4010   78.6970 C.3    80  ILE80       0.0266
     75  CG1       40.2810    4.5040   77.5910 C.3    80  ILE80       0.0019
     76  CG2       40.3010    5.0250   80.0540 C.3    80  ILE80       0.0020
     77  CD1       41.7910    4.5170   77.5100 C.3    80  ILE80       0.0001
     78  N         37.7290    6.9480   76.9630 N.am   81  VAL81      -0.1980
     79  CA        37.3460    7.3550   75.6200 C.3    81  VAL81       0.1595
     80  C         38.4940    7.0390   74.6790 C.2    81  VAL81       0.2287
     81  O         39.5250    7.7090   74.6950 O.2    81  VAL81      -0.2864
     82  CB        37.0180    8.8500   75.5480 C.3    81  VAL81       0.0276
     83  CG1       36.6480    9.2350   74.1270 C.3    81  VAL81       0.0022
     84  CG2       35.8870    9.1840   76.5060 C.3    81  VAL81       0.0022
     85  N         41.5190   14.9560   65.7450 N.3    95  VAL95      -0.1245
     86  CA        41.6100   13.8020   66.6320 C.3    95  VAL95       0.1561
     87  C         40.2610   13.0890   66.7020 C.2    95  VAL95       0.2260
     88  O         39.2520   13.6880   67.0710 O.2    95  VAL95      -0.2867
     89  CB        42.0770   14.2130   68.0450 C.3    95  VAL95       0.0252
     90  CG1       42.2090   12.9910   68.9400 C.3    95  VAL95       0.0019
     91  CG2       43.4000   14.9690   67.9640 C.3    95  VAL95       0.0019
     92  N         37.7280   10.0840   68.0660 N.3    97  THR97      -0.1203
     93  CA        37.4880    9.1390   69.1480 C.3    97  THR97       0.1994
     94  C         36.1270    8.4570   69.0330 C.2    97  THR97       0.2618
     95  O         35.3750    8.7000   68.0900 O.2    97  THR97      -0.2717
     96  CB        37.5910    9.8220   70.5270 C.3    97  THR97       0.1784
     97  OG1       36.5560   10.8030   70.6610 O.3    97  THR97      -0.2211
     98  CG2       38.9450   10.4920   70.6890 C.3    97  THR97       0.0376
     99  N         35.8260    7.5950   69.9990 N.am   98  GLU98      -0.1965
    100  CA        34.5220    6.9510   70.0810 C.3    98  GLU98       0.1733
    101  C         33.4320    7.9970   70.2880 C.2    98  GLU98       0.2616
    102  O         33.6590    9.0080   70.9520 O.2    98  GLU98      -0.2715
    103  CB        34.4900    5.9640   71.2510 C.3    98  GLU98       0.0429
    104  CG        35.4620    4.8030   71.1380 C.3    98  GLU98       0.1163
    105  CD        35.4880    3.9470   72.3930 C.2    98  GLU98       0.3649
    106  OE1       35.0130    2.7930   72.3380 O.co2  98  GLU98      -0.2457
    107  OE2       35.9830    4.4290   73.4330 O.co2  98  GLU98      -0.2457
    108  N         32.2540    7.7540   69.7180 N.am   99  TYR99      -0.1960
    109  CA        31.0880    8.5920   69.9860 C.3    99  TYR99       0.1771
    110  C         30.2530    7.9750   71.1020 C.2    99  TYR99       0.2619
    111  O         29.8890    6.7990   71.0340 O.2    99  TYR99      -0.2715
    112  CB        30.2330    8.7620   68.7280 C.3    99  TYR99       0.0574
    113  CG        28.9640    9.5610   68.9470 C.ar   99  TYR99      -0.0198
    114  CD1       28.9640   10.9470   68.8410 C.ar   99  TYR99      -0.0009
    115  CD2       27.7620    8.9280   69.2510 C.ar   99  TYR99      -0.0009
    116  CE1       27.8070   11.6800   69.0370 C.ar   99  TYR99       0.0417
    117  CE2       26.6010    9.6520   69.4500 C.ar   99  TYR99       0.0417
    118  CZ        26.6290   11.0280   69.3420 C.ar   99  TYR99       0.1957
    119  OH        25.4730   11.7520   69.5400 O.3    99  TYR99      -0.2866
    120  N         29.9470    8.7690   72.1240 N.am  100  CYS100     -0.1968
    121  CA        29.1940    8.2760   73.2760 C.3   100  CYS100      0.1712
    122  C         27.7500    8.7760   73.2650 C.2   100  CYS100      0.2296
    123  O         27.4820    9.9460   73.5360 O.2   100  CYS100     -0.2864
    124  CB        29.8930    8.6680   74.5760 C.3   100  CYS100      0.0983
    125  SG        31.5870    8.0340   74.7060 S.3   100  CYS100     -0.0798
    126  N         26.1780   11.2440   76.0240 N.3   103  GLY103     -0.1210
    127  CA        26.8980   12.4370   76.4280 C.3   103  GLY103      0.1956
    128  C         27.5360   12.3270   77.8010 C.2   103  GLY103      0.2611
    129  O         27.7520   11.2290   78.3140 O.2   103  GLY103     -0.2717
    130  N         27.8370   13.4740   78.4000 N.am  104  ASP104     -0.1973
    131  CA        28.5090   13.4960   79.6920 C.3   104  ASP104      0.1709
    132  C         27.6040   13.0200   80.8300 C.2   104  ASP104      0.2293
    133  O         26.3870   13.2190   80.8030 O.2   104  ASP104     -0.2864
    134  CB        29.0680   14.8870   79.9910 C.3   104  ASP104      0.1436
    135  CG        27.9870   15.8930   80.3080 C.2   104  ASP104      0.3671
    136  OD1       27.3330   16.3840   79.3630 O.co2 104  ASP104     -0.2456
    137  OD2       27.7980   16.1970   81.5050 O.co2 104  ASP104     -0.2456
    138  N         44.4700    4.0210   83.8100 N.3   145  LEU145     -0.1245
    139  CA        45.3220    5.1780   83.5850 C.3   145  LEU145      0.1561
    140  C         46.4510    5.1960   84.6010 C.2   145  LEU145      0.2260
    141  O         47.5810    5.5540   84.2790 O.2   145  LEU145     -0.2867
    142  CB        44.5150    6.4770   83.6730 C.3   145  LEU145      0.0270
    143  CG        43.4870    6.7560   82.5730 C.3   145  LEU145      0.0019
    144  CD1       42.9950    8.1910   82.6620 C.3   145  LEU145      0.0001
    145  CD2       44.0710    6.4750   81.1980 C.3   145  LEU145      0.0001
    146  N         49.7130    7.6040   84.3630 N.3   150  CYS150     -0.1221
    147  CA        49.0630    8.7340   83.7030 C.3   150  CYS150      0.1808
    148  C         48.1570    9.5160   84.6590 C.2   150  CYS150      0.2601
    149  O         47.1990    8.9680   85.2040 O.2   150  CYS150     -0.2717
    150  CB        48.2530    8.2290   82.5050 C.3   150  CYS150      0.0970
    151  SG        47.3990    9.5060   81.5540 S.3   150  CYS150     -0.0800
    152  N         48.4570   10.7970   84.8540 N.am  151  ILE151     -0.1965
    153  CA        47.6980   11.6200   85.7930 C.3   151  ILE151      0.1727
    154  C         46.6450   12.4560   85.0750 C.2   151  ILE151      0.2616
    155  O         46.9610   13.2400   84.1820 O.2   151  ILE151     -0.2715
    156  CB        48.6170   12.5580   86.6000 C.3   151  ILE151      0.0290
    157  CG1       49.8410   11.7990   87.1080 C.3   151  ILE151      0.0022
    158  CG2       47.8560   13.1880   87.7560 C.3   151  ILE151      0.0023
    159  CD1       49.5000   10.6110   87.9610 C.3   151  ILE151      0.0001
    160  N         45.3930   12.2970   85.4790 N.am  152  HIS152     -0.1959
    161  CA        44.2880   12.9360   84.7790 C.3   152  HIS152      0.1787
    162  C         44.1650   14.4330   85.0820 C.2   152  HIS152      0.2620
    163  O         44.0420   15.2500   84.1630 O.2   152  HIS152     -0.2715
    164  CB        42.9820   12.2190   85.1060 C.3   152  HIS152      0.0785
    165  CG        41.8620   12.5720   84.1850 C.ar  152  HIS152      0.0821
    166  ND1       41.1830   13.7670   84.2650 N.ar  152  HIS152     -0.2267
    167  CD2       41.3050   11.8890   83.1580 C.ar  152  HIS152      0.1154
    168  CE1       40.2520   13.8050   83.3290 C.ar  152  HIS152      0.1986
    169  NE2       40.3050   12.6770   82.6440 N.ar  152  HIS152     -0.2212
    170  N         44.1810   14.7640   86.3750 N.am  153  ARG153     -0.1977
    171  CA        44.1290   16.1450   86.8830 C.3   153  ARG153      0.1597
    172  C         42.8040   16.8970   86.7090 C.2   153  ARG153      0.2287
    173  O         42.7190   18.0790   87.0390 O.2   153  ARG153     -0.2864
    174  CB        45.2900   16.9860   86.3420 C.3   153  ARG153      0.0334
    175  CG        46.6530   16.4200   86.6690 C.3   153  ARG153      0.0492
    176  CD        47.7070   17.0060   85.7530 C.3   153  ARG153      0.2205
    177  NE        47.8700   18.4420   85.9540 N.pl3 153  ARG153     -0.0865
    178  CZ        49.0480   19.0560   86.0120 C.cat 153  ARG153      0.5346
    179  NH1       50.1690   18.3560   85.8840 N.pl3 153  ARG153      0.1354
    180  NH2       49.1070   20.3680   86.2010 N.pl3 153  ARG153      0.1354
    181  N         31.8590   10.1620   80.0470 N.3   161  LEU161     -0.1245
    182  CA        30.8890    9.9730   78.9680 C.3   161  LEU161      0.1561
    183  C         30.1930    8.6170   79.0350 C.2   161  LEU161      0.2260
    184  O         30.8070    7.6110   79.3860 O.2   161  LEU161     -0.2867
    185  CB        31.5650   10.1310   77.6080 C.3   161  LEU161      0.0270
    186  CG        32.1590   11.5030   77.3030 C.3   161  LEU161      0.0019
    187  CD1       33.0560   11.4160   76.0870 C.3   161  LEU161      0.0001
    188  CD2       31.0530   12.5170   77.0800 C.3   161  LEU161      0.0001
    189  N         35.8720    7.4700   81.1170 N.3   170  ILE170     -0.1231
    190  CA        36.5300    8.6920   81.5650 C.3   170  ILE170      0.1692
    191  C         37.2560    9.3650   80.4010 C.2   170  ILE170      0.2593
    192  O         37.9870    8.7150   79.6520 O.2   170  ILE170     -0.2718
    193  CB        37.4880    8.4330   82.7550 C.3   170  ILE170      0.0266
    194  CG1       38.2220    9.7200   83.1440 C.3   170  ILE170      0.0019
    195  CG2       38.4590    7.3000   82.4480 C.3   170  ILE170      0.0020
    196  CD1       37.3150   10.7850   83.7330 C.3   170  ILE170      0.0001
    197  N         37.0250   10.6640   80.2370 N.am  171  GLY171     -0.1942
    198  CA        37.6330   11.4210   79.1570 C.3   171  GLY171      0.2014
    199  C         38.1770   12.7570   79.6270 C.2   171  GLY171      0.2639
    200  O         38.3250   12.9920   80.8260 O.2   171  GLY171     -0.2714
    201  N         38.4810   13.6350   78.6790 N.am  172  ASP172     -0.1957
    202  CA        38.9420   14.9760   79.0080 C.3   172  ASP172      0.1840
    203  C         38.6250   15.9480   77.8760 C.2   172  ASP172      0.2622
    204  O         39.1830   15.8420   76.7840 O.2   172  ASP172     -0.2715
    205  CB        40.4420   14.9760   79.3010 C.3   172  ASP172      0.1450
    206  CG        40.9120   16.2820   79.9040 C.2   172  ASP172      0.3671
    207  OD1       40.1970   16.8240   80.7750 O.co2 172  ASP172     -0.2456
    208  OD2       41.9870   16.7730   79.5020 O.co2 172  ASP172     -0.2456
    209  N         37.7290   16.8950   78.1430 N.am  173  PHE173     -0.1974
    210  CA        37.2940   17.8480   77.1260 C.3   173  PHE173      0.1639
    211  C         38.4110   18.7780   76.6630 C.2   173  PHE173      0.2290
    212  O         38.4370   19.1930   75.5030 O.2   173  PHE173     -0.2864
    213  CB        36.1030   18.6650   77.6260 C.3   173  PHE173      0.0560
    214  CG        34.7770   18.0100   77.3780 C.ar  173  PHE173     -0.0200
    215  CD1       34.4570   16.8070   77.9870 C.ar  173  PHE173     -0.0042
    216  CD2       33.8500   18.5960   76.5300 C.ar  173  PHE173     -0.0042
    217  CE1       33.2360   16.2020   77.7570 C.ar  173  PHE173     -0.0003
    218  CE2       32.6260   17.9960   76.2960 C.ar  173  PHE173     -0.0003
    219  CZ        32.3190   16.7970   76.9120 C.ar  173  PHE173     -0.0000
@<TRIPOS>BOND
     1    27    25    1
     2    26    25    1
     3    25    22    1
     4    85    86    1
     5    22    21    1
     6    22    23    1
     7    31    30    2
     8    86    87    1
     9    86    89    1
    10    87    88    2
    11    21    18   am
    12    24    23    2
    13    23    28   am
    14    19    18    2
    15    30    29    1
    16    18    17    1
    17    16    17    1
    18    28    29    1
    19    17    20    1
    20    91    89    1
    21    89    90    1
    22    92    93    1
    23    95    94    2
    24    29    32    1
    25    11    12    2
    26    11    10    1
    27   112   113    1
    28   112   109    1
    29   114   113   ar
    30   114   116   ar
    31   113   115   ar
    32    94    93    1
    33    94    99   am
    34   116   118   ar
    35    93    96    1
    36   115   117   ar
    37   118   117   ar
    38   118   119    1
    39    10     9    1
    40    10    13    1
    41     1     2    1
    42    32    33    1
    43     6     8    1
    44     6     7    1
    45     6     5    1
    46   108   109    1
    47   108   101   am
    48   109   110    1
    49    99   100    1
    50   100   101    1
    51   100   103    1
    52    14    13    1
    53    33    34    1
    54   101   102    2
    55    96    97    1
    56    96    98    1
    57    13    15    1
    58     2     5    1
    59     2     3    1
    60   111   110    2
    61   110   120   am
    62   104   103    1
    63   104   105    1
    64    34    35    1
    65     3     4    2
    66   120   121    1
    67   106   105   ar
    68   105   107   ar
    69    35    36    1
    70    61    60    1
    71    39    40    2
    72    39    38    1
    73    60    59    1
    74    58    59    1
    75    58    55    1
    76    56    57    2
    77    56    55    1
    78    37    38    1
    79   122   121    1
    80   122   123    2
    81   121   124    1
    82    41    38    1
    83    41    42    1
    84    44    43   ar
    85    46    47    1
    86    55    54    1
    87    43    42    1
    88    43    45   ar
    89    54    48   am
    90    83    82    1
    91   124   125    1
    92    80    81    2
    93    80    79    1
    94    48    47    1
    95    48    49    2
    96    47    50    1
    97   212   211    2
    98    82    79    1
    99    82    84    1
   100    79    78    1
   101    62    63    1
   102    50    51    1
   103    50    52    1
   104   126   127    1
   105   187   186    1
   106   218   216   ar
   107   218   219   ar
   108    51    53    1
   109   127   128    1
   110    64    63    1
   111    64    65    2
   112   216   214   ar
   113    73    72    2
   114   211   210    1
   115   204   203    2
   116    63    66    1
   117   219   217   ar
   118    78    72   am
   119    66    67    1
   120   188   186    1
   121   210   213    1
   122   210   209    1
   123   186   185    1
   124    72    71    1
   125   214   213    1
   126   214   215   ar
   127    77    75    1
   128    75    74    1
   129   185   182    1
   130    67    68    1
   131    67    69    1
   132   217   215   ar
   133   128   129    2
   134   128   130   am
   135   203   209   am
   136   203   202    1
   137   130   131    1
   138   201   202    1
   139   201   199   am
   140    74    71    1
   141    74    76    1
   142    71    70    1
   143   182   183    1
   144   182   181    1
   145   202   205    1
   146   183   184    2
   147   198   199    1
   148   198   197    1
   149   205   206    1
   150   136   135   ar
   151   208   206   ar
   152   199   200    2
   153   192   191    2
   154   131   134    1
   155   131   132    1
   156   206   207   ar
   157   134   135    1
   158   197   191   am
   159   135   137   ar
   160   191   190    1
   161   133   132    2
   162   189   190    1
   163   145   143    1
   164   151   150    1
   165   190   193    1
   166   195   193    1
   167   150   147    1
   168   143   144    1
   169   143   142    1
   170   169   167   ar
   171   169   168   ar
   172   193   194    1
   173   194   196    1
   174   167   165   ar
   175   168   166   ar
   176   139   142    1
   177   139   138    1
   178   139   140    1
   179   147   146    1
   180   147   148    1
   181   163   162    2
   182   155   154    2
   183   165   166   ar
   184   165   164    1
   185   141   140    2
   186   148   152   am
   187   148   149    2
   188   161   162    1
   189   161   164    1
   190   161   160    1
   191   152   153    1
   192   154   160   am
   193   154   153    1
   194   162   170   am
   195   176   177    1
   196   176   175    1
   197   153   156    1
   198   179   178    1
   199   177   178    2
   200   178   180    1
   201   174   175    1
   202   174   171    1
   203   170   171    1
   204   156   157    1
   205   156   158    1
   206   172   171    1
   207   172   173    2
   208   157   159    1
