@<TRIPOS>MOLECULE
tmp/4r7lA00.pdb
 189 186 0 0 0
SMALL
GASTEIGER

@<TRIPOS>ATOM
      1  N        -35.3760    2.4130   -8.5100 N.3   132  GLN132     -0.1245
      2  CA       -34.8050    1.8770   -7.2480 C.3   132  GLN132      0.1566
      3  C        -33.6740    2.8230   -6.8550 C.2   132  GLN132      0.2260
      4  O        -32.5540    2.7550   -7.4280 O.2   132  GLN132     -0.2867
      5  CB       -34.3270    0.4510   -7.4320 C.3   132  GLN132      0.0367
      6  CG       -33.5390   -0.1390   -6.2670 C.3   132  GLN132      0.0905
      7  CD       -34.3400   -0.0330   -4.9690 C.2   132  GLN132      0.2608
      8  OE1      -35.5440   -0.3220   -4.9160 O.2   132  GLN132     -0.2717
      9  NE2      -33.6600    0.3560   -3.8630 N.am  132  GLN132     -0.0878
     10  N        -32.4590    3.5080   -3.5120 N.3   134  GLN134     -0.1231
     11  CA       -31.5400    3.1690   -2.4420 C.3   134  GLN134      0.1698
     12  C        -30.3530    2.3890   -3.0050 C.2   134  GLN134      0.2592
     13  O        -30.6380    1.4600   -3.8210 O.2   134  GLN134     -0.2718
     14  CB       -32.2740    2.4280   -1.3150 C.3   134  GLN134      0.0381
     15  CG       -31.4860    2.4780   -0.0350 C.3   134  GLN134      0.0905
     16  CD       -32.1970    1.7650    1.0960 C.2   134  GLN134      0.2608
     17  OE1      -33.2400    1.2130    0.9690 O.2   134  GLN134     -0.2717
     18  NE2      -31.6160    1.8360    2.2480 N.am  134  GLN134     -0.0878
     19  N        -29.1190    2.6930   -2.6350 N.am  135  ALA135     -0.1980
     20  CA       -28.6840    3.7600   -1.7140 C.3   135  ALA135      0.1597
     21  C        -28.5080    5.0870   -2.3750 C.2   135  ALA135      0.2287
     22  O        -29.0270    6.0740   -1.9040 O.2   135  ALA135     -0.2864
     23  CB       -27.4030    3.3040   -1.0130 C.3   135  ALA135      0.0319
     24  N        -34.6000   -6.5870   -5.5030 N.3   265  TYR265     -0.1227
     25  CA       -34.6740   -6.9030   -4.0920 C.3   265  TYR265      0.1736
     26  C        -36.0280   -7.5170   -3.6990 C.2   265  TYR265      0.2596
     27  O        -37.0050   -7.4360   -4.3970 O.2   265  TYR265     -0.2718
     28  CB       -34.4240   -5.6100   -3.3410 C.3   265  TYR265      0.0548
     29  CG       -33.1010   -4.9510   -3.5960 C.ar  265  TYR265     -0.0200
     30  CD1      -31.9070   -5.5160   -3.0930 C.ar  265  TYR265     -0.0009
     31  CD2      -32.9990   -3.8090   -4.2780 C.ar  265  TYR265     -0.0009
     32  CE1      -30.6790   -4.9180   -3.3320 C.ar  265  TYR265      0.0417
     33  CE2      -31.7680   -3.1890   -4.4990 C.ar  265  TYR265      0.0417
     34  CZ       -30.5990   -3.7530   -4.0320 C.ar  265  TYR265      0.1957
     35  OH       -29.3890   -3.1420   -4.2370 O.3   265  TYR265     -0.2866
     36  N        -36.0620   -8.1510   -2.5370 N.am  266  GLY266     -0.1942
     37  CA       -37.2490   -8.7460   -2.0360 C.3   266  GLY266      0.2014
     38  C        -38.4000   -7.7040   -1.8760 C.2   266  GLY266      0.2639
     39  O        -39.5230   -7.8520   -2.2470 O.2   266  GLY266     -0.2714
     40  N        -37.9740   -6.5890   -1.2750 N.am  267  GLY267     -0.1939
     41  CA       -38.7860   -5.4590   -1.1570 C.3   267  GLY267      0.2014
     42  C        -37.9960   -4.1970   -0.9350 C.2   267  GLY267      0.2639
     43  O        -36.8180   -4.2030   -0.5740 O.2   267  GLY267     -0.2714
     44  N        -38.6720   -3.0770   -1.1810 N.am  268  MET268     -0.1963
     45  CA       -38.0990   -1.7580   -0.9450 C.3   268  MET268      0.1736
     46  C        -39.1720   -0.9120   -0.2950 C.2   268  MET268      0.2616
     47  O        -40.2890   -0.7730   -0.7910 O.2   268  MET268     -0.2715
     48  CB       -37.5490   -1.0790   -2.2250 C.3   268  MET268      0.0427
     49  CG       -37.1220    0.3450   -2.0190 C.3   268  MET268      0.0599
     50  SD       -35.6900    0.3870   -0.8970 S.3   268  MET268     -0.1393
     51  CE       -35.8750    2.0430   -0.2050 C.3   268  MET268      0.0692
     52  N        -38.8200   -0.3050    0.8270 N.am  269  GLU269     -0.1977
     53  CA       -39.7460    0.3620    1.7330 C.3   269  GLU269      0.1602
     54  C        -40.1500    1.7820    1.3110 C.2   269  GLU269      0.2287
     55  O        -40.2360    2.7140    2.1160 O.2   269  GLU269     -0.2864
     56  CB       -39.1100    0.4520    3.1570 C.3   269  GLU269      0.0415
     57  CG       -37.8880    1.3690    3.2850 C.3   269  GLU269      0.1163
     58  CD       -36.5130    0.6400    3.2060 C.2   269  GLU269      0.3649
     59  OE1      -36.4270   -0.4000    2.4840 O.co2 269  GLU269     -0.2457
     60  OE2      -35.5420    1.1790    3.7930 O.co2 269  GLU269     -0.2457
     61  N        -41.0380   -7.0140    7.1400 N.3   293  HIS293     -0.1226
     62  CA       -39.8280   -6.1860    7.0790 C.3   293  HIS293      0.1752
     63  C        -40.0940   -4.7850    6.4880 C.2   293  HIS293      0.2595
     64  O        -39.7010   -3.7700    7.0680 O.2   293  HIS293     -0.2718
     65  CB       -38.8030   -6.9610    6.2840 C.3   293  HIS293      0.0759
     66  CG       -37.4660   -6.3400    6.2230 C.ar  293  HIS293      0.0818
     67  ND1      -37.0670   -5.4120    5.2750 N.ar  293  HIS293     -0.2268
     68  CD2      -36.3920   -6.5550    7.0270 C.ar  293  HIS293      0.1154
     69  CE1      -35.7950   -5.0710    5.5360 C.ar  293  HIS293      0.1986
     70  NE2      -35.3870   -5.7530    6.5840 N.ar  293  HIS293     -0.2212
     71  N        -40.6630   -4.7680    5.2810 N.am  294  GLU294     -0.1979
     72  CA       -40.9060   -3.5130    4.7130 C.3   294  GLU294      0.1602
     73  C        -41.8420   -2.5960    5.5070 C.2   294  GLU294      0.2287
     74  O        -41.6170   -1.3930    5.6290 O.2   294  GLU294     -0.2864
     75  CB       -41.4130   -3.6500    3.2330 C.3   294  GLU294      0.0415
     76  CG       -40.5590   -4.5190    2.3520 C.3   294  GLU294      0.1163
     77  CD       -39.0560   -4.2890    2.3660 C.2   294  GLU294      0.3649
     78  OE1      -38.5730   -3.1750    2.6310 O.co2 294  GLU294     -0.2457
     79  OE2      -38.3560   -5.3050    2.1100 O.co2 294  GLU294     -0.2457
     80  N        -39.9180   -0.7960    8.3160 N.3   297  HIS297     -0.1241
     81  CA       -39.1580    0.3660    7.9140 C.3   297  HIS297      0.1621
     82  C        -39.9310    1.6930    7.9610 C.2   297  HIS297      0.2264
     83  O        -39.2910    2.7230    7.9200 O.2   297  HIS297     -0.2867
     84  CB       -38.6520    0.1750    6.4470 C.3   297  HIS297      0.0745
     85  CG       -37.3670   -0.5910    6.2520 C.ar  297  HIS297      0.0817
     86  ND1      -36.1790   -0.2660    6.8680 N.ar  297  HIS297     -0.2268
     87  CD2      -37.0910   -1.6050    5.4340 C.ar  297  HIS297      0.1154
     88  CE1      -35.2140   -1.0640    6.4570 C.ar  297  HIS297      0.1986
     89  NE2      -35.7350   -1.9060    5.5900 N.ar  297  HIS297     -0.2212
     90  N        -24.4160    6.0520    4.9540 N.3   309  TRP309     -0.1241
     91  CA       -24.5570    4.6180    4.6560 C.3   309  TRP309      0.1605
     92  C        -23.5790    3.7570    5.4450 C.2   309  TRP309      0.2264
     93  O        -23.7600    2.5910    5.5170 O.2   309  TRP309     -0.2867
     94  CB       -24.4230    4.4000    3.1190 C.3   309  TRP309      0.0550
     95  CG       -25.5440    5.1060    2.4080 C.ar  309  TRP309      0.0003
     96  CD1      -25.4710    6.1570    1.5190 C.ar  309  TRP309      0.0946
     97  CD2      -26.9330    4.7930    2.5240 C.ar  309  TRP309      0.0152
     98  NE1      -26.6990    6.4860    1.0820 N.ar  309  TRP309     -0.2442
     99  CE2      -27.6480    5.7180    1.7260 C.ar  309  TRP309      0.0810
    100  CE3      -27.6410    3.8810    3.2500 C.ar  309  TRP309      0.0012
    101  CZ2      -29.0320    5.7040    1.6350 C.ar  309  TRP309      0.0191
    102  CZ3      -29.0390    3.8790    3.1910 C.ar  309  TRP309      0.0001
    103  CH2      -29.7460    4.8280    2.3830 C.ar  309  TRP309      0.0015
    104  N        -25.8180    1.9620    7.9620 N.3   312  PHE312     -0.1241
    105  CA       -26.9050    1.1790    7.3900 C.3   312  PHE312      0.1605
    106  C        -27.5040    0.2120    8.3370 C.2   312  PHE312      0.2264
    107  O        -28.6690   -0.0740    8.2940 O.2   312  PHE312     -0.2867
    108  CB       -26.3560    0.5100    6.1170 C.3   312  PHE312      0.0534
    109  CG       -27.3550   -0.2810    5.2850 C.ar  312  PHE312     -0.0203
    110  CD1      -28.5240    0.3300    4.8190 C.ar  312  PHE312     -0.0042
    111  CD2      -27.0160   -1.5370    4.8140 C.ar  312  PHE312     -0.0042
    112  CE1      -29.4170   -0.4300    4.0230 C.ar  312  PHE312     -0.0003
    113  CE2      -27.8750   -2.2570    3.9580 C.ar  312  PHE312     -0.0003
    114  CZ       -29.0330   -1.6790    3.5340 C.ar  312  PHE312     -0.0000
    115  N        -31.3270   -1.4510    8.8510 N.3   316  GLU316     -0.1245
    116  CA       -31.6910   -2.8330    8.6090 C.3   316  GLU316      0.1567
    117  C        -31.7860   -3.7220    9.8260 C.2   316  GLU316      0.2260
    118  O        -32.6420   -4.5730    9.9410 O.2   316  GLU316     -0.2867
    119  CB       -30.8260   -3.4430    7.5110 C.3   316  GLU316      0.0388
    120  CG       -30.8590   -2.6550    6.2170 C.3   316  GLU316      0.1160
    121  CD       -32.2440   -2.6420    5.5860 C.2   316  GLU316      0.3649
    122  OE1      -33.0780   -3.5660    5.8770 O.co2 316  GLU316     -0.2457
    123  OE2      -32.4240   -1.6920    4.7490 O.co2 316  GLU316     -0.2457
    124  N        -19.5520    0.0830    8.6300 N.3   365  VAL365     -0.1245
    125  CA       -18.6120   -0.1380    7.4920 C.3   365  VAL365      0.1561
    126  C        -18.1080    1.2070    7.0490 C.2   365  VAL365      0.2260
    127  O        -18.8720    2.1520    6.9530 O.2   365  VAL365     -0.2867
    128  CB       -19.3570   -0.8040    6.3170 C.3   365  VAL365      0.0252
    129  CG1      -18.5920   -0.8310    4.9860 C.3   365  VAL365      0.0019
    130  CG2      -19.6650   -2.2160    6.6890 C.3   365  VAL365      0.0019
    131  N        -17.3510    3.1870    3.9870 N.3   367  LEU367     -0.1245
    132  CA       -17.5410    3.1670    2.5760 C.3   367  LEU367      0.1561
    133  C        -16.7310    4.1360    1.7490 C.2   367  LEU367      0.2260
    134  O        -17.0770    4.3570    0.6090 O.2   367  LEU367     -0.2867
    135  CB       -19.0710    3.3650    2.2650 C.3   367  LEU367      0.0270
    136  CG       -19.9300    2.2250    2.7880 C.3   367  LEU367      0.0019
    137  CD1      -21.4230    2.6130    2.8900 C.3   367  LEU367      0.0001
    138  CD2      -19.7860    0.9800    1.9670 C.3   367  LEU367      0.0001
    139  N        -21.6980    1.1970   -2.4070 N.3   372  PRO372     -0.2102
    140  CA       -22.5510    0.3790   -1.5290 C.3   372  PRO372      0.1504
    141  C        -23.0950   -0.9120   -2.1800 C.2   372  PRO372      0.2575
    142  O        -23.2000   -1.9260   -1.5340 O.2   372  PRO372     -0.2718
    143  CB       -23.6620    1.3550   -1.1750 C.3   372  PRO372      0.0282
    144  CG       -23.0700    2.7470   -1.3500 C.3   372  PRO372      0.0208
    145  CD       -22.1320    2.6360   -2.4600 C.3   372  PRO372      0.0893
    146  N        -23.4170   -0.8720   -3.4600 N.am  373  ASP373     -0.1974
    147  CA       -23.9960   -2.0630   -4.0620 C.3   373  ASP373      0.1708
    148  C        -23.0080   -3.2500   -4.0830 C.2   373  ASP373      0.2293
    149  O        -23.3950   -4.4150   -4.0820 O.2   373  ASP373     -0.2864
    150  CB       -24.4740   -1.7740   -5.4840 C.3   373  ASP373      0.1436
    151  CG       -25.6750   -0.8500   -5.5400 C.2   373  ASP373      0.3671
    152  OD1      -26.4550   -0.7960   -4.5440 O.co2 373  ASP373     -0.2456
    153  OD2      -25.7990   -0.1380   -6.5570 O.co2 373  ASP373     -0.2456
    154  N        -20.6850   -3.6940   -1.5900 N.3   375  ALA375     -0.1231
    155  CA       -20.4980   -4.1110   -0.2290 C.3   375  ALA375      0.1694
    156  C        -21.7720   -4.7560    0.3190 C.2   375  ALA375      0.2592
    157  O        -21.7090   -5.4560    1.3240 O.2   375  ALA375     -0.2718
    158  CB       -20.1700   -2.9170    0.6020 C.3   375  ALA375      0.0304
    159  N        -22.9260   -4.5160   -0.3030 N.am  376  TYR376     -0.1976
    160  CA       -24.2220   -5.0620    0.1680 C.3   376  TYR376      0.1639
    161  C        -24.1730   -6.5500    0.5390 C.2   376  TYR376      0.2290
    162  O        -23.7070   -7.3890   -0.2660 O.2   376  TYR376     -0.2864
    163  CB       -25.3210   -4.8330   -0.8700 C.3   376  TYR376      0.0560
    164  CG       -26.6700   -5.2780   -0.4070 C.ar  376  TYR376     -0.0198
    165  CD1      -27.3810   -4.5350    0.4980 C.ar  376  TYR376     -0.0009
    166  CD2      -27.2840   -6.4400   -0.8680 C.ar  376  TYR376     -0.0009
    167  CE1      -28.6140   -4.9290    0.9420 C.ar  376  TYR376      0.0417
    168  CE2      -28.4740   -6.8210   -0.4430 C.ar  376  TYR376      0.0417
    169  CZ       -29.2060   -6.0910    0.4370 C.ar  376  TYR376      0.1957
    170  OH       -30.4230   -6.5270    0.9000 O.3   376  TYR376     -0.2866
    171  N        -25.2900   -6.3000    7.7210 N.3   380  PRO380     -0.2102
    172  CA       -25.9780   -5.2660    8.5510 C.3   380  PRO380      0.1504
    173  C        -27.2890   -5.7560    9.1050 C.2   380  PRO380      0.2575
    174  O        -27.6850   -5.3790   10.2230 O.2   380  PRO380     -0.2718
    175  CB       -26.2030   -4.1050    7.5500 C.3   380  PRO380      0.0282
    176  CG       -26.0060   -4.7140    6.2170 C.3   380  PRO380      0.0208
    177  CD       -24.9940   -5.8070    6.3960 C.3   380  PRO380      0.0893
    178  N        -27.9680   -6.6380    8.3700 N.am  381  TYR381     -0.1977
    179  CA       -29.1970   -7.2720    8.7340 C.3   381  TYR381      0.1639
    180  C        -28.9970   -8.1400    9.9480 C.2   381  TYR381      0.2290
    181  O        -29.7430   -8.0200   10.9050 O.2   381  TYR381     -0.2864
    182  CB       -29.7640   -8.1380    7.6460 C.3   381  TYR381      0.0560
    183  CG       -30.1740   -7.2920    6.3850 C.ar  381  TYR381     -0.0198
    184  CD1      -29.2340   -6.9390    5.4430 C.ar  381  TYR381     -0.0009
    185  CD2      -31.4980   -6.9220    6.1940 C.ar  381  TYR381     -0.0009
    186  CE1      -29.5880   -6.1440    4.3680 C.ar  381  TYR381      0.0417
    187  CE2      -31.8760   -6.2040    5.1010 C.ar  381  TYR381      0.0417
    188  CZ       -30.9100   -5.8470    4.1550 C.ar  381  TYR381      0.1957
    189  OH       -31.2460   -5.0470    3.0560 O.3   381  TYR381     -0.2866
@<TRIPOS>BOND
     1     1     2    1
     2     5     2    1
     3     5     6    1
     4     4     3    2
     5     2     3    1
     6   153   151   ar
     7     6     7    1
     8   151   150    1
     9   151   152   ar
    10    24    25    1
    11   150   147    1
    12     7     8    2
    13     7     9   am
    14    33    31   ar
    15    33    34   ar
    16    27    26    2
    17    31    29   ar
    18    35    34    1
    19    25    26    1
    20    25    28    1
    21   148   149    2
    22   148   147    1
    23   147   146    1
    24    34    32   ar
    25    13    12    2
    26    26    36   am
    27    29    28    1
    28    29    30   ar
    29    10    11    1
    30   146   141   am
    31    32    30   ar
    32    12    19   am
    33    12    11    1
    34    19    20    1
    35    36    37    1
    36   145   139    1
    37   145   144    1
    38    11    14    1
    39   139   140    1
    40    21    22    2
    41    21    20    1
    42    39    38    2
    43    48    49    1
    44    48    45    1
    45   141   142    2
    46   141   140    1
    47    37    38    1
    48    49    50    1
    49    38    40   am
    50    20    23    1
    51   154   155    1
    52   140   143    1
    53   144   143    1
    54    14    15    1
    55    40    41    1
    56    44    45    1
    57    44    42   am
    58    41    42    1
    59    45    46    1
    60    42    43    2
    61    50    51    1
    62   163   164    1
    63   163   160    1
    64   166   168   ar
    65   166   164   ar
    66    47    46    2
    67   168   169   ar
    68   164   165   ar
    69   159   160    1
    70   159   156   am
    71    46    52   am
    72   162   161    2
    73   155   156    1
    74   155   158    1
    75    15    16    1
    76   160   161    1
    77   156   157    2
    78   169   170    1
    79   169   167   ar
    80   165   167   ar
    81   134   133    2
    82    52    53    1
    83    17    16    2
    84    98    96   ar
    85    98    99   ar
    86    16    18   am
    87    54    53    1
    88    54    55    2
    89    96    95   ar
    90   101    99   ar
    91   101   103   ar
    92    99    97   ar
    93    53    56    1
    94   133   132    1
    95   138   136    1
    96    79    77   ar
    97   135   132    1
    98   135   136    1
    99    76    77    1
   100    76    75    1
   101    77    78   ar
   102   103   102   ar
   103    95    97   ar
   104    95    94    1
   105    59    58   ar
   106    97   100   ar
   107   132   131    1
   108   136   137    1
   109   189   188    1
   110    94    91    1
   111    56    57    1
   112   102   100   ar
   113    58    57    1
   114    58    60   ar
   115    75    72    1
   116   114   113   ar
   117   114   112   ar
   118   113   111   ar
   119   112   110   ar
   120   188   186   ar
   121   188   187   ar
   122   186   184   ar
   123    91    90    1
   124    91    92    1
   125    72    71    1
   126    72    73    1
   127   123   121   ar
   128   111   109   ar
   129   110   109   ar
   130   129   128    1
   131   187   185   ar
   132    67    69   ar
   133    67    66   ar
   134    71    63   am
   135   109   108    1
   136    87    89   ar
   137    87    85   ar
   138   184   183   ar
   139    92    93    2
   140    73    74    2
   141    69    70   ar
   142   121   122   ar
   143   121   120    1
   144    89    88   ar
   145   108   105    1
   146   185   183   ar
   147   120   119    1
   148   176   177    1
   149   176   175    1
   150    66    65    1
   151    66    68   ar
   152    85    84    1
   153    85    86   ar
   154    65    62    1
   155   128   130    1
   156   128   125    1
   157   183   182    1
   158   177   171    1
   159    84    81    1
   160    88    86   ar
   161    63    64    2
   162    63    62    1
   163    70    68   ar
   164   127   126    2
   165   126   125    1
   166    62    61    1
   167   105   104    1
   168   105   106    1
   169   125   124    1
   170   119   116    1
   171   175   172    1
   172   182   179    1
   173   171   172    1
   174    81    82    1
   175    81    80    1
   176    83    82    2
   177   107   106    2
   178   178   179    1
   179   178   173   am
   180   172   173    1
   181   116   115    1
   182   116   117    1
   183   179   180    1
   184   173   174    2
   185   117   118    2
   186   180   181    2
