@<TRIPOS>MOLECULE
tmp/4r7pA00.pdb
 163 155 0 0 0
SMALL
GASTEIGER

@<TRIPOS>ATOM
      1  N         28.8150  -21.4320   24.7370 N.3    90  LEU90      -0.1231
      2  CA        30.1980  -21.8480   24.8200 C.3    90  LEU90       0.1693
      3  C         30.2880  -23.3100   24.4620 C.2    90  LEU90       0.2592
      4  O         29.5470  -24.1330   25.0070 O.2    90  LEU90      -0.2718
      5  CB        30.7510  -21.5820   26.2100 C.3    90  LEU90       0.0284
      6  CG        30.7470  -20.1340   26.7020 C.3    90  LEU90       0.0019
      7  CD1       32.0340  -19.8320   27.4100 C.3    90  LEU90       0.0001
      8  CD2       30.5900  -19.1790   25.5740 C.3    90  LEU90       0.0001
      9  N         31.1760  -23.6080   23.5100 N.am   91  ASN91      -0.1960
     10  CA        31.3770  -24.9650   23.0000 C.3    91  ASN91       0.1819
     11  C         32.8560  -25.3730   22.9940 C.2    91  ASN91       0.2622
     12  O         33.2700  -26.2270   22.2090 O.2    91  ASN91      -0.2715
     13  CB        30.8100  -25.0880   21.5840 C.3    91  ASN91       0.1195
     14  CG        30.3880  -26.4970   21.2490 C.2    91  ASN91       0.2630
     15  OD1       29.4520  -26.7170   20.4900 O.2    91  ASN91      -0.2716
     16  ND2       31.0690  -27.4690   21.8380 N.am   91  ASN91      -0.0877
     17  N         33.6470  -24.7690   23.8740 N.am   92  GLY92      -0.1940
     18  CA        35.0810  -25.0160   23.9180 C.3    92  GLY92       0.2014
     19  C         35.5260  -26.4100   24.3460 C.2    92  GLY92       0.2639
     20  O         36.6960  -26.7740   24.1780 O.2    92  GLY92      -0.2714
     21  N         34.6090  -27.1990   24.8910 N.am   93  GLY93      -0.1954
     22  CA        34.9960  -28.4180   25.5880 C.3    93  GLY93       0.1869
     23  C         34.3710  -29.7010   25.1070 C.2    93  GLY93       0.2309
     24  O         33.3700  -29.7030   24.3890 O.2    93  GLY93      -0.2863
     25  N         31.4700  -32.1530   23.7390 N.3   104  LYS104     -0.1245
     26  CA        30.4130  -32.4610   24.6880 C.3   104  LYS104      0.1561
     27  C         29.0590  -32.2490   24.0620 C.2   104  LYS104      0.2260
     28  O         28.1600  -33.0790   24.1950 O.2   104  LYS104     -0.2867
     29  CB        30.5040  -31.5910   25.9210 C.3   104  LYS104      0.0271
     30  CG        29.5510  -32.0500   26.9910 C.3   104  LYS104      0.0035
     31  CD        30.2260  -31.9460   28.3160 C.3   104  LYS104      0.0206
     32  CE        29.2670  -31.8920   29.4640 C.3   104  LYS104      0.1093
     33  NZ        29.7560  -30.8440   30.3970 N.3   104  LYS104     -0.1314
     34  N         30.6190  -20.7170   20.2240 N.3   139  MET139     -0.1245
     35  CA        32.0380  -20.4290   20.3900 C.3   139  MET139      0.1570
     36  C         32.7810  -21.7400   20.5280 C.2   139  MET139      0.2261
     37  O         32.8150  -22.3310   21.6030 O.2   139  MET139     -0.2867
     38  CB        32.3010  -19.5490   21.6040 C.3   139  MET139      0.0387
     39  CG        33.7720  -19.2420   21.8270 C.3   139  MET139      0.0595
     40  SD        34.0200  -18.1580   23.2470 S.3   139  MET139     -0.1393
     41  CE        35.7730  -18.2980   23.5280 C.3   139  MET139      0.0692
     42  N         37.6230  -20.0710   19.2060 N.3   167  GLN167     -0.1245
     43  CA        38.3280  -19.4490   20.3030 C.3   167  GLN167      0.1566
     44  C         39.8050  -19.4200   19.9620 C.2   167  GLN167      0.2260
     45  O         40.2440  -20.1380   19.0700 O.2   167  GLN167     -0.2867
     46  CB        38.0660  -20.2280   21.5850 C.3   167  GLN167      0.0367
     47  CG        38.7430  -19.7040   22.8150 C.3   167  GLN167      0.0905
     48  CD        38.5470  -20.6400   23.9810 C.2   167  GLN167      0.2608
     49  OE1       37.7540  -21.5810   23.9090 O.2   167  GLN167     -0.2717
     50  NE2       39.2700  -20.3990   25.0590 N.am  167  GLN167     -0.0878
     51  N         43.0850  -23.8740   24.7500 N.3   197  PRO197     -0.2103
     52  CA        42.1040  -22.7780   24.7480 C.3   197  PRO197      0.1489
     53  C         42.3340  -21.8890   25.9460 C.2   197  PRO197      0.2418
     54  O         42.2570  -22.3930   27.0610 O.2   197  PRO197     -0.2734
     55  CB        40.7450  -23.4930   24.8220 C.3   197  PRO197      0.0282
     56  CG        41.0210  -24.8900   24.3700 C.3   197  PRO197      0.0208
     57  CD        42.4300  -25.1930   24.7800 C.3   197  PRO197      0.0893
     58  N         42.6500  -20.6060   25.7250 N.am  198  PRO198     -0.2718
     59  CA        42.9850  -19.8000   26.8980 C.3   198  PRO198      0.1535
     60  C         41.7930  -19.8460   27.8500 C.2   198  PRO198      0.2599
     61  O         41.8030  -20.6640   28.7970 O.2   198  PRO198     -0.2715
     62  CB        43.3230  -18.4130   26.2850 C.3   198  PRO198      0.0310
     63  CG        43.5780  -18.7180   24.8220 C.3   198  PRO198      0.0237
     64  CD        42.6140  -19.7920   24.5020 C.3   198  PRO198      0.0939
     65  N         40.7160  -19.1640   27.5040 N.am  199  GLY199     -0.1941
     66  CA        39.6990  -18.9250   28.4840 C.3   199  GLY199      0.2014
     67  C         38.3400  -18.8730   27.8460 C.2   199  GLY199      0.2638
     68  O         38.1970  -18.6670   26.6360 O.2   199  GLY199     -0.2714
     69  N         37.3280  -19.0720   28.6720 N.am  200  HIS200     -0.1973
     70  CA        35.9840  -18.7890   28.2440 C.3   200  HIS200      0.1656
     71  C         36.0030  -17.2820   28.0230 C.2   200  HIS200      0.2291
     72  O         35.2610  -16.7520   27.2070 O.2   200  HIS200     -0.2864
     73  CB        34.9440  -19.2080   29.2840 C.3   200  HIS200      0.0771
     74  CG        35.3320  -20.4030   30.1010 C.ar  200  HIS200      0.0820
     75  ND1       36.3570  -20.3770   31.0250 N.ar  200  HIS200     -0.2267
     76  CD2       34.8090  -21.6490   30.1570 C.ar  200  HIS200      0.1154
     77  CE1       36.4660  -21.5640   31.5930 C.ar  200  HIS200      0.1986
     78  NE2       35.5390  -22.3540   31.0840 N.ar  200  HIS200     -0.2212
     79  N         26.5340  -21.8140   28.8440 N.3   228  ASN228     -0.1225
     80  CA        27.1250  -23.0720   28.4020 C.3   228  ASN228      0.1785
     81  C         26.1310  -24.0140   27.7740 C.2   228  ASN228      0.2597
     82  O         24.9230  -23.9400   28.0010 O.2   228  ASN228     -0.2718
     83  CB        27.8050  -23.7850   29.5470 C.3   228  ASN228      0.1169
     84  CG        29.0180  -23.0550   30.0260 C.2   228  ASN228      0.2627
     85  OD1       29.5490  -22.1880   29.3380 O.2   228  ASN228     -0.2716
     86  ND2       29.4670  -23.3910   31.2130 N.am  228  ASN228     -0.0877
     87  N         26.6720  -24.9140   26.9760 N.am  229  ILE229     -0.1966
     88  CA        25.8510  -25.7800   26.1830 C.3   229  ILE229      0.1727
     89  C         25.3550  -26.8800   27.0970 C.2   229  ILE229      0.2616
     90  O         24.3110  -27.4700   26.8340 O.2   229  ILE229     -0.2715
     91  CB        26.6440  -26.3460   24.9730 C.3   229  ILE229      0.0290
     92  CG1       25.8930  -26.1550   23.6510 C.3   229  ILE229      0.0022
     93  CG2       26.9960  -27.7990   25.1840 C.3   229  ILE229      0.0023
     94  CD1       24.4050  -26.3390   23.7160 C.3   229  ILE229      0.0001
     95  N         26.1110  -27.1450   28.1660 N.am  230  ASP230     -0.1971
     96  CA        25.7890  -28.2170   29.1070 C.3   230  ASP230      0.1709
     97  C         24.8300  -27.7300   30.1950 C.2   230  ASP230      0.2293
     98  O         24.0720  -28.5130   30.7610 O.2   230  ASP230     -0.2864
     99  CB        27.0680  -28.7850   29.7310 C.3   230  ASP230      0.1436
    100  CG        27.9110  -27.7300   30.4140 C.2   230  ASP230      0.3671
    101  OD1       27.3940  -27.0270   31.3000 O.co2 230  ASP230     -0.2456
    102  OD2       29.1010  -27.6020   30.0710 O.co2 230  ASP230     -0.2456
    103  N         31.8280  -22.6960   45.6070 N.3   268  LYS268     -0.1245
    104  CA        33.0760  -22.7500   44.8900 C.3   268  LYS268      0.1561
    105  C         33.6630  -21.3750   44.6640 C.2   268  LYS268      0.2260
    106  O         34.8640  -21.2010   44.8170 O.2   268  LYS268     -0.2867
    107  CB        32.9090  -23.4730   43.5500 C.3   268  LYS268      0.0271
    108  CG        31.8860  -22.8610   42.6100 C.3   268  LYS268      0.0035
    109  CD        31.6770  -23.7480   41.3970 C.3   268  LYS268      0.0206
    110  CE        30.2090  -23.9560   41.0810 C.3   268  LYS268      0.1093
    111  NZ        29.5620  -24.9250   41.9950 N.3   268  LYS268     -0.1314
    112  N         28.2210  -16.9790   41.0590 N.3   305  ASN305     -0.1240
    113  CA        28.0430  -16.7970   39.6380 C.3   305  ASN305      0.1653
    114  C         27.5750  -18.0520   38.9200 C.2   305  ASN305      0.2266
    115  O         28.2140  -19.0990   39.0020 O.2   305  ASN305     -0.2867
    116  CB        29.3590  -16.2970   39.0270 C.3   305  ASN305      0.1155
    117  CG        29.2550  -16.0350   37.5520 C.2   305  ASN305      0.2627
    118  OD1       28.1710  -15.8850   37.0200 O.2   305  ASN305     -0.2716
    119  ND2       30.3890  -15.9730   36.8830 N.am  305  ASN305     -0.0877
    120  N         27.3930  -18.9020   35.1110 N.3   307  ASN307     -0.1240
    121  CA        27.9090  -18.1820   33.9510 C.3   307  ASN307      0.1653
    122  C         26.8380  -18.0820   32.8730 C.2   307  ASN307      0.2266
    123  O         26.9950  -18.5300   31.7400 O.2   307  ASN307     -0.2867
    124  CB        29.1810  -18.8150   33.4380 C.3   307  ASN307      0.1155
    125  CG        30.3560  -17.8760   33.5280 C.2   307  ASN307      0.2627
    126  OD1       30.7360  -17.4290   34.6120 O.2   307  ASN307     -0.2716
    127  ND2       30.9480  -17.5750   32.3870 N.am  307  ASN307     -0.0877
    128  N         45.2110  -17.7920   31.4480 N.3   346  GLU346     -0.1245
    129  CA        43.8540  -17.6460   30.9400 C.3   346  GLU346      0.1567
    130  C         42.9990  -16.6440   31.6930 C.2   346  GLU346      0.2260
    131  O         43.4740  -16.0130   32.6190 O.2   346  GLU346     -0.2867
    132  CB        43.1710  -19.0270   30.8760 C.3   346  GLU346      0.0388
    133  CG        43.4660  -20.0490   31.9870 C.3   346  GLU346      0.1160
    134  CD        43.0900  -21.4510   31.5050 C.2   346  GLU346      0.3649
    135  OE1       41.8680  -21.7210   31.4010 O.co2 346  GLU346     -0.2457
    136  OE2       44.0020  -22.2490   31.1550 O.co2 346  GLU346     -0.2457
    137  N         20.0990  -22.8310   36.5220 N.3   369  PHE369     -0.1241
    138  CA        21.4720  -23.3000   36.6690 C.3   369  PHE369      0.1605
    139  C         21.5340  -24.7960   36.9330 C.2   369  PHE369      0.2264
    140  O         21.6390  -25.2400   38.0790 O.2   369  PHE369     -0.2867
    141  CB        22.1590  -22.5520   37.7910 C.3   369  PHE369      0.0534
    142  CG        23.5720  -22.9860   38.0400 C.ar  369  PHE369     -0.0203
    143  CD1       24.5840  -22.6300   37.1770 C.ar  369  PHE369     -0.0042
    144  CD2       23.8880  -23.7340   39.1530 C.ar  369  PHE369     -0.0042
    145  CE1       25.8830  -23.0190   37.4230 C.ar  369  PHE369     -0.0003
    146  CE2       25.1780  -24.1290   39.3960 C.ar  369  PHE369     -0.0003
    147  CZ        26.1770  -23.7710   38.5360 C.ar  369  PHE369     -0.0000
    148  N         23.8540  -27.2810   35.4350 N.3   371  PRO371     -0.2116
    149  CA        24.9780  -27.8090   34.6550 C.3   371  PRO371      0.1372
    150  C         24.9760  -29.3250   34.6710 C.2   371  PRO371      0.2244
    151  O         24.7680  -29.9020   35.7390 O.2   371  PRO371     -0.2868
    152  CB        26.2010  -27.2380   35.3810 C.3   371  PRO371      0.0268
    153  CG        25.7680  -27.1940   36.7820 C.3   371  PRO371      0.0207
    154  CD        24.3070  -26.7350   36.7270 C.3   371  PRO371      0.0892
    155  N         27.5350  -31.6030   34.4300 N.3   373  LYS373     -0.1245
    156  CA        28.9550  -31.8790   34.5260 C.3   373  LYS373      0.1561
    157  C         29.2440  -33.3640   34.2140 C.2   373  LYS373      0.2260
    158  O         30.2050  -33.6880   33.4980 O.2   373  LYS373     -0.2867
    159  CB        29.4870  -31.4880   35.9320 C.3   373  LYS373      0.0271
    160  CG        28.6460  -32.0060   37.1440 C.3   373  LYS373      0.0035
    161  CD        28.6780  -31.1430   38.4200 C.3   373  LYS373      0.0206
    162  CE        27.7370  -31.7290   39.4910 C.3   373  LYS373      0.1093
    163  NZ        26.5370  -32.4080   38.9060 N.3   373  LYS373     -0.1314
@<TRIPOS>BOND
     1    45    44    2
     2    42    43    1
     3    44    43    1
     4    34    35    1
     5    43    46    1
     6    35    36    1
     7    35    38    1
     8    15    14    2
     9    36    37    2
    10    14    13    1
    11    14    16   am
    12    13    10    1
    13    46    47    1
    14    38    39    1
    15    39    40    1
    16    12    11    2
    17    47    48    1
    18    11    10    1
    19    11    17   am
    20    10     9    1
    21    40    41    1
    22     9     3   am
    23    92    94    1
    24    92    91    1
    25    25    26    1
    26    17    18    1
    27    49    48    2
    28    18    19    1
    29    48    50   am
    30    27    28    2
    31    27    26    1
    32    20    19    2
    33    19    21   am
    34    56    57    1
    35    56    55    1
    36    24    23    2
    37     3     2    1
    38     3     4    2
    39    64    63    1
    40    64    58    1
    41    26    29    1
    42     1     2    1
    43    52    51    1
    44    52    55    1
    45    52    53    1
    46    51    57    1
    47     2     5    1
    48    63    62    1
    49    21    22    1
    50    91    93    1
    51    91    88    1
    52    23    22    1
    53     8     6    1
    54    58    53   am
    55    58    59    1
    56    29    30    1
    57    53    54    2
    58    88    87    1
    59    88    89    1
    60     5     6    1
    61    62    59    1
    62    68    67    2
    63     6     7    1
    64    90    89    2
    65    59    60    1
    66    87    81   am
    67    30    31    1
    68    89    95   am
    69    72    71    2
    70    65    60   am
    71    65    66    1
    72    81    82    2
    73    81    80    1
    74    67    66    1
    75    67    69   am
    76    60    61    2
    77    71    70    1
    78    95    96    1
    79    70    69    1
    80    70    73    1
    81    31    32    1
    82    80    79    1
    83    80    83    1
    84    96    99    1
    85    96    97    1
    86    73    74    1
    87    85    84    2
    88    32    33    1
    89    83    84    1
    90    99   100    1
    91    84    86   am
    92   102   100   ar
    93    74    76   ar
    94    74    75   ar
    95    76    78   ar
    96    97    98    2
    97   100   101   ar
    98   132   129    1
    99   132   133    1
   100   129   128    1
   101   129   130    1
   102    75    77   ar
   103    78    77   ar
   104   136   134   ar
   105   135   134   ar
   106   134   133    1
   107   130   131    2
   108   123   122    2
   109   127   125   am
   110   122   121    1
   111   124   125    1
   112   124   121    1
   113   158   157    2
   114   125   126    2
   115   121   120    1
   116   157   156    1
   117   155   156    1
   118   156   159    1
   119   149   150    1
   120   149   152    1
   121   149   148    1
   122   150   151    2
   123   152   153    1
   124   148   154    1
   125   159   160    1
   126   137   138    1
   127   138   139    1
   128   138   141    1
   129   154   153    1
   130   119   117   am
   131   139   140    2
   132   118   117    2
   133   160   161    1
   134   143   145   ar
   135   143   142   ar
   136   145   147   ar
   137   117   116    1
   138   141   142    1
   139   142   144   ar
   140   161   162    1
   141   147   146   ar
   142   163   162    1
   143   114   115    2
   144   114   113    1
   145   116   113    1
   146   144   146   ar
   147   113   112    1
   148   110   109    1
   149   110   111    1
   150   109   108    1
   151   108   107    1
   152   107   104    1
   153   105   106    2
   154   105   104    1
   155   104   103    1
