@<TRIPOS>MOLECULE
tmp/4r7wB01.pdb
 120 114 0 0 0
SMALL
GASTEIGER

@<TRIPOS>ATOM
      1  N        -22.7650  -16.7590   11.2080 N.3    58  HIS58      -0.1241
      2  CA       -23.9320  -17.2230   11.9480 C.3    58  HIS58       0.1621
      3  C        -23.6880  -18.6020   12.5490 C.2    58  HIS58       0.2264
      4  O        -24.0510  -19.6140   11.9590 O.2    58  HIS58      -0.2867
      5  CB       -25.1590  -17.2640   11.0440 C.3    58  HIS58       0.0745
      6  CG       -25.6510  -15.9080   10.6450 C.ar   58  HIS58       0.0817
      7  ND1      -26.7440  -15.3090   11.2340 N.ar   58  HIS58      -0.2268
      8  CD2      -25.1880  -15.0270    9.7280 C.ar   58  HIS58       0.1154
      9  CE1      -26.9310  -14.1150   10.7010 C.ar   58  HIS58       0.1986
     10  NE2      -25.9940  -13.9200    9.7920 N.ar   58  HIS58      -0.2212
     11  N        -32.6050  -14.6590    0.1620 N.3    76  LEU76      -0.1245
     12  CA       -32.5680  -14.2930    1.5800 C.3    76  LEU76       0.1561
     13  C        -33.8630  -14.6830    2.2650 C.2    76  LEU76       0.2260
     14  O        -33.8680  -15.2800    3.3430 O.2    76  LEU76      -0.2867
     15  CB       -32.3650  -12.7820    1.7410 C.3    76  LEU76       0.0270
     16  CG       -32.4470  -12.2050    3.1610 C.3    76  LEU76       0.0019
     17  CD1      -31.4080  -12.8510    4.0880 C.3    76  LEU76       0.0001
     18  CD2      -32.2710  -10.6920    3.1510 C.3    76  LEU76       0.0001
     19  N        -29.0840  -10.7290   17.2890 N.3   149  PHE149     -0.1241
     20  CA       -29.5860  -10.5240   15.9360 C.3   149  PHE149      0.1605
     21  C        -31.0650  -10.8740   15.8800 C.2   149  PHE149      0.2264
     22  O        -31.4270  -12.0320   16.0850 O.2   149  PHE149     -0.2867
     23  CB       -28.8300  -11.4310   14.9700 C.3   149  PHE149      0.0534
     24  CG       -29.3430  -11.3870   13.5500 C.ar  149  PHE149     -0.0203
     25  CD1      -29.5780  -10.1730   12.9140 C.ar  149  PHE149     -0.0042
     26  CD2      -29.5520  -12.5640   12.8440 C.ar  149  PHE149     -0.0042
     27  CE1      -30.0430  -10.1360   11.5960 C.ar  149  PHE149     -0.0003
     28  CE2      -30.0050  -12.5380   11.5300 C.ar  149  PHE149     -0.0003
     29  CZ       -30.2490  -11.3200   10.9090 C.ar  149  PHE149     -0.0000
     30  N        -33.5810  -11.8220   13.7810 N.3   151  GLN151     -0.1245
     31  CA       -33.8170  -12.2970   12.4260 C.3   151  GLN151      0.1566
     32  C        -35.1680  -11.9080   11.8360 C.2   151  GLN151      0.2260
     33  O        -35.2630  -11.4830   10.6820 O.2   151  GLN151     -0.2867
     34  CB       -33.6950  -13.8180   12.3770 C.3   151  GLN151      0.0367
     35  CG       -33.9440  -14.4060   10.9780 C.3   151  GLN151      0.0905
     36  CD       -32.8860  -14.0000    9.9530 C.2   151  GLN151      0.2608
     37  OE1      -31.8950  -14.7110    9.7400 O.2   151  GLN151     -0.2717
     38  NE2      -33.1110  -12.8660    9.2920 N.am  151  GLN151     -0.0878
     39  N        -32.1340   -5.5430   11.7010 N.3   178  ILE178     -0.1245
     40  CA       -32.4630   -5.9430   10.3390 C.3   178  ILE178      0.1561
     41  C        -33.5310   -5.0070    9.7240 C.2   178  ILE178      0.2260
     42  O        -34.6090   -5.4420    9.3640 O.2   178  ILE178     -0.2867
     43  CB       -32.8670   -7.4570   10.2970 C.3   178  ILE178      0.0252
     44  CG1      -32.8790   -7.9910    8.8560 C.3   178  ILE178      0.0019
     45  CG2      -34.2010   -7.7300   11.0370 C.3   178  ILE178      0.0019
     46  CD1      -33.0760   -9.4910    8.7770 C.3   178  ILE178      0.0001
     47  N        -27.4160   -5.8780   10.2030 N.3   209  HIS209     -0.1241
     48  CA       -27.6080   -6.3160    8.8260 C.3   209  HIS209      0.1621
     49  C        -28.3610   -5.1990    8.1580 C.2   209  HIS209      0.2264
     50  O        -29.5690   -5.0370    8.3740 O.2   209  HIS209     -0.2867
     51  CB       -28.4490   -7.5810    8.7320 C.3   209  HIS209      0.0745
     52  CG       -27.7390   -8.8160    9.1740 C.ar  209  HIS209      0.0817
     53  ND1      -27.2430   -8.9710   10.4500 N.ar  209  HIS209     -0.2268
     54  CD2      -27.4480   -9.9620    8.5110 C.ar  209  HIS209      0.1154
     55  CE1      -26.6720  -10.1590   10.5540 C.ar  209  HIS209      0.1986
     56  NE2      -26.7870  -10.7800    9.3930 N.ar  209  HIS209     -0.2212
     57  N        -29.7730   -5.4380    3.3010 N.3   212  GLU212     -0.1245
     58  CA       -29.3910   -6.6480    2.5570 C.3   212  GLU212      0.1567
     59  C        -30.4200   -6.9950    1.5010 C.2   212  GLU212      0.2260
     60  O        -31.1230   -7.9970    1.6210 O.2   212  GLU212     -0.2867
     61  CB       -29.1690   -7.8580    3.4710 C.3   212  GLU212      0.0388
     62  CG       -28.4560   -9.0330    2.7420 C.3   212  GLU212      0.1160
     63  CD       -28.2650  -10.2680    3.6150 C.2   212  GLU212      0.3649
     64  OE1      -27.5990  -11.2270    3.1580 O.co2 212  GLU212     -0.2457
     65  OE2      -28.7850  -10.2800    4.7550 O.co2 212  GLU212     -0.2457
     66  N        -23.2710   -5.8810    5.2590 N.3   241  HIS241     -0.1241
     67  CA       -23.8530   -6.0360    3.9260 C.3   241  HIS241      0.1621
     68  C        -23.9380   -4.7470    3.1240 C.2   241  HIS241      0.2264
     69  O        -23.0880   -4.4870    2.2720 O.2   241  HIS241     -0.2867
     70  CB       -25.2130   -6.7350    3.9820 C.3   241  HIS241      0.0745
     71  CG       -25.1350   -8.1520    4.4470 C.ar  241  HIS241      0.0817
     72  ND1      -24.4410   -9.1200    3.7530 N.ar  241  HIS241     -0.2268
     73  CD2      -25.6690   -8.7700    5.5300 C.ar  241  HIS241      0.1154
     74  CE1      -24.5480  -10.2720    4.3910 C.ar  241  HIS241      0.1986
     75  NE2      -25.2800  -10.0860    5.4780 N.ar  241  HIS241     -0.2212
     76  N        -21.4870  -14.7120   -0.0810 N.3   273  GLU273     -0.1245
     77  CA       -22.8640  -14.8500    0.3680 C.3   273  GLU273      0.1567
     78  C        -23.7840  -14.0350   -0.5260 C.2   273  GLU273      0.2260
     79  O        -24.8490  -14.4990   -0.9390 O.2   273  GLU273     -0.2867
     80  CB       -23.0060  -14.3700    1.8120 C.3   273  GLU273      0.0388
     81  CG       -24.3480  -14.6970    2.4390 C.3   273  GLU273      0.1160
     82  CD       -24.3350  -16.0350    3.1430 C.2   273  GLU273      0.3649
     83  OE1      -23.3520  -16.7950    2.9660 O.co2 273  GLU273     -0.2457
     84  OE2      -25.2980  -16.3190    3.8880 O.co2 273  GLU273     -0.2457
     85  N        -26.8750  -14.7610   -2.9910 N.3   277  LEU277     -0.1245
     86  CA       -28.2440  -14.3470   -2.6330 C.3   277  LEU277      0.1561
     87  C        -28.7690  -13.1380   -3.3960 C.2   277  LEU277      0.2260
     88  O        -29.9890  -12.9630   -3.5290 O.2   277  LEU277     -0.2867
     89  CB       -28.3480  -14.0560   -1.1300 C.3   277  LEU277      0.0270
     90  CG       -28.1040  -15.1950   -0.1380 C.3   277  LEU277      0.0019
     91  CD1      -28.0820  -14.6150    1.2810 C.3   277  LEU277      0.0001
     92  CD2      -29.1630  -16.3120   -0.2600 C.3   277  LEU277      0.0001
     93  N        -19.8710  -15.0580    6.4520 N.3   308  ASP308     -0.1225
     94  CA       -21.3010  -14.9900    6.7630 C.3   308  ASP308      0.1805
     95  C        -21.9110  -16.3360    7.1630 C.2   308  ASP308      0.2598
     96  O        -22.4220  -16.4840    8.2740 O.2   308  ASP308     -0.2718
     97  CB       -22.0800  -14.4050    5.5830 C.3   308  ASP308      0.1424
     98  CG       -23.3180  -13.6810    6.0090 C.2   308  ASP308      0.3668
     99  OD1      -23.7090  -12.7660    5.2750 O.co2 308  ASP308     -0.2456
    100  OD2      -23.8840  -14.0160    7.0690 O.co2 308  ASP308     -0.2456
    101  N        -21.8850  -17.3070    6.2550 N.am  309  SER309     -0.1952
    102  CA       -22.5380  -18.5960    6.4850 C.3   309  SER309      0.1924
    103  C        -21.6270  -19.7740    6.2100 C.2   309  SER309      0.2314
    104  O        -20.7760  -19.7200    5.3180 O.2   309  SER309     -0.2863
    105  CB       -23.7560  -18.7550    5.5630 C.3   309  SER309      0.2116
    106  OG       -24.7680  -17.8110    5.8300 O.3   309  SER309     -0.2180
    107  N        -28.9810  -20.3240    4.1620 N.3   314  TRP314     -0.1241
    108  CA       -28.7280  -19.3010    3.1480 C.3   314  TRP314      0.1605
    109  C        -27.5730  -19.6060    2.1880 C.2   314  TRP314      0.2264
    110  O        -27.3730  -18.8770    1.2210 O.2   314  TRP314     -0.2867
    111  CB       -28.4420  -17.9490    3.8080 C.3   314  TRP314      0.0550
    112  CG       -29.5820  -17.4240    4.6060 C.ar  314  TRP314      0.0003
    113  CD1      -30.5990  -16.6350    4.1560 C.ar  314  TRP314      0.0946
    114  CD2      -29.8320  -17.6540    5.9950 C.ar  314  TRP314      0.0152
    115  NE1      -31.4700  -16.3570    5.1810 N.ar  314  TRP314     -0.2442
    116  CE2      -31.0240  -16.9750    6.3210 C.ar  314  TRP314      0.0810
    117  CE3      -29.1690  -18.3750    6.9940 C.ar  314  TRP314      0.0012
    118  CZ2      -31.5610  -16.9850    7.6050 C.ar  314  TRP314      0.0191
    119  CZ3      -29.7190  -18.3920    8.2820 C.ar  314  TRP314      0.0001
    120  CH2      -30.8910  -17.6950    8.5720 C.ar  314  TRP314      0.0015
@<TRIPOS>BOND
     1    88    87    2
     2    87    86    1
     3    85    86    1
     4    86    89    1
     5    89    90    1
     6    79    78    2
     7    78    77    1
     8    92    90    1
     9    90    91    1
    10    76    77    1
    11    11    12    1
    12    77    80    1
    13   110   109    2
    14    59    60    2
    15    59    58    1
    16    12    15    1
    17    12    13    1
    18    15    16    1
    19    80    81    1
    20   109   108    1
    21    13    14    2
    22    69    68    2
    23    81    82    1
    24    58    57    1
    25    58    61    1
    26    62    61    1
    27    62    63    1
    28    83    82   ar
    29    68    67    1
    30    82    84   ar
    31   108   111    1
    32   108   107    1
    33    18    16    1
    34    64    63   ar
    35    16    17    1
    36    63    65   ar
    37    72    74   ar
    38    72    71   ar
    39   111   112    1
    40    67    70    1
    41    67    66    1
    42    70    71    1
    43   113   112   ar
    44   113   115   ar
    45    74    75   ar
    46    71    73   ar
    47   112   114   ar
    48   115   116   ar
    49    99    98   ar
    50   104   103    2
    51    75    73   ar
    52   105   106    1
    53   105   102    1
    54    97    98    1
    55    97    94    1
    56   114   116   ar
    57   114   117   ar
    58    98   100   ar
    59   103   102    1
    60   101   102    1
    61   101    95   am
    62   116   118   ar
    63    93    94    1
    64    94    95    1
    65   117   119   ar
    66    95    96    2
    67   118   120   ar
    68    49    50    2
    69    49    48    1
    70   119   120   ar
    71    54    52   ar
    72    54    56   ar
    73    51    48    1
    74    51    52    1
    75    46    44    1
    76    48    47    1
    77    44    43    1
    78    52    53   ar
    79    38    36   am
    80    42    41    2
    81    56    55   ar
    82    41    40    1
    83     8    10   ar
    84     8     6   ar
    85    37    36    2
    86    10     9   ar
    87    36    35    1
    88    43    40    1
    89    43    45    1
    90    40    39    1
    91    53    55   ar
    92     6     5    1
    93     6     7   ar
    94    33    32    2
    95     9     7   ar
    96    29    28   ar
    97    29    27   ar
    98    35    34    1
    99     5     2    1
   100     1     2    1
   101    28    26   ar
   102    27    25   ar
   103    32    31    1
   104     2     3    1
   105     4     3    2
   106    34    31    1
   107    31    30    1
   108    26    24   ar
   109    25    24   ar
   110    24    23    1
   111    23    20    1
   112    21    20    1
   113    21    22    2
   114    20    19    1
