@<TRIPOS>MOLECULE
tmp/4r7yA00.pdb
 124 121 0 0 0
SMALL
GASTEIGER

@<TRIPOS>ATOM
      1  N        -32.1820   -5.0520  -55.0070 N.3   296  ALA296     -0.1231
      2  CA       -33.5690   -5.3530  -55.3520 C.3   296  ALA296      0.1694
      3  C        -34.1260   -4.4400  -56.4370 C.2   296  ALA296      0.2592
      4  O        -35.3110   -4.0910  -56.4130 O.2   296  ALA296     -0.2718
      5  CB       -34.4480   -5.2910  -54.1150 C.3   296  ALA296      0.0304
      6  N        -33.2590   -4.0470  -57.3720 N.am  297  ILE297     -0.1966
      7  CA       -33.6520   -3.2030  -58.5010 C.3   297  ILE297      0.1727
      8  C        -32.8070   -3.5110  -59.7410 C.2   297  ILE297      0.2616
      9  O        -31.6040   -3.7700  -59.6390 O.2   297  ILE297     -0.2715
     10  CB       -33.4960   -1.6950  -58.2050 C.3   297  ILE297      0.0290
     11  CG1      -32.0370   -1.2850  -58.3700 C.3   297  ILE297      0.0022
     12  CG2      -33.9490   -1.3800  -56.7990 C.3   297  ILE297      0.0023
     13  CD1      -31.8680    0.1990  -58.5100 C.3   297  ILE297      0.0001
     14  N        -33.4370   -3.4710  -60.9110 N.am  298  TYR298     -0.1974
     15  CA       -32.7260   -3.7440  -62.1500 C.3   298  TYR298      0.1639
     16  C        -32.0910   -2.4810  -62.7210 C.2   298  TYR298      0.2290
     17  O        -32.7700   -1.4830  -62.9530 O.2   298  TYR298     -0.2864
     18  CB       -33.6710   -4.3720  -63.1960 C.3   298  TYR298      0.0560
     19  CG       -32.9770   -4.7880  -64.4900 C.ar  298  TYR298     -0.0198
     20  CD1      -31.9070   -5.6890  -64.4750 C.ar  298  TYR298     -0.0009
     21  CD2      -33.3680   -4.2530  -65.7220 C.ar  298  TYR298     -0.0009
     22  CE1      -31.2400   -6.0420  -65.6540 C.ar  298  TYR298      0.0417
     23  CE2      -32.7060   -4.6000  -66.9080 C.ar  298  TYR298      0.0417
     24  CZ       -31.6430   -5.4930  -66.8670 C.ar  298  TYR298      0.1957
     25  OH       -30.9790   -5.8320  -68.0320 O.3   298  TYR298     -0.2866
     26  N        -30.1530    1.0070  -63.3300 N.3   300  TYR300     -0.1241
     27  CA       -30.0190    2.3150  -62.7000 C.3   300  TYR300      0.1605
     28  C        -28.5810    2.5470  -62.2460 C.2   300  TYR300      0.2264
     29  O        -28.3320    3.2640  -61.2790 O.2   300  TYR300     -0.2867
     30  CB       -30.9680    2.4340  -61.5140 C.3   300  TYR300      0.0534
     31  CG       -32.3900    2.7700  -61.8930 C.ar  300  TYR300     -0.0201
     32  CD1      -32.7150    4.0160  -62.4160 C.ar  300  TYR300     -0.0009
     33  CD2      -33.4170    1.8530  -61.7000 C.ar  300  TYR300     -0.0009
     34  CE1      -34.0310    4.3420  -62.7310 C.ar  300  TYR300      0.0417
     35  CE2      -34.7340    2.1700  -62.0120 C.ar  300  TYR300      0.0417
     36  CZ       -35.0360    3.4140  -62.5250 C.ar  300  TYR300      0.1957
     37  OH       -36.3440    3.7330  -62.8180 O.3   300  TYR300     -0.2866
     38  N        -44.7280    8.4430  -62.0190 N.3   337  PRO337     -0.2102
     39  CA       -45.2700    7.6450  -60.9270 C.3   337  PRO337      0.1504
     40  C        -45.1200    6.1540  -61.2420 C.2   337  PRO337      0.2576
     41  O        -45.4150    5.7110  -62.3500 O.2   337  PRO337     -0.2718
     42  CB       -46.7170    8.0940  -60.8800 C.3   337  PRO337      0.0282
     43  CG       -46.6130    9.5410  -61.2390 C.3   337  PRO337      0.0208
     44  CD       -45.6570    9.5200  -62.4020 C.3   337  PRO337      0.0893
     45  N        -44.6470    5.3950  -60.2610 N.am  338  GLY338     -0.1943
     46  CA       -44.4760    3.9700  -60.4420 C.3   338  GLY338      0.2014
     47  C        -43.1300    3.5980  -61.0210 C.2   338  GLY338      0.2639
     48  O        -42.9870    2.5280  -61.6080 O.2   338  GLY338     -0.2714
     49  N        -42.1390    4.4700  -60.8580 N.am  339  VAL339     -0.1963
     50  CA       -40.8020    4.2090  -61.3810 C.3   339  VAL339      0.1727
     51  C        -39.8140    3.8120  -60.2890 C.2   339  VAL339      0.2616
     52  O        -38.6020    3.8660  -60.4840 O.2   339  VAL339     -0.2715
     53  CB       -40.2530    5.4390  -62.1510 C.3   339  VAL339      0.0290
     54  CG1      -38.8860    5.1270  -62.7330 C.3   339  VAL339      0.0023
     55  CG2      -41.1990    5.8060  -63.2730 C.3   339  VAL339      0.0023
     56  N        -40.3410    3.4180  -59.1370 N.am  340  ALA340     -0.1963
     57  CA       -39.5100    2.9800  -58.0190 C.3   340  ALA340      0.1728
     58  C        -38.8630    4.0780  -57.1820 C.2   340  ALA340      0.2616
     59  O        -37.9900    3.7850  -56.3690 O.2   340  ALA340     -0.2715
     60  CB       -38.4330    2.0230  -58.5200 C.3   340  ALA340      0.0334
     61  N        -39.2780    5.3280  -57.3630 N.am  341  LYS341     -0.1963
     62  CA       -38.7050    6.4150  -56.5800 C.3   341  LYS341      0.1728
     63  C        -38.9080    6.1540  -55.0890 C.2   341  LYS341      0.2617
     64  O        -37.9660    5.7950  -54.3870 O.2   341  LYS341     -0.2715
     65  CB       -39.3390    7.7570  -56.9480 C.3   341  LYS341      0.0311
     66  CG       -38.8620    8.3690  -58.2460 C.3   341  LYS341      0.0038
     67  CD       -40.0450    8.6000  -59.1510 C.3   341  LYS341      0.0206
     68  CE       -41.1310    9.3710  -58.4240 C.3   341  LYS341      0.1093
     69  NZ       -42.4450    9.2510  -59.1000 N.3   341  LYS341     -0.1314
     70  N        -40.1360    6.3280  -54.6070 N.am  342  SER342     -0.1936
     71  CA       -40.4500    6.1190  -53.1960 C.3   342  SER342      0.2055
     72  C        -39.8140    4.8620  -52.6320 C.2   342  SER342      0.2642
     73  O        -39.5530    4.7700  -51.4330 O.2   342  SER342     -0.2714
     74  CB       -41.9620    6.0370  -53.0010 C.3   342  SER342      0.2130
     75  OG       -42.5870    7.2270  -53.4410 O.3   342  SER342     -0.2179
     76  N        -39.5610    3.9000  -53.5100 N.am  343  GLN343     -0.1976
     77  CA       -38.9770    2.6230  -53.1320 C.3   343  GLN343      0.1601
     78  C        -37.4760    2.7160  -52.8650 C.2   343  GLN343      0.2287
     79  O        -37.0190    2.4800  -51.7460 O.2   343  GLN343     -0.2864
     80  CB       -39.2540    1.6070  -54.2420 C.3   343  GLN343      0.0394
     81  CG       -39.3730    0.1630  -53.7830 C.3   343  GLN343      0.0908
     82  CD       -40.3740   -0.0060  -52.6550 C.2   343  GLN343      0.2608
     83  OE1      -41.3170    0.7720  -52.5320 O.2   343  GLN343     -0.2717
     84  NE2      -40.1810   -1.0360  -51.8360 N.am  343  GLN343     -0.0878
     85  N        -42.4460   14.0750  -57.4110 N.3   443  ASN443     -0.1240
     86  CA       -43.3450   13.7830  -58.5330 C.3   443  ASN443      0.1653
     87  C        -43.8130   15.0740  -59.1860 C.2   443  ASN443      0.2266
     88  O        -43.8360   16.1300  -58.5510 O.2   443  ASN443     -0.2867
     89  CB       -44.6090   13.0500  -58.0590 C.3   443  ASN443      0.1155
     90  CG       -44.3110   11.7800  -57.2880 C.2   443  ASN443      0.2627
     91  OD1      -43.7750   10.8190  -57.8360 O.2   443  ASN443     -0.2716
     92  ND2      -44.6690   11.7660  -56.0100 N.am  443  ASN443     -0.0877
     93  N        -38.0340   -5.9330  -65.3570 N.3   487  VAL487     -0.1245
     94  CA       -38.6190   -5.3860  -64.1400 C.3   487  VAL487      0.1561
     95  C        -39.6220   -6.3550  -63.5250 C.2   487  VAL487      0.2260
     96  O        -39.5840   -6.6250  -62.3230 O.2   487  VAL487     -0.2867
     97  CB       -39.3180   -4.0450  -64.4240 C.3   487  VAL487      0.0252
     98  CG1      -40.4420   -3.8160  -63.4330 C.3   487  VAL487      0.0019
     99  CG2      -38.3070   -2.9190  -64.3300 C.3   487  VAL487      0.0019
    100  N        -37.9430   -9.3240  -61.9150 N.3   490  HIS490     -0.1226
    101  CA       -37.3830   -8.7930  -60.6750 C.3   490  HIS490      0.1752
    102  C        -38.4410   -8.6470  -59.5800 C.2   490  HIS490      0.2595
    103  O        -38.2360   -9.0740  -58.4460 O.2   490  HIS490     -0.2718
    104  CB       -36.7430   -7.4290  -60.9440 C.3   490  HIS490      0.0759
    105  CG       -35.4860   -7.1800  -60.1670 C.ar  490  HIS490      0.0818
    106  ND1      -34.2500   -7.6130  -60.5930 N.ar  490  HIS490     -0.2268
    107  CD2      -35.2750   -6.5420  -58.9910 C.ar  490  HIS490      0.1154
    108  CE1      -33.3300   -7.2510  -59.7160 C.ar  490  HIS490      0.1986
    109  NE2      -33.9260   -6.5990  -58.7340 N.ar  490  HIS490     -0.2212
    110  N        -39.5710   -8.0390  -59.9220 N.am  491  ILE491     -0.1980
    111  CA       -40.6460   -7.8330  -58.9580 C.3   491  ILE491      0.1595
    112  C        -41.2610   -9.1430  -58.4770 C.2   491  ILE491      0.2287
    113  O        -41.4680   -9.3360  -57.2780 O.2   491  ILE491     -0.2864
    114  CB       -41.7410   -6.9380  -59.5560 C.3   491  ILE491      0.0276
    115  CG1      -41.1200   -5.6000  -59.9600 C.3   491  ILE491      0.0022
    116  CG2      -42.8730   -6.7470  -58.5550 C.3   491  ILE491      0.0022
    117  CD1      -42.0530   -4.6810  -60.6960 C.3   491  ILE491      0.0001
    118  N        -38.9600  -10.7650  -56.0220 N.3   494  VAL494     -0.1245
    119  CA       -38.9780  -10.0740  -54.7430 C.3   494  VAL494      0.1561
    120  C        -40.2500  -10.4070  -53.9710 C.2   494  VAL494      0.2260
    121  O        -40.2030  -10.6780  -52.7700 O.2   494  VAL494     -0.2867
    122  CB       -38.8620   -8.5500  -54.9490 C.3   494  VAL494      0.0252
    123  CG1      -38.8360   -7.8450  -53.6070 C.3   494  VAL494      0.0019
    124  CG2      -37.5990   -8.2330  -55.7380 C.3   494  VAL494      0.0019
@<TRIPOS>BOND
     1    25    24    1
     2    23    24   ar
     3    23    21   ar
     4    24    22   ar
     5    21    19   ar
     6    22    20   ar
     7    93    94    1
     8    19    20   ar
     9    19    18    1
    10    97    99    1
    11    97    94    1
    12    97    98    1
    13    94    95    1
    14    95    96    2
    15    26    27    1
    16    55    53    1
    17    18    15    1
    18    17    16    2
    19    37    36    1
    20    54    53    1
    21    34    36   ar
    22    34    32   ar
    23    16    15    1
    24    27    28    1
    25    27    30    1
    26    36    35   ar
    27    32    31   ar
    28    44    38    1
    29    44    43    1
    30    41    40    2
    31    28    29    2
    32    53    50    1
    33    15    14    1
    34    38    39    1
    35    35    33   ar
    36   100   101    1
    37    31    33   ar
    38    31    30    1
    39    48    47    2
    40    50    49    1
    41    50    51    1
    42    40    39    1
    43    40    45   am
    44    43    42    1
    45    47    49   am
    46    47    46    1
    47   104   101    1
    48   104   105    1
    49    39    42    1
    50    14     8   am
    51   117   115    1
    52   101   102    1
    53   106   105   ar
    54   106   108   ar
    55    52    51    2
    56    46    45    1
    57    51    56   am
    58   105   107   ar
    59   115   114    1
    60   110   102   am
    61   110   111    1
    62     8     9    2
    63     8     7    1
    64   108   109   ar
    65   102   103    2
    66   114   111    1
    67   114   116    1
    68    87    88    2
    69    87    86    1
    70    67    68    1
    71    67    66    1
    72    56    57    1
    73    69    68    1
    74   107   109   ar
    75   111   112    1
    76    86    89    1
    77    86    85    1
    78    60    57    1
    79    13    11    1
    80     7    10    1
    81     7     6    1
    82   112   113    2
    83    11    10    1
    84    66    65    1
    85    10    12    1
    86    89    90    1
    87    57    58    1
    88    91    90    2
    89     6     3   am
    90    61    58   am
    91    61    62    1
    92    90    92   am
    93    58    59    2
    94    65    62    1
    95    62    63    1
    96     3     4    2
    97     3     2    1
    98   118   119    1
    99   124   122    1
   100     2     1    1
   101     2     5    1
   102    63    70   am
   103    63    64    2
   104   122   119    1
   105   122   123    1
   106   119   120    1
   107    70    71    1
   108    80    81    1
   109    80    77    1
   110   120   121    2
   111    81    82    1
   112    76    77    1
   113    76    72   am
   114    75    74    1
   115    71    74    1
   116    71    72    1
   117    77    78    1
   118    78    79    2
   119    82    83    2
   120    82    84   am
   121    72    73    2
