@<TRIPOS>MOLECULE
tmp/4r7zO00.pdb
 137 133 0 0 0
SMALL
GASTEIGER

@<TRIPOS>ATOM
      1  N         -8.9490   59.0610  -22.5340 N.3    27  ALA27      -0.1231
      2  CA        -9.0910   59.1160  -21.0910 C.3    27  ALA27       0.1694
      3  C         -7.7800   59.4980  -20.4660 C.2    27  ALA27       0.2592
      4  O         -7.5580   60.6600  -20.1320 O.2    27  ALA27      -0.2718
      5  CB        -9.5150   57.7780  -20.5700 C.3    27  ALA27       0.0304
      6  N         -6.9150   58.5020  -20.3070 N.am   28  ILE28      -0.1966
      7  CA        -5.6200   58.7420  -19.7140 C.3    28  ILE28       0.1727
      8  C         -5.0830   60.0100  -20.3660 C.2    28  ILE28       0.2616
      9  O         -5.2330   60.2400  -21.5690 O.2    28  ILE28      -0.2715
     10  CB        -4.6500   57.5490  -19.9280 C.3    28  ILE28       0.0290
     11  CG1       -4.0480   57.6050  -21.3200 C.3    28  ILE28       0.0022
     12  CG2       -5.3730   56.2320  -19.7330 C.3    28  ILE28       0.0023
     13  CD1       -2.8780   58.5640  -21.4230 C.3    28  ILE28       0.0001
     14  N         -4.4700   60.8370  -19.5410 N.am   29  TYR29      -0.1974
     15  CA        -3.9220   62.1000  -19.9680 C.3    29  TYR29       0.1639
     16  C         -2.4230   61.9920  -20.1970 C.2    29  TYR29       0.2290
     17  O         -1.7000   61.4790  -19.3430 O.2    29  TYR29      -0.2864
     18  CB        -4.2160   63.1300  -18.8830 C.3    29  TYR29       0.0560
     19  CG        -3.3210   64.3300  -18.8890 C.ar   29  TYR29      -0.0198
     20  CD1       -3.6890   65.4940  -19.5550 C.ar   29  TYR29      -0.0009
     21  CD2       -2.0910   64.2930  -18.2470 C.ar   29  TYR29      -0.0009
     22  CE1       -2.8490   66.5930  -19.5820 C.ar   29  TYR29       0.0417
     23  CE2       -1.2430   65.3760  -18.2710 C.ar   29  TYR29       0.0417
     24  CZ        -1.6210   66.5270  -18.9370 C.ar   29  TYR29       0.1957
     25  OH        -0.7580   67.6030  -18.9570 O.3    29  TYR29      -0.2866
     26  N          1.2650   60.8430  -21.9310 N.3    31  TYR31      -0.1241
     27  CA         1.8940   59.6320  -22.4600 C.3    31  TYR31       0.1605
     28  C          1.8100   59.5770  -23.9620 C.2    31  TYR31       0.2264
     29  O          1.4740   58.5450  -24.5320 O.2    31  TYR31      -0.2867
     30  CB         1.2220   58.3810  -21.9210 C.3    31  TYR31       0.0534
     31  CG         1.4810   58.1230  -20.4480 C.ar   31  TYR31      -0.0201
     32  CD1        2.8040   58.0370  -19.9560 C.ar   31  TYR31      -0.0009
     33  CD2        0.4170   57.9100  -19.5500 C.ar   31  TYR31      -0.0009
     34  CE1        3.0640   57.7380  -18.5960 C.ar   31  TYR31       0.0417
     35  CE2        0.6610   57.6090  -18.2050 C.ar   31  TYR31       0.0417
     36  CZ         1.9860   57.5220  -17.7300 C.ar   31  TYR31       0.1957
     37  OH         2.2360   57.2030  -16.4040 O.3    31  TYR31      -0.2866
     38  N          3.6740   51.7910   -9.2570 N.3    68  PRO68      -0.2102
     39  CA         2.2290   51.6060   -9.3030 C.3    68  PRO68       0.1504
     40  C          1.4920   52.9170   -9.4610 C.2    68  PRO68       0.2576
     41  O          2.0650   53.9800   -9.2190 O.2    68  PRO68      -0.2718
     42  CB         1.9290   50.9420   -7.9690 C.3    68  PRO68       0.0282
     43  CG         3.2130   50.2570   -7.6330 C.3    68  PRO68       0.0208
     44  CD         4.2100   51.3130   -7.9800 C.3    68  PRO68       0.0893
     45  N          0.2280   52.8300   -9.8750 N.am   69  GLY69      -0.1943
     46  CA        -0.6020   54.0130  -10.0470 C.3    69  GLY69       0.2014
     47  C         -0.1620   54.9640  -11.1430 C.2    69  GLY69       0.2639
     48  O         -0.2080   56.1900  -10.9710 O.2    69  GLY69      -0.2714
     49  N          0.2510   54.3910  -12.2710 N.am   70  VAL70      -0.1963
     50  CA         0.7130   55.1680  -13.4120 C.3    70  VAL70       0.1727
     51  C         -0.1750   55.0170  -14.6410 C.2    70  VAL70       0.2616
     52  O          0.1310   55.5790  -15.6800 O.2    70  VAL70      -0.2715
     53  CB         2.1420   54.7750  -13.8060 C.3    70  VAL70       0.0290
     54  CG1        3.1300   55.2610  -12.7660 C.3    70  VAL70       0.0023
     55  CG2        2.2260   53.2750  -13.9410 C.3    70  VAL70       0.0023
     56  N         -1.2520   54.2440  -14.5280 N.am   71  ALA71      -0.1963
     57  CA        -2.2060   54.0300  -15.6260 C.3    71  ALA71       0.1728
     58  C         -1.9610   52.8080  -16.4970 C.2    71  ALA71       0.2616
     59  O         -2.6860   52.5960  -17.4660 O.2    71  ALA71      -0.2715
     60  CB        -2.2920   55.2650  -16.5160 C.3    71  ALA71       0.0334
     61  N         -0.9580   52.0050  -16.1690 N.am   72  LYS72      -0.1963
     62  CA        -0.6670   50.8220  -16.9690 C.3    72  LYS72       0.1728
     63  C         -1.9230   49.9900  -17.1410 C.2    72  LYS72       0.2617
     64  O         -2.4550   49.8800  -18.2460 O.2    72  LYS72      -0.2715
     65  CB         0.4250   49.9900  -16.3030 C.3    72  LYS72       0.0311
     66  CG         1.7760   50.6660  -16.3010 C.3    72  LYS72       0.0038
     67  CD         2.7330   49.9790  -15.3640 C.3    72  LYS72       0.0206
     68  CE         2.2150   50.0330  -13.9450 C.3    72  LYS72       0.1093
     69  NZ         3.2100   49.4440  -13.0160 N.3    72  LYS72      -0.1314
     70  N         -2.3970   49.4140  -16.0410 N.am   73  SER73      -0.1936
     71  CA        -3.6010   48.5900  -16.0630 C.3    73  SER73       0.2055
     72  C         -4.6760   49.3000  -16.8940 C.2    73  SER73       0.2642
     73  O         -5.1940   48.7460  -17.8650 O.2    73  SER73      -0.2714
     74  CB        -4.0960   48.3360  -14.6220 C.3    73  SER73       0.2130
     75  OG        -3.1700   47.5600  -13.8530 O.3    73  SER73      -0.2179
     76  N         -4.9820   50.5380  -16.5200 N.am   74  GLN74      -0.1976
     77  CA        -5.9830   51.3430  -17.2170 C.3    74  GLN74       0.1601
     78  C         -5.7600   51.3070  -18.7280 C.2    74  GLN74       0.2287
     79  O         -6.5890   50.8020  -19.4730 O.2    74  GLN74      -0.2864
     80  CB        -5.9260   52.7910  -16.7130 C.3    74  GLN74       0.0394
     81  CG        -7.2700   53.4770  -16.6660 C.3    74  GLN74       0.0908
     82  CD        -8.3030   52.5940  -16.0180 C.2    74  GLN74       0.2608
     83  OE1       -8.0630   52.0300  -14.9540 O.2    74  GLN74      -0.2717
     84  NE2       -9.4590   52.4590  -16.6570 N.am   74  GLN74      -0.0878
     85  N          0.2100   43.0340  -15.8570 N.3    98  GLU98      -0.1245
     86  CA         0.8560   42.3420  -14.7380 C.3    98  GLU98       0.1567
     87  C          1.6730   41.1310  -15.1560 C.2    98  GLU98       0.2260
     88  O          1.6130   40.0900  -14.5160 O.2    98  GLU98      -0.2867
     89  CB        -0.1960   41.9050  -13.7230 C.3    98  GLU98       0.0388
     90  CG         0.2800   42.0320  -12.3050 C.3    98  GLU98       0.1160
     91  CD        -0.5100   43.0640  -11.5350 C.2    98  GLU98       0.3649
     92  OE1       -1.6470   42.7400  -11.1230 O.co2  98  GLU98      -0.2457
     93  OE2        0.0010   44.1930  -11.3550 O.co2  98  GLU98      -0.2457
     94  N          5.2990   45.4750  -13.1760 N.3   141  ASN141     -0.1240
     95  CA         5.8100   46.2700  -12.0630 C.3   141  ASN141      0.1653
     96  C          7.2040   45.7590  -11.7220 C.2   141  ASN141      0.2266
     97  O          7.6060   44.6780  -12.1480 O.2   141  ASN141     -0.2867
     98  CB         4.9030   46.1340  -10.8340 C.3   141  ASN141      0.1155
     99  CG         3.4380   46.3840  -11.1510 C.2   141  ASN141      0.2627
    100  OD1        2.8490   45.6940  -11.9870 O.2   141  ASN141     -0.2716
    101  ND2        2.8380   47.3640  -10.4770 N.am  141  ASN141     -0.0877
    102  N         -3.2700   65.9520  -14.4090 N.3   185  VAL185     -0.1245
    103  CA        -3.7730   64.5970  -14.3490 C.3   185  VAL185      0.1561
    104  C         -5.0690   64.4920  -13.5910 C.2   185  VAL185      0.2260
    105  O         -6.0410   63.9220  -14.0840 O.2   185  VAL185     -0.2867
    106  CB        -2.7910   63.6770  -13.6730 C.3   185  VAL185      0.0252
    107  CG1       -3.3050   62.2570  -13.7300 C.3   185  VAL185      0.0019
    108  CG2       -1.4540   63.7930  -14.3400 C.3   185  VAL185      0.0019
    109  N         -7.9470   66.2720  -15.0590 N.3   188  HIS188     -0.1226
    110  CA        -8.3680   65.4770  -16.1970 C.3   188  HIS188      0.1752
    111  C         -9.2730   64.3270  -15.7800 C.2   188  HIS188      0.2595
    112  O        -10.3380   64.1180  -16.3580 O.2   188  HIS188     -0.2718
    113  CB        -7.1510   64.9300  -16.9350 C.3   188  HIS188      0.0759
    114  CG        -7.4600   64.4270  -18.3110 C.ar  188  HIS188      0.0818
    115  ND1       -7.4040   65.2350  -19.4260 N.ar  188  HIS188     -0.2268
    116  CD2       -7.8570   63.2080  -18.7460 C.ar  188  HIS188      0.1154
    117  CE1       -7.7550   64.5340  -20.4900 C.ar  188  HIS188      0.1986
    118  NE2       -8.0350   63.3010  -20.1050 N.ar  188  HIS188     -0.2212
    119  N         -8.8450   63.5690  -14.7810 N.am  189  ILE189     -0.1980
    120  CA        -9.6450   62.4490  -14.3210 C.3   189  ILE189      0.1595
    121  C        -11.0430   62.9240  -14.0450 C.2   189  ILE189      0.2287
    122  O        -11.9810   62.4990  -14.7030 O.2   189  ILE189     -0.2864
    123  CB        -9.0790   61.8440  -13.0560 C.3   189  ILE189      0.0276
    124  CG1       -7.7010   61.2720  -13.3610 C.3   189  ILE189      0.0022
    125  CG2      -10.0140   60.7740  -12.5300 C.3   189  ILE189      0.0022
    126  CD1       -6.8660   61.0560  -12.1520 C.3   189  ILE189      0.0001
    127  N        -14.8330   61.8140  -15.9770 N.3   193  ARG193     -0.1245
    128  CA       -15.1570   60.9110  -14.8790 C.3   193  ARG193      0.1563
    129  C        -16.5330   61.2780  -14.3850 C.2   193  ARG193      0.2260
    130  O        -17.1310   60.5620  -13.5860 O.2   193  ARG193     -0.2867
    131  CB       -14.1340   61.0560  -13.7370 C.3   193  ARG193      0.0307
    132  CG       -14.4070   60.2500  -12.4500 C.3   193  ARG193      0.0489
    133  CD       -14.2770   58.7360  -12.6330 C.3   193  ARG193      0.2205
    134  NE       -14.4280   58.0130  -11.3700 N.pl3 193  ARG193     -0.0865
    135  CZ       -13.4210   57.6680  -10.5680 C.cat 193  ARG193      0.5346
    136  NH1      -12.1670   57.9710  -10.8890 N.pl3 193  ARG193      0.1354
    137  NH2      -13.6690   57.0190   -9.4340 N.pl3 193  ARG193      0.1354
@<TRIPOS>BOND
     1    29    28    2
     2    28    27    1
     3     1     2    1
     4    27    26    1
     5    27    30    1
     6    30    31    1
     7     9     8    2
     8    13    11    1
     9    11    10    1
    10     2     5    1
    11     2     3    1
    12   117   118   ar
    13   117   115   ar
    14     3     6   am
    15     3     4    2
    16    31    32   ar
    17    31    33   ar
    18     8     7    1
    19     8    14   am
    20     6     7    1
    21    16    15    1
    22    16    17    2
    23   118   116   ar
    24    15    14    1
    25    15    18    1
    26    32    34   ar
    27    10    12    1
    28    10     7    1
    29    22    20   ar
    30    22    24   ar
    31    20    19   ar
    32    33    35   ar
    33    79    78    2
    34   115   114   ar
    35    25    24    1
    36    24    23   ar
    37    19    18    1
    38    19    21   ar
    39   116   114   ar
    40    78    77    1
    41    34    36   ar
    42   114   113    1
    43    23    21   ar
    44    64    63    2
    45    35    36   ar
    46    73    72    2
    47    36    37    1
    48    59    58    2
    49    77    80    1
    50    77    76    1
    51    63    62    1
    52    63    70   am
    53    62    65    1
    54    62    61    1
    55   113   110    1
    56    72    76   am
    57    72    71    1
    58    80    81    1
    59    81    82    1
    60    84    82   am
    61    60    57    1
    62    58    61   am
    63    58    57    1
    64   112   111    2
    65    65    66    1
    66    66    67    1
    67   110   111    1
    68   110   109    1
    69    71    70    1
    70    71    74    1
    71    82    83    2
    72   127   128    1
    73    85    86    1
    74   111   119   am
    75    52    51    2
    76    57    56    1
    77    67    68    1
    78    87    86    1
    79    87    88    2
    80   128   129    1
    81   128   131    1
    82   119   120    1
    83    86    89    1
    84   122   121    2
    85    51    56   am
    86    51    50    1
    87    74    75    1
    88   102   103    1
    89   129   130    2
    90   103   106    1
    91   103   104    1
    92   108   106    1
    93   120   121    1
    94   120   123    1
    95   105   104    2
    96    68    69    1
    97    55    53    1
    98    53    50    1
    99    53    54    1
   100   131   132    1
   101   107   106    1
   102    89    90    1
   103    50    49    1
   104   124   123    1
   105   124   126    1
   106    94    95    1
   107   123   125    1
   108   133   132    1
   109   133   134    1
   110    90    91    1
   111    49    47   am
   112    97    96    2
   113    95    96    1
   114    95    98    1
   115   100    99    2
   116    91    93   ar
   117    91    92   ar
   118   134   135    2
   119    99    98    1
   120    99   101   am
   121    47    48    2
   122    47    46    1
   123   136   135    1
   124   135   137    1
   125    46    45    1
   126    45    40   am
   127    40    39    1
   128    40    41    2
   129    39    38    1
   130    39    42    1
   131    38    44    1
   132    44    43    1
   133    42    43    1
