@<TRIPOS>MOLECULE
tmp/4r81A00.pdb
 130 132 0 0 0
SMALL
GASTEIGER

@<TRIPOS>ATOM
      1  N         18.4020   53.3710   22.6030 N.3    11  HIS11      -0.1241
      2  CA        18.1640   54.8130   22.4840 C.3    11  HIS11       0.1621
      3  C         18.5980   55.2990   21.1030 C.2    11  HIS11       0.2264
      4  O         19.6810   54.9460   20.6390 O.2    11  HIS11      -0.2867
      5  CB        18.9170   55.5980   23.5640 C.3    11  HIS11       0.0745
      6  CG        18.3670   56.9700   23.7990 C.ar   11  HIS11       0.0817
      7  ND1       18.4230   57.9730   22.8540 N.ar   11  HIS11      -0.2268
      8  CD2       17.7400   57.5070   24.8740 C.ar   11  HIS11       0.1154
      9  CE1       17.8520   59.0610   23.3310 C.ar   11  HIS11       0.1986
     10  NE2       17.4300   58.8070   24.5570 N.ar   11  HIS11      -0.2212
     11  N         22.6110   61.2670   24.8680 N.3    16  SER16      -0.1202
     12  CA        21.4310   61.2880   25.7190 C.3    16  SER16       0.2020
     13  C         21.8970   60.9130   27.1060 C.2    16  SER16       0.2619
     14  O         23.0320   60.4780   27.2860 O.2    16  SER16      -0.2717
     15  CB        20.3980   60.2710   25.2460 C.3    16  SER16       0.2103
     16  OG        20.8840   58.9460   25.4060 O.3    16  SER16      -0.2182
     17  N         21.0300   61.0710   28.0910 N.am   17  PHE17      -0.1961
     18  CA        21.3970   60.6610   29.4360 C.3    17  PHE17       0.1771
     19  C         21.6310   59.1540   29.4860 C.2    17  PHE17       0.2620
     20  O         22.5340   58.6890   30.1780 O.2    17  PHE17      -0.2715
     21  CB        20.3410   61.0950   30.4480 C.3    17  PHE17       0.0574
     22  CG        20.6690   60.7080   31.8610 C.ar   17  PHE17      -0.0200
     23  CD1       21.7780   61.2420   32.5070 C.ar   17  PHE17      -0.0042
     24  CD2       19.8640   59.8140   32.5450 C.ar   17  PHE17      -0.0042
     25  CE1       22.0750   60.8820   33.8230 C.ar   17  PHE17      -0.0003
     26  CE2       20.1550   59.4460   33.8440 C.ar   17  PHE17      -0.0003
     27  CZ        21.2600   59.9840   34.4890 C.ar   17  PHE17      -0.0000
     28  N         20.8390   58.3940   28.7300 N.am   18  SER18      -0.1950
     29  CA        20.9740   56.9400   28.7280 C.3    18  SER18       0.1924
     30  C         22.3850   56.5150   28.3000 C.2    18  SER18       0.2314
     31  O         22.9460   55.5500   28.8240 O.2    18  SER18      -0.2863
     32  CB        19.9180   56.3000   27.8230 C.3    18  SER18       0.2116
     33  OG        18.6320   56.3810   28.4260 O.3    18  SER18      -0.2180
     34  N         15.5520   54.5670   28.2120 N.3    89  PRO89      -0.2102
     35  CA        14.6410   55.5510   28.8010 C.3    89  PRO89       0.1504
     36  C         13.2160   55.0140   28.9150 C.2    89  PRO89       0.2576
     37  O         12.7600   54.2360   28.0620 O.2    89  PRO89      -0.2718
     38  CB        14.6680   56.6880   27.7800 C.3    89  PRO89       0.0282
     39  CG        14.8700   55.9880   26.4710 C.3    89  PRO89       0.0208
     40  CD        15.7920   54.8230   26.7790 C.3    89  PRO89       0.0893
     41  N         12.5130   55.4450   29.9530 N.am   90  LEU90      -0.1966
     42  CA        11.1200   55.0780   30.1560 C.3    90  LEU90       0.1728
     43  C         10.2560   55.8640   29.1910 C.2    90  LEU90       0.2616
     44  O         10.2070   57.0870   29.2730 O.2    90  LEU90      -0.2715
     45  CB        10.7000   55.4070   31.5860 C.3    90  LEU90       0.0311
     46  CG         9.3540   54.8060   31.9810 C.3    90  LEU90       0.0022
     47  CD1        9.4200   53.3010   31.7690 C.3    90  LEU90       0.0001
     48  CD2        8.9830   55.1470   33.4190 C.3    90  LEU90       0.0001
     49  N          9.5790   55.1610   28.2860 N.am   91  TRP91      -0.1960
     50  CA         8.6720   55.7790   27.3190 C.3    91  TRP91       0.1771
     51  C          7.2850   55.1640   27.4570 C.2    91  TRP91       0.2620
     52  O          7.1010   53.9730   27.1920 O.2    91  TRP91      -0.2715
     53  CB         9.1560   55.5790   25.8750 C.3    91  TRP91       0.0590
     54  CG        10.3710   56.3690   25.4890 C.ar   91  TRP91       0.0006
     55  CD1       11.0090   57.3220   26.2320 C.ar   91  TRP91       0.0946
     56  CD2       11.1070   56.2530   24.2650 C.ar   91  TRP91       0.0152
     57  NE1       12.0960   57.8080   25.5410 N.ar   91  TRP91      -0.2442
     58  CE2       12.1770   57.1680   24.3320 C.ar   91  TRP91       0.0810
     59  CE3       10.9560   55.4680   23.1140 C.ar   91  TRP91       0.0012
     60  CZ2       13.1000   57.3190   23.2890 C.ar   91  TRP91       0.0191
     61  CZ3       11.8750   55.6130   22.0790 C.ar   91  TRP91       0.0001
     62  CH2       12.9400   56.5290   22.1800 C.ar   91  TRP91       0.0015
     63  N          6.3070   55.9680   27.8570 N.am   92  TRP92      -0.1960
     64  CA         4.9440   55.4720   28.0670 C.3    92  TRP92       0.1771
     65  C          4.9330   54.2330   28.9640 C.2    92  TRP92       0.2620
     66  O          4.2430   53.2400   28.7150 O.2    92  TRP92      -0.2715
     67  CB         4.1850   55.3180   26.7230 C.3    92  TRP92       0.0590
     68  CG         4.1680   56.6690   26.0560 C.ar   92  TRP92       0.0006
     69  CD1        4.9400   57.0840   25.0120 C.ar   92  TRP92       0.0946
     70  CD2        3.4210   57.8180   26.4830 C.ar   92  TRP92       0.0152
     71  NE1        4.6930   58.4160   24.7380 N.ar   92  TRP92      -0.2442
     72  CE2        3.7640   58.8860   25.6260 C.ar   92  TRP92       0.0810
     73  CE3        2.4740   58.0360   27.4880 C.ar   92  TRP92       0.0012
     74  CZ2        3.1970   60.1630   25.7520 C.ar   92  TRP92       0.0191
     75  CZ3        1.9090   59.3000   27.6110 C.ar   92  TRP92       0.0001
     76  CH2        2.2650   60.3450   26.7410 C.ar   92  TRP92       0.0015
     77  N          5.7320   54.3380   30.0230 N.am   93  SER93      -0.1950
     78  CA         5.7520   53.3790   31.1160 C.3    93  SER93       0.1924
     79  C          6.2380   51.9800   30.7520 C.2    93  SER93       0.2314
     80  O          5.9700   51.0300   31.4750 O.2    93  SER93      -0.2863
     81  CB         4.3890   53.3350   31.8140 C.3    93  SER93       0.2116
     82  OG         4.0860   54.6080   32.3650 O.3    93  SER93      -0.2180
     83  N         15.9890   55.1040   32.8820 N.3   128  SER128     -0.1202
     84  CA        15.9480   56.5430   33.1270 C.3   128  SER128      0.2020
     85  C         14.5260   57.0460   32.9260 C.2   128  SER128      0.2619
     86  O         13.8750   56.6910   31.9540 O.2   128  SER128     -0.2717
     87  CB        16.9030   57.2680   32.1780 C.3   128  SER128      0.2103
     88  OG        16.7360   58.6710   32.2680 O.3   128  SER128     -0.2182
     89  N         14.0310   57.8670   33.8500 N.am  129  ALA129     -0.1965
     90  CA        12.6490   58.3360   33.7560 C.3   129  ALA129      0.1728
     91  C         12.5440   59.8200   34.0450 C.2   129  ALA129      0.2617
     92  O         13.3250   60.3590   34.8260 O.2   129  ALA129     -0.2715
     93  CB        11.7610   57.5580   34.7150 C.3   129  ALA129      0.0334
     94  N         11.5840   60.4750   33.4040 N.am  130  GLY130     -0.1940
     95  CA        11.2850   61.8610   33.7040 C.3   130  GLY130      0.2014
     96  C         10.7060   62.0160   35.0990 C.2   130  GLY130      0.2638
     97  O         11.1160   62.8900   35.8670 O.2   130  GLY130     -0.2714
     98  N          9.7310   61.1720   35.4320 N.am  131  HIS131     -0.1973
     99  CA         9.1720   61.1690   36.7800 C.3   131  HIS131      0.1656
    100  C         10.2020   60.6960   37.7920 C.2   131  HIS131      0.2291
    101  O         11.1170   59.9520   37.4570 O.2   131  HIS131     -0.2864
    102  CB         7.9350   60.2760   36.8460 C.3   131  HIS131      0.0771
    103  CG         6.7220   60.9040   36.2460 C.ar  131  HIS131      0.0820
    104  ND1        6.1630   62.0560   36.7520 N.ar  131  HIS131     -0.2267
    105  CD2        5.9670   60.5530   35.1790 C.ar  131  HIS131      0.1154
    106  CE1        5.1110   62.3860   36.0250 C.ar  131  HIS131      0.1986
    107  NE2        4.9720   61.4930   35.0630 N.ar  131  HIS131     -0.2212
    108  N          6.6310   57.5170   40.6860 N.3   136  LEU136     -0.1245
    109  CA         6.3020   56.2470   40.0310 C.3   136  LEU136      0.1561
    110  C          5.9110   55.1530   41.0290 C.2   136  LEU136      0.2260
    111  O          5.0330   54.3360   40.7440 O.2   136  LEU136     -0.2867
    112  CB         7.4590   55.7650   39.1480 C.3   136  LEU136      0.0270
    113  CG         7.8140   56.6190   37.9280 C.3   136  LEU136      0.0019
    114  CD1        9.0520   56.0470   37.2610 C.3   136  LEU136      0.0001
    115  CD2        6.6590   56.6990   36.9320 C.3   136  LEU136      0.0001
    116  N         14.6540   62.9450   35.4480 N.3   170  MET170     -0.1245
    117  CA        15.3230   63.4360   34.2510 C.3   170  MET170      0.1570
    118  C         14.3380   64.1250   33.3090 C.2   170  MET170      0.2261
    119  O         14.0230   63.6160   32.2330 O.2   170  MET170     -0.2867
    120  CB        16.0490   62.2970   33.5360 C.3   170  MET170      0.0387
    121  CG        16.9060   61.4340   34.4610 C.3   170  MET170      0.0595
    122  SD        18.0090   62.3740   35.5340 S.3   170  MET170     -0.1393
    123  CE        19.1190   63.1200   34.3270 C.3   170  MET170      0.0692
    124  N         13.3910   67.3670   30.8380 N.3   172  PRO172     -0.2116
    125  CA        14.1540   68.2510   29.9480 C.3   172  PRO172      0.1372
    126  C         14.5450   69.5740   30.6070 C.2   172  PRO172      0.2244
    127  O         13.6920   70.2480   31.1870 O.2   172  PRO172     -0.2868
    128  CB        13.1750   68.5100   28.8010 C.3   172  PRO172      0.0268
    129  CG        12.3270   67.2830   28.7630 C.3   172  PRO172      0.0207
    130  CD        12.1690   66.8510   30.1930 C.3   172  PRO172      0.0892
@<TRIPOS>BOND
     1     4     3    2
     2     3     2    1
     3    61    62   ar
     4    61    59   ar
     5    62    60   ar
     6     2     1    1
     7     2     5    1
     8     7     9   ar
     9     7     6   ar
    10    59    56   ar
    11    60    58   ar
    12     9    10   ar
    13     5     6    1
    14     6     8   ar
    15    56    58   ar
    16    56    54   ar
    17    58    57   ar
    18    10     8   ar
    19    71    69   ar
    20    71    72   ar
    21    11    12    1
    22    69    68   ar
    23    15    16    1
    24    15    12    1
    25    54    53    1
    26    54    55   ar
    27    57    55   ar
    28    72    74   ar
    29    72    70   ar
    30    12    13    1
    31    74    76   ar
    32    53    50    1
    33    68    70   ar
    34    68    67    1
    35    39    40    1
    36    39    38    1
    37    70    73   ar
    38    67    64    1
    39    76    75   ar
    40    40    34    1
    41    13    14    2
    42    13    17   am
    43    52    51    2
    44    50    51    1
    45    50    49    1
    46    51    63   am
    47    73    75   ar
    48    38    35    1
    49    32    33    1
    50    32    29    1
    51    63    64    1
    52    37    36    2
    53    64    65    1
    54    17    18    1
    55    34    35    1
    56    49    43   am
    57    30    29    1
    58    30    31    2
    59    66    65    2
    60    29    28    1
    61    28    19   am
    62   129   128    1
    63   129   130    1
    64   128   125    1
    65    35    36    1
    66    36    41   am
    67    65    77   am
    68    43    44    2
    69    43    42    1
    70    18    19    1
    71    18    21    1
    72    19    20    2
    73   125   126    1
    74   125   124    1
    75    41    42    1
    76    77    78    1
    77    42    45    1
    78   130   124    1
    79    21    22    1
    80   126   127    2
    81    79    78    1
    82    79    80    2
    83    78    81    1
    84    45    46    1
    85    47    46    1
    86    81    82    1
    87    22    23   ar
    88    22    24   ar
    89    86    85    2
    90    46    48    1
    91    87    88    1
    92    87    84    1
    93   119   118    2
    94    23    25   ar
    95    24    26   ar
    96    83    84    1
    97    85    84    1
    98    85    89   am
    99   118   117    1
   100    94    95    1
   101    94    91   am
   102   120   117    1
   103   120   121    1
   104    95    96    1
   105    90    89    1
   106    90    91    1
   107    90    93    1
   108    25    27   ar
   109    26    27   ar
   110    91    92    2
   111   117   116    1
   112   123   122    1
   113   121   122    1
   114   107   105   ar
   115   107   106   ar
   116    96    98   am
   117    96    97    2
   118   105   103   ar
   119    98    99    1
   120   106   104   ar
   121   103   104   ar
   122   103   102    1
   123    99   102    1
   124    99   100    1
   125   115   113    1
   126   114   113    1
   127   101   100    2
   128   113   112    1
   129   112   109    1
   130   109   108    1
   131   109   110    1
   132   111   110    2
