@<TRIPOS>MOLECULE
tmp/4r82A01.pdb
 87 80 0 0 0
SMALL
GASTEIGER

@<TRIPOS>ATOM
      1  N          2.0650    5.6410   20.0680 N.3    14  ARG14      -0.1245
      2  CA         2.7890    6.1360   18.9040 C.3    14  ARG14       0.1563
      3  C          3.2060    7.5800   19.1330 C.2    14  ARG14       0.2260
      4  O          4.2380    8.0020   18.6330 O.2    14  ARG14      -0.2867
      5  CB         1.9620    5.9900   17.6270 C.3    14  ARG14       0.0307
      6  CG         2.0030    4.5710   17.0710 C.3    14  ARG14       0.0489
      7  CD         0.8980    4.3180   16.0470 C.3    14  ARG14       0.2205
      8  NE         1.0980    5.0720   14.8120 N.pl3  14  ARG14      -0.0865
      9  CZ         0.5310    4.7570   13.6510 C.cat  14  ARG14       0.5346
     10  NH1        0.7600    5.5000   12.5760 N.pl3  14  ARG14       0.1354
     11  NH2       -0.2680    3.6970   13.5640 N.pl3  14  ARG14       0.1354
     12  N         12.8880    3.4170   10.4620 N.3    39  ASN39      -0.1225
     13  CA        13.5860    4.2660   11.4200 C.3    39  ASN39       0.1785
     14  C         14.0460    3.5080   12.6700 C.2    39  ASN39       0.2597
     15  O         14.6600    4.0910   13.5610 O.2    39  ASN39      -0.2718
     16  CB        12.7340    5.4780   11.7940 C.3    39  ASN39       0.1169
     17  CG        11.6390    5.1310   12.7650 C.2    39  ASN39       0.2627
     18  OD1       11.1070    4.0220   12.7470 O.2    39  ASN39      -0.2716
     19  ND2       11.3120    6.0680   13.6490 N.am   39  ASN39      -0.0877
     20  N         13.7710    2.2070   12.7180 N.am   40  SER40      -0.1952
     21  CA        14.1530    1.3840   13.8640 C.3    40  SER40       0.1924
     22  C         15.6290    0.9660   13.8020 C.2    40  SER40       0.2314
     23  O         16.1030    0.2270   14.6620 O.2    40  SER40      -0.2863
     24  CB        13.2670    0.1380   13.9350 C.3    40  SER40       0.2116
     25  OG        13.4840   -0.6750   12.7930 O.3    40  SER40      -0.2180
     26  N         14.1510   -3.3310   13.2200 N.3    54  CYS54      -0.1235
     27  CA        12.9420   -3.9940   13.7000 C.3    54  CYS54       0.1677
     28  C         11.9260   -3.8990   12.5890 C.2    54  CYS54       0.2270
     29  O         11.6590   -2.8010   12.1000 O.2    54  CYS54      -0.2867
     30  CB        12.3890   -3.2690   14.9290 C.3    54  CYS54       0.0956
     31  SG        13.5780   -3.2000   16.2970 S.3    54  CYS54      -0.0801
     32  N          8.0750   -5.1340   11.1100 N.3    56  GLY56      -0.1225
     33  CA         6.7690   -5.6820   11.4170 C.3    56  GLY56       0.1811
     34  C          6.5480   -7.0460   10.7990 C.2    56  GLY56       0.2280
     35  O          6.9160   -7.2900    9.6390 O.2    56  GLY56      -0.2866
     36  N          8.9840    8.5680    1.5770 N.3    84  ARG84      -0.1245
     37  CA         7.5600    8.3160    1.3750 C.3    84  ARG84       0.1563
     38  C          7.3190    7.1520    0.4240 C.2    84  ARG84       0.2260
     39  O          6.4350    6.3190    0.6530 O.2    84  ARG84      -0.2867
     40  CB         6.8560    9.5780    0.8870 C.3    84  ARG84       0.0307
     41  CG         6.8110   10.6640    1.9430 C.3    84  ARG84       0.0489
     42  CD         5.9950   11.8600    1.4790 C.3    84  ARG84       0.2205
     43  NE         6.0900   12.9570    2.4380 N.pl3  84  ARG84      -0.0865
     44  CZ         5.3430   13.0490    3.5330 C.cat  84  ARG84       0.5346
     45  NH1        5.4920   14.0760    4.3590 N.pl3  84  ARG84       0.1354
     46  NH2        4.4480   12.1090    3.8030 N.pl3  84  ARG84       0.1354
     47  N          7.7740    3.7680    1.9330 N.3    87  ALA87      -0.1245
     48  CA         6.8120    3.5100    3.0040 C.3    87  ALA87       0.1562
     49  C          5.4260    3.1810    2.4480 C.2    87  ALA87       0.2260
     50  O          4.5150    2.8180    3.2080 O.2    87  ALA87      -0.2867
     51  CB         6.7280    4.7000    3.9390 C.3    87  ALA87       0.0290
     52  N          7.0240   -7.2350   16.0570 N.3   130  HIS130     -0.1241
     53  CA         8.1150   -7.0660   15.1080 C.3   130  HIS130      0.1621
     54  C          9.0990   -8.1910   15.3350 C.2   130  HIS130      0.2264
     55  O          9.0840   -8.8470   16.3840 O.2   130  HIS130     -0.2867
     56  CB         8.8520   -5.7400   15.3300 C.3   130  HIS130      0.0745
     57  CG         8.1300   -4.5350   14.8110 C.ar  130  HIS130      0.0817
     58  ND1        6.8080   -4.2660   15.1070 N.ar  130  HIS130     -0.2268
     59  CD2        8.5580   -3.5070   14.0400 C.ar  130  HIS130      0.1154
     60  CE1        6.4540   -3.1330   14.5290 C.ar  130  HIS130      0.1986
     61  NE2        7.4970   -2.6530   13.8730 N.ar  130  HIS130     -0.2212
     62  N         13.1470   12.3810   11.5280 N.3   150  PHE150     -0.1241
     63  CA        11.7530   11.9860   11.7200 C.3   150  PHE150      0.1605
     64  C         11.4870   12.1300   13.2180 C.2   150  PHE150      0.2264
     65  O         12.1540   11.4920   14.0500 O.2   150  PHE150     -0.2867
     66  CB        11.5930   10.5240   11.2820 C.3   150  PHE150      0.0534
     67  CG        10.1890    9.9780   11.3940 C.ar  150  PHE150     -0.0203
     68  CD1        9.1110   10.6390   10.8240 C.ar  150  PHE150     -0.0042
     69  CD2        9.9670    8.7520   12.0210 C.ar  150  PHE150     -0.0042
     70  CE1        7.8290   10.1110   10.9120 C.ar  150  PHE150     -0.0003
     71  CE2        8.6850    8.2270   12.1130 C.ar  150  PHE150     -0.0003
     72  CZ         7.6270    8.9070   11.5580 C.ar  150  PHE150     -0.0000
     73  N          6.2260   12.2590   14.4210 N.3   153  GLY153     -0.1225
     74  CA         5.4610   11.7880   13.2790 C.3   153  GLY153      0.1811
     75  C          5.6430   12.6260   12.0250 C.2   153  GLY153      0.2280
     76  O          4.8980   12.4640   11.0540 O.2   153  GLY153     -0.2866
     77  N          8.5340   14.6880    9.1890 N.3   155  PHE155     -0.1241
     78  CA         9.9070   14.8210    8.7210 C.3   155  PHE155      0.1605
     79  C         10.4110   16.2060    9.1240 C.2   155  PHE155      0.2264
     80  O          9.6690   17.1900    9.0740 O.2   155  PHE155     -0.2867
     81  CB         9.9930   14.6060    7.2120 C.3   155  PHE155      0.0534
     82  CG         9.6850   13.1900    6.7820 C.ar  155  PHE155     -0.0203
     83  CD1       10.2450   12.1100    7.4460 C.ar  155  PHE155     -0.0042
     84  CD2        8.8130   12.9490    5.7320 C.ar  155  PHE155     -0.0042
     85  CE1        9.9580   10.8080    7.0490 C.ar  155  PHE155     -0.0003
     86  CE2        8.5280   11.6540    5.3280 C.ar  155  PHE155     -0.0003
     87  CZ         9.0950   10.5860    5.9950 C.ar  155  PHE155     -0.0000
@<TRIPOS>BOND
     1    38    39    2
     2    38    37    1
     3    40    37    1
     4    40    41    1
     5    37    36    1
     6    42    41    1
     7    42    43    1
     8    47    48    1
     9    43    44    2
    10    49    48    1
    11    49    50    2
    12    48    51    1
    13    44    46    1
    14    44    45    1
    15    86    84   ar
    16    86    87   ar
    17    84    82   ar
    18    87    85   ar
    19    82    81    1
    20    82    83   ar
    21    85    83   ar
    22    81    78    1
    23    78    79    1
    24    78    77    1
    25    80    79    2
    26    35    34    2
    27    12    13    1
    28    34    33    1
    29    68    70   ar
    30    68    67   ar
    31    70    72   ar
    32    76    75    2
    33    32    33    1
    34    66    67    1
    35    66    63    1
    36    67    69   ar
    37    13    16    1
    38    13    14    1
    39    62    63    1
    40    72    71   ar
    41    63    64    1
    42    16    17    1
    43    69    71   ar
    44    75    74    1
    45    29    28    2
    46    10     9    1
    47    28    27    1
    48    14    20   am
    49    14    15    2
    50    20    21    1
    51    18    17    2
    52    17    19   am
    53    25    24    1
    54    64    65    2
    55    26    27    1
    56    74    73    1
    57    11     9    1
    58     9     8    2
    59    27    30    1
    60    22    21    1
    61    22    23    2
    62    21    24    1
    63    61    59   ar
    64    61    60   ar
    65    59    57   ar
    66    60    58   ar
    67    57    58   ar
    68    57    56    1
    69     8     7    1
    70    30    31    1
    71    53    56    1
    72    53    54    1
    73    53    52    1
    74    54    55    2
    75     7     6    1
    76     6     5    1
    77     5     2    1
    78     4     3    2
    79     2     3    1
    80     2     1    1
