@<TRIPOS>MOLECULE
tmp/4r82A02.pdb
 163 158 0 0 0
SMALL
GASTEIGER

@<TRIPOS>ATOM
      1  N         16.1830    8.4700    9.1300 N.3    24  VAL24      -0.1245
      2  CA        15.3100    7.6100    8.3410 C.3    24  VAL24       0.1561
      3  C         16.1960    6.8310    7.3940 C.2    24  VAL24       0.2260
      4  O         17.0830    7.4110    6.7670 O.2    24  VAL24      -0.2867
      5  CB        14.3210    8.4480    7.5090 C.3    24  VAL24       0.0252
      6  CG1       13.3620    7.5350    6.7600 C.3    24  VAL24       0.0019
      7  CG2       13.5410    9.4110    8.4020 C.3    24  VAL24       0.0019
      8  N         13.4500   -5.5810   -2.9530 N.3    35  ARG35      -0.1245
      9  CA        12.4200   -4.8100   -2.2760 C.3    35  ARG35       0.1563
     10  C         13.1000   -3.7960   -1.3820 C.2    35  ARG35       0.2260
     11  O         14.2310   -4.0130   -0.9300 O.2    35  ARG35      -0.2867
     12  CB        11.5470   -5.7440   -1.4290 C.3    35  ARG35       0.0307
     13  CG        10.3430   -5.0480   -0.8000 C.3    35  ARG35       0.0489
     14  CD         9.1760   -4.7970   -1.7720 C.3    35  ARG35       0.2205
     15  NE         7.9620   -4.4590   -1.0290 N.pl3  35  ARG35      -0.0865
     16  CZ         6.7720   -4.4760   -1.5610 C.cat  35  ARG35       0.5346
     17  NH1        6.6530   -4.5540   -2.8920 N.pl3  35  ARG35       0.1354
     18  NH2        5.7240   -4.3190   -0.7830 N.pl3  35  ARG35       0.1354
     19  N         10.9920    1.6650    4.0370 N.3    37  THR37      -0.1203
     20  CA        11.4480    2.7580    4.8860 C.3    37  THR37       0.1994
     21  C         11.4700    2.2970    6.3460 C.2    37  THR37       0.2618
     22  O         10.5270    1.6310    6.8180 O.2    37  THR37      -0.2717
     23  CB        10.5450    3.9810    4.7000 C.3    37  THR37       0.1784
     24  OG1       10.6240    4.4130    3.3350 O.3    37  THR37      -0.2211
     25  CG2       10.9700    5.1140    5.6210 C.3    37  THR37       0.0376
     26  N         12.5640    2.5970    7.0430 N.am   38  ALA38      -0.1965
     27  CA        12.7410    2.1320    8.4220 C.3    38  ALA38       0.1728
     28  C         13.4540    3.1400    9.2900 C.2    38  ALA38       0.2616
     29  O         14.5410    3.6290    8.9270 O.2    38  ALA38      -0.2715
     30  CB        13.4950    0.8040    8.4490 C.3    38  ALA38       0.0334
     31  N         12.8880    3.4170   10.4620 N.am   39  ASN39      -0.1958
     32  CA        13.5860    4.2660   11.4200 C.3    39  ASN39       0.1819
     33  C         14.0460    3.5080   12.6700 C.2    39  ASN39       0.2622
     34  O         14.6600    4.0910   13.5610 O.2    39  ASN39      -0.2715
     35  CB        12.7340    5.4780   11.7940 C.3    39  ASN39       0.1195
     36  CG        11.6390    5.1310   12.7650 C.2    39  ASN39       0.2630
     37  OD1       11.1070    4.0220   12.7470 O.2    39  ASN39      -0.2716
     38  ND2       11.3120    6.0680   13.6490 N.am   39  ASN39      -0.0877
     39  N         13.7710    2.2070   12.7180 N.am   40  SER40      -0.1950
     40  CA        14.1530    1.3840   13.8640 C.3    40  SER40       0.1924
     41  C         15.6290    0.9660   13.8020 C.2    40  SER40       0.2314
     42  O         16.1030    0.2270   14.6620 O.2    40  SER40      -0.2863
     43  CB        13.2670    0.1380   13.9350 C.3    40  SER40       0.2116
     44  OG        13.4840   -0.6750   12.7930 O.3    40  SER40      -0.2180
     45  N         14.1510   -3.3310   13.2200 N.3    54  CYS54      -0.1221
     46  CA        12.9420   -3.9940   13.7000 C.3    54  CYS54       0.1808
     47  C         11.9260   -3.8990   12.5890 C.2    54  CYS54       0.2601
     48  O         11.6590   -2.8010   12.1000 O.2    54  CYS54      -0.2717
     49  CB        12.3890   -3.2690   14.9290 C.3    54  CYS54       0.0970
     50  SG        13.5780   -3.2000   16.2970 S.3    54  CYS54      -0.0800
     51  N         11.3680   -5.0390   12.1950 N.am   55  VAL55      -0.1965
     52  CA        10.4910   -5.1030   11.0330 C.3    55  VAL55       0.1727
     53  C          9.1920   -5.7890   11.4090 C.2    55  VAL55       0.2616
     54  O          9.1960   -6.8960   11.9670 O.2    55  VAL55      -0.2715
     55  CB        11.1670   -5.8560    9.8640 C.3    55  VAL55       0.0290
     56  CG1       10.2410   -5.9440    8.6620 C.3    55  VAL55       0.0023
     57  CG2       12.4560   -5.1480    9.4640 C.3    55  VAL55       0.0023
     58  N          8.0750   -5.1340   11.1100 N.am   56  GLY56      -0.1955
     59  CA         6.7690   -5.6820   11.4170 C.3    56  GLY56       0.1869
     60  C          6.5480   -7.0460   10.7990 C.2    56  GLY56       0.2309
     61  O          6.9160   -7.2900    9.6390 O.2    56  GLY56      -0.2863
     62  N          3.9990   -8.4520    9.6110 N.3    58  ASP58      -0.1225
     63  CA         3.1240   -8.4910    8.4400 C.3    58  ASP58       0.1805
     64  C          3.6630   -7.7430    7.2130 C.2    58  ASP58       0.2598
     65  O          2.9930   -7.6590    6.1880 O.2    58  ASP58      -0.2718
     66  CB         1.7280   -7.9820    8.8070 C.3    58  ASP58       0.1424
     67  CG         1.0180   -8.8930    9.7960 C.2    58  ASP58       0.3668
     68  OD1        1.2340  -10.1270    9.7430 O.co2  58  ASP58      -0.2456
     69  OD2        0.2410   -8.3730   10.6260 O.co2  58  ASP58      -0.2456
     70  N          4.8720   -7.2030    7.3040 N.am   59  ALA59      -0.1966
     71  CA         5.4830   -6.5660    6.1390 C.3    59  ALA59       0.1728
     72  C          6.0190   -7.6300    5.1770 C.2    59  ALA59       0.2616
     73  O          6.5420   -8.6540    5.6170 O.2    59  ALA59      -0.2715
     74  CB         6.6130   -5.6370    6.5790 C.3    59  ALA59       0.0334
     75  N          5.9150   -7.3880    3.8710 N.am   60  VAL60      -0.1977
     76  CA         6.5600   -8.2640    2.8860 C.3    60  VAL60       0.1596
     77  C          8.0630   -8.3290    3.1290 C.2    60  VAL60       0.2287
     78  O          8.6930   -9.3850    2.9780 O.2    60  VAL60      -0.2864
     79  CB         6.2690   -7.8120    1.4430 C.3    60  VAL60       0.0276
     80  CG1        7.2100   -8.4900    0.4550 C.3    60  VAL60       0.0022
     81  CG2        4.8280   -8.1110    1.0840 C.3    60  VAL60       0.0022
     82  N         11.7350    8.5490    1.0750 N.3    83  ALA83      -0.1231
     83  CA        11.2170    8.0110    2.3290 C.3    83  ALA83       0.1694
     84  C          9.7390    7.6660    2.1880 C.2    83  ALA83       0.2591
     85  O          9.2930    6.6050    2.6250 O.2    83  ALA83      -0.2718
     86  CB        11.4290    8.9870    3.4690 C.3    83  ALA83       0.0304
     87  N          8.9840    8.5680    1.5770 N.am   84  ARG84      -0.1980
     88  CA         7.5600    8.3160    1.3750 C.3    84  ARG84       0.1597
     89  C          7.3190    7.1520    0.4240 C.2    84  ARG84       0.2287
     90  O          6.4350    6.3190    0.6530 O.2    84  ARG84      -0.2864
     91  CB         6.8560    9.5780    0.8870 C.3    84  ARG84       0.0334
     92  CG         6.8110   10.6640    1.9430 C.3    84  ARG84       0.0492
     93  CD         5.9950   11.8600    1.4790 C.3    84  ARG84       0.2205
     94  NE         6.0900   12.9570    2.4380 N.pl3  84  ARG84      -0.0865
     95  CZ         5.3430   13.0490    3.5330 C.cat  84  ARG84       0.5346
     96  NH1        5.4920   14.0760    4.3590 N.pl3  84  ARG84       0.1354
     97  NH2        4.4480   12.1090    3.8030 N.pl3  84  ARG84       0.1354
     98  N          9.1570    4.4700   -0.2830 N.3    86  PHE86      -0.1227
     99  CA         9.4420    3.1550    0.2750 C.3    86  PHE86       0.1736
    100  C          8.6400    2.8390    1.5330 C.2    86  PHE86       0.2595
    101  O          8.7870    1.7690    2.1220 O.2    86  PHE86      -0.2718
    102  CB        10.9510    2.9860    0.4970 C.3    86  PHE86       0.0547
    103  CG        11.7130    2.7930   -0.7870 C.ar   86  PHE86      -0.0202
    104  CD1       11.6380    1.5790   -1.4710 C.ar   86  PHE86      -0.0042
    105  CD2       12.4700    3.8260   -1.3250 C.ar   86  PHE86      -0.0042
    106  CE1       12.3330    1.3960   -2.6640 C.ar   86  PHE86      -0.0003
    107  CE2       13.1620    3.6510   -2.5230 C.ar   86  PHE86      -0.0003
    108  CZ        13.0890    2.4400   -3.1910 C.ar   86  PHE86      -0.0000
    109  N          7.7740    3.7680    1.9330 N.am   87  ALA87      -0.1966
    110  CA         6.8120    3.5100    3.0040 C.3    87  ALA87       0.1728
    111  C          5.4260    3.1810    2.4480 C.2    87  ALA87       0.2616
    112  O          4.5150    2.8180    3.2080 O.2    87  ALA87      -0.2715
    113  CB         6.7280    4.7000    3.9390 C.3    87  ALA87       0.0334
    114  N          5.2560    3.3390    1.1350 N.am   88  ASP88      -0.1957
    115  CA         3.9720    3.0920    0.4940 C.3    88  ASP88       0.1840
    116  C          3.6950    1.5960    0.4890 C.2    88  ASP88       0.2622
    117  O          4.5460    0.8040    0.0870 O.2    88  ASP88      -0.2715
    118  CB         3.9790    3.6270   -0.9440 C.3    88  ASP88       0.1450
    119  CG         2.6070    3.5890   -1.5930 C.2    88  ASP88       0.3671
    120  OD1        1.6780    2.9860   -1.0100 O.co2  88  ASP88      -0.2456
    121  OD2        2.4590    4.1610   -2.6960 O.co2  88  ASP88      -0.2456
    122  N          2.5050    1.2080    0.9330 N.am   89  HIS89      -0.1973
    123  CA         2.1470   -0.2080    0.9680 C.3    89  HIS89       0.1656
    124  C          1.9180   -0.7700   -0.4350 C.2    89  HIS89       0.2291
    125  O          2.1530   -1.9580   -0.6740 O.2    89  HIS89      -0.2864
    126  CB         0.9090   -0.4420    1.8390 C.3    89  HIS89       0.0771
    127  CG         0.6040   -1.8890    2.0750 C.ar   89  HIS89       0.0820
    128  ND1        1.0520   -2.5740    3.1840 N.ar   89  HIS89      -0.2267
    129  CD2       -0.1020   -2.7820    1.3410 C.ar   89  HIS89       0.1154
    130  CE1        0.6330   -3.8260    3.1250 C.ar   89  HIS89       0.1986
    131  NE2       -0.0680   -3.9790    2.0160 N.ar   89  HIS89      -0.2212
    132  N          7.0240   -7.2350   16.0570 N.3   130  HIS130     -0.1241
    133  CA         8.1150   -7.0660   15.1080 C.3   130  HIS130      0.1621
    134  C          9.0990   -8.1910   15.3350 C.2   130  HIS130      0.2264
    135  O          9.0840   -8.8470   16.3840 O.2   130  HIS130     -0.2867
    136  CB         8.8520   -5.7400   15.3300 C.3   130  HIS130      0.0745
    137  CG         8.1300   -4.5350   14.8110 C.ar  130  HIS130      0.0817
    138  ND1        6.8080   -4.2660   15.1070 N.ar  130  HIS130     -0.2268
    139  CD2        8.5580   -3.5070   14.0400 C.ar  130  HIS130      0.1154
    140  CE1        6.4540   -3.1330   14.5290 C.ar  130  HIS130      0.1986
    141  NE2        7.4970   -2.6530   13.8730 N.ar  130  HIS130     -0.2212
    142  N         13.1470   12.3810   11.5280 N.3   150  PHE150     -0.1241
    143  CA        11.7530   11.9860   11.7200 C.3   150  PHE150      0.1605
    144  C         11.4870   12.1300   13.2180 C.2   150  PHE150      0.2264
    145  O         12.1540   11.4920   14.0500 O.2   150  PHE150     -0.2867
    146  CB        11.5930   10.5240   11.2820 C.3   150  PHE150      0.0534
    147  CG        10.1890    9.9780   11.3940 C.ar  150  PHE150     -0.0203
    148  CD1        9.1110   10.6390   10.8240 C.ar  150  PHE150     -0.0042
    149  CD2        9.9670    8.7520   12.0210 C.ar  150  PHE150     -0.0042
    150  CE1        7.8290   10.1110   10.9120 C.ar  150  PHE150     -0.0003
    151  CE2        8.6850    8.2270   12.1130 C.ar  150  PHE150     -0.0003
    152  CZ         7.6270    8.9070   11.5580 C.ar  150  PHE150     -0.0000
    153  N          8.5340   14.6880    9.1890 N.3   155  PHE155     -0.1241
    154  CA         9.9070   14.8210    8.7210 C.3   155  PHE155      0.1605
    155  C         10.4110   16.2060    9.1240 C.2   155  PHE155      0.2264
    156  O          9.6690   17.1900    9.0740 O.2   155  PHE155     -0.2867
    157  CB         9.9930   14.6060    7.2120 C.3   155  PHE155      0.0534
    158  CG         9.6850   13.1900    6.7820 C.ar  155  PHE155     -0.0203
    159  CD1       10.2450   12.1100    7.4460 C.ar  155  PHE155     -0.0042
    160  CD2        8.8130   12.9490    5.7320 C.ar  155  PHE155     -0.0042
    161  CE1        9.9580   10.8080    7.0490 C.ar  155  PHE155     -0.0003
    162  CE2        8.5280   11.6540    5.3280 C.ar  155  PHE155     -0.0003
    163  CZ         9.0950   10.5860    5.9950 C.ar  155  PHE155     -0.0000
@<TRIPOS>BOND
     1   108   106   ar
     2   108   107   ar
     3     8     9    1
     4    17    16    1
     5   121   119   ar
     6   106   104   ar
     7   107   105   ar
     8     9    12    1
     9     9    10    1
    10    14    15    1
    11    14    13    1
    12   119   120   ar
    13   119   118    1
    14    16    15    2
    15    16    18    1
    16   104   103   ar
    17    12    13    1
    18    10    11    2
    19   105   103   ar
    20   118   115    1
    21   103   102    1
    22   125   124    2
    23   124   123    1
    24    98    99    1
    25   117   116    2
    26    99   102    1
    27    99   100    1
    28    89    90    2
    29    89    88    1
    30    80    79    1
    31   116   115    1
    32   116   122   am
    33   115   114    1
    34    91    88    1
    35    91    92    1
    36   122   123    1
    37   123   126    1
    38    82    83    1
    39    81    79    1
    40   114   111   am
    41   129   131   ar
    42   129   127   ar
    43    88    87    1
    44    79    76    1
    45    93    92    1
    46    93    94    1
    47   100   109   am
    48   100   101    2
    49    87    84   am
    50   126   127    1
    51   109   110    1
    52   131   130   ar
    53   127   128   ar
    54    84    83    1
    55    84    85    2
    56    83    86    1
    57    94    95    2
    58   111   110    1
    59   111   112    2
    60    76    77    1
    61    76    75    1
    62    78    77    2
    63   110   113    1
    64   130   128   ar
    65    24    23    1
    66    95    97    1
    67    95    96    1
    68    75    72   am
    69    19    20    1
    70    23    20    1
    71    23    25    1
    72    20    21    1
    73    72    73    2
    74    72    71    1
    75   162   160   ar
    76   162   163   ar
    77   160   158   ar
    78   163   161   ar
    79    71    74    1
    80    71    70    1
    81    65    64    2
    82    21    22    2
    83    21    26   am
    84     6     5    1
    85     4     3    2
    86   158   157    1
    87   158   159   ar
    88    26    27    1
    89   161   159   ar
    90   157   154    1
    91    64    70   am
    92    64    63    1
    93     3     2    1
    94     5     2    1
    95     5     7    1
    96     2     1    1
    97    27    30    1
    98    27    28    1
    99    63    66    1
   100    63    62    1
   101    56    55    1
   102   154   155    1
   103   154   153    1
   104    66    67    1
   105    29    28    2
   106   156   155    2
   107    28    31   am
   108    57    55    1
   109    61    60    2
   110    68    67   ar
   111    67    69   ar
   112    55    52    1
   113    31    32    1
   114    60    59    1
   115   148   150   ar
   116   148   147   ar
   117   150   152   ar
   118    52    53    1
   119    52    51    1
   120    58    53   am
   121    58    59    1
   122   146   147    1
   123   146   143    1
   124   147   149   ar
   125    53    54    2
   126    32    35    1
   127    32    33    1
   128   142   143    1
   129   152   151   ar
   130   143   144    1
   131    35    36    1
   132   149   151   ar
   133    48    47    2
   134    51    47   am
   135    47    46    1
   136    33    39   am
   137    33    34    2
   138    39    40    1
   139    37    36    2
   140    36    38   am
   141    44    43    1
   142   144   145    2
   143    45    46    1
   144    46    49    1
   145    41    40    1
   146    41    42    2
   147    40    43    1
   148   141   139   ar
   149   141   140   ar
   150   139   137   ar
   151   140   138   ar
   152   137   138   ar
   153   137   136    1
   154    49    50    1
   155   133   136    1
   156   133   134    1
   157   133   132    1
   158   134   135    2
