@<TRIPOS>MOLECULE
tmp/4r84D00.pdb
 187 183 0 0 0
SMALL
GASTEIGER

@<TRIPOS>ATOM
      1  N         54.5050  -25.0870   45.9140 N.3    99  SER99      -0.1217
      2  CA        54.4630  -25.6060   44.5390 C.3    99  SER99       0.1889
      3  C         54.6540  -24.5190   43.4980 C.2    99  SER99       0.2288
      4  O         55.5220  -24.6070   42.6180 O.2    99  SER99      -0.2866
      5  CB        53.1450  -26.3400   44.2770 C.3    99  SER99       0.2089
      6  OG        53.1340  -27.5960   44.9200 O.3    99  SER99      -0.2183
      7  N         58.7300  -29.8510   47.1320 N.3   127  ARG127     -0.1245
      8  CA        57.6850  -30.5730   46.4070 C.3   127  ARG127      0.1563
      9  C         58.0800  -30.9960   44.9870 C.2   127  ARG127      0.2260
     10  O         57.7580  -32.0980   44.5390 O.2   127  ARG127     -0.2867
     11  CB        56.4100  -29.7290   46.3500 C.3   127  ARG127      0.0307
     12  CG        55.7580  -29.4770   47.7160 C.3   127  ARG127      0.0489
     13  CD        54.2480  -29.2930   47.5630 C.3   127  ARG127      0.2205
     14  NE        53.6630  -30.4700   46.9250 N.pl3 127  ARG127     -0.0865
     15  CZ        52.4410  -30.5240   46.4000 C.cat 127  ARG127      0.5346
     16  NH1       51.6420  -29.4590   46.4350 N.pl3 127  ARG127      0.1354
     17  NH2       52.0210  -31.6520   45.8360 N.pl3 127  ARG127      0.1354
     18  N         53.0550  -18.0830   46.7910 N.3   206  ASP206     -0.1239
     19  CA        52.7700  -19.5150   46.7180 C.3   206  ASP206      0.1674
     20  C         51.2840  -19.8280   46.6040 C.2   206  ASP206      0.2266
     21  O         50.8990  -20.9300   46.2100 O.2   206  ASP206     -0.2867
     22  CB        53.3920  -20.2760   47.8870 C.3   206  ASP206      0.1410
     23  CG        52.9450  -19.7830   49.2340 C.2   206  ASP206      0.3668
     24  OD1       51.8530  -19.1900   49.3420 O.co2 206  ASP206     -0.2456
     25  OD2       53.6960  -20.0370   50.2010 O.co2 206  ASP206     -0.2456
     26  N         38.0210  -31.4720   42.6380 N.3   333  THR333     -0.1203
     27  CA        39.2460  -31.4040   43.4350 C.3   333  THR333      0.1994
     28  C         39.0130  -31.9350   44.8480 C.2   333  THR333      0.2618
     29  O         38.2550  -31.3480   45.6200 O.2   333  THR333     -0.2717
     30  CB        39.7940  -29.9680   43.5230 C.3   333  THR333      0.1784
     31  OG1       38.8320  -29.1170   44.1530 O.3   333  THR333     -0.2211
     32  CG2       40.1020  -29.4210   42.1230 C.3   333  THR333      0.0376
     33  N         39.6830  -33.0330   45.1850 N.am  334  GLY334     -0.1942
     34  CA        39.5050  -33.6530   46.4850 C.3   334  GLY334      0.2014
     35  C         40.3050  -32.9940   47.5910 C.2   334  GLY334      0.2640
     36  O         41.1710  -32.1460   47.3480 O.2   334  GLY334     -0.2714
     37  N         40.0070  -33.3960   48.8190 N.am  335  THR335     -0.1936
     38  CA        40.7790  -32.9700   49.9750 C.3   335  THR335      0.2028
     39  C         41.0700  -34.1840   50.8510 C.2   335  THR335      0.2642
     40  O         40.8010  -35.3170   50.4620 O.2   335  THR335     -0.2714
     41  CB        40.0440  -31.8750   50.7900 C.3   335  THR335      0.1808
     42  OG1       40.9470  -31.2970   51.7480 O.3   335  THR335     -0.2208
     43  CG2       38.8240  -32.4490   51.5020 C.3   335  THR335      0.0379
     44  N         41.6680  -33.9400   52.0050 N.am  336  THR336     -0.1950
     45  CA        41.9940  -34.9960   52.9460 C.3   336  THR336      0.1897
     46  C         40.8660  -35.1230   53.9550 C.2   336  THR336      0.2313
     47  O         39.7300  -35.3990   53.5820 O.2   336  THR336     -0.2863
     48  CB        43.3360  -34.7180   53.6590 C.3   336  THR336      0.1794
     49  OG1       43.3050  -33.4110   54.2320 O.3   336  THR336     -0.2208
     50  CG2       44.4830  -34.7660   52.6610 C.3   336  THR336      0.0378
     51  N         39.0080  -33.2390   57.5760 N.3   338  TRP338     -0.1241
     52  CA        38.9030  -31.9400   58.2320 C.3   338  TRP338      0.1605
     53  C         38.3570  -32.0840   59.6560 C.2   338  TRP338      0.2264
     54  O         38.3980  -33.1800   60.2340 O.2   338  TRP338     -0.2867
     55  CB        38.0520  -30.9710   57.3880 C.3   338  TRP338      0.0550
     56  CG        36.6820  -31.4510   57.0300 C.ar  338  TRP338      0.0003
     57  CD1       35.5380  -31.2440   57.7350 C.ar  338  TRP338      0.0946
     58  CD2       36.3050  -32.1990   55.8680 C.ar  338  TRP338      0.0152
     59  NE1       34.4720  -31.8180   57.0910 N.ar  338  TRP338     -0.2442
     60  CE2       34.9170  -32.4130   55.9420 C.ar  338  TRP338      0.0810
     61  CE3       37.0080  -32.7090   54.7710 C.ar  338  TRP338      0.0012
     62  CZ2       34.2170  -33.1150   54.9630 C.ar  338  TRP338      0.0191
     63  CZ3       36.3150  -33.4070   53.8050 C.ar  338  TRP338      0.0001
     64  CH2       34.9320  -33.6060   53.9070 C.ar  338  TRP338      0.0015
     65  N         40.8720  -35.0540   40.5860 N.3   376  LYS376     -0.1231
     66  CA        42.1950  -34.6780   41.0600 C.3   376  LYS376      0.1693
     67  C         42.2120  -34.7330   42.5770 C.2   376  LYS376      0.2593
     68  O         41.7930  -33.7910   43.2460 O.2   376  LYS376     -0.2718
     69  CB        42.5720  -33.2750   40.5710 C.3   376  LYS376      0.0285
     70  CG        43.9290  -32.8030   41.0710 C.3   376  LYS376      0.0035
     71  CD        44.9740  -33.8820   40.8660 C.3   376  LYS376      0.0206
     72  CE        46.3460  -33.4190   41.3050 C.3   376  LYS376      0.1093
     73  NZ        46.5170  -33.2700   42.7860 N.3   376  LYS376     -0.1314
     74  N         42.6820  -35.8550   43.1110 N.am  377  GLY377     -0.1942
     75  CA        42.7320  -36.0430   44.5450 C.3   377  GLY377      0.2014
     76  C         43.8340  -35.2340   45.1960 C.2   377  GLY377      0.2639
     77  O         44.7950  -34.8130   44.5440 O.2   377  GLY377     -0.2714
     78  N         43.6810  -35.0040   46.4950 N.am  378  HIS378     -0.1959
     79  CA        44.7210  -34.3790   47.2990 C.3   378  HIS378      0.1772
     80  C         45.9330  -35.3050   47.3930 C.2   378  HIS378      0.2462
     81  O         45.7840  -36.5130   47.5650 O.2   378  HIS378     -0.2730
     82  CB        44.1760  -34.0590   48.6910 C.3   378  HIS378      0.0785
     83  CG        45.0670  -33.1810   49.5070 C.ar  378  HIS378      0.0821
     84  ND1       46.2580  -33.6210   50.0420 N.ar  378  HIS378     -0.2267
     85  CD2       44.9330  -31.8930   49.8980 C.ar  378  HIS378      0.1154
     86  CE1       46.8270  -32.6400   50.7180 C.ar  378  HIS378      0.1986
     87  NE2       46.0390  -31.5830   50.6530 N.ar  378  HIS378     -0.2212
     88  N         47.1430  -34.7450   47.2970 N.am  379  PRO379     -0.2727
     89  CA        48.3290  -35.6110   47.3500 C.3   379  PRO379      0.1402
     90  C         48.4480  -36.4430   48.6340 C.2   379  PRO379      0.2269
     91  O         49.0100  -37.5320   48.5990 O.2   379  PRO379     -0.2865
     92  CB        49.4970  -34.6200   47.2540 C.3   379  PRO379      0.0296
     93  CG        48.9170  -33.2700   47.5650 C.3   379  PRO379      0.0237
     94  CD        47.4890  -33.3310   47.0780 C.3   379  PRO379      0.0939
     95  N         50.6530  -34.9900   41.4340 N.3   402  ILE402     -0.1231
     96  CA        50.8500  -33.7800   40.6320 C.3   402  ILE402      0.1692
     97  C         50.2610  -32.5530   41.3320 C.2   402  ILE402      0.2593
     98  O         49.1330  -32.6050   41.7890 O.2   402  ILE402     -0.2718
     99  CB        50.2060  -33.9500   39.2460 C.3   402  ILE402      0.0266
    100  CG1       50.7850  -35.1910   38.5600 C.3   402  ILE402      0.0019
    101  CG2       50.4200  -32.6990   38.3970 C.3   402  ILE402      0.0020
    102  CD1       50.0400  -35.5950   37.2860 C.3   402  ILE402      0.0001
    103  N         51.0180  -31.4590   41.4260 N.am  403  SER403     -0.1938
    104  CA        50.4630  -30.2060   41.9440 C.3   403  SER403      0.2055
    105  C         49.4080  -29.7180   40.9750 C.2   403  SER403      0.2643
    106  O         49.6780  -29.6180   39.7800 O.2   403  SER403     -0.2714
    107  CB        51.5320  -29.1230   42.1180 C.3   403  SER403      0.2130
    108  OG        52.4480  -29.4410   43.1540 O.3   403  SER403     -0.2179
    109  N         48.2310  -29.3780   41.4870 N.am  404  PHE404     -0.1959
    110  CA        47.1350  -28.9180   40.6220 C.3   404  PHE404      0.1771
    111  C         47.5720  -27.7450   39.7710 C.2   404  PHE404      0.2619
    112  O         47.1770  -27.6240   38.6110 O.2   404  PHE404     -0.2715
    113  CB        45.9000  -28.5130   41.4410 C.3   404  PHE404      0.0574
    114  CG        44.7070  -28.1930   40.5900 C.ar  404  PHE404     -0.0200
    115  CD1       44.5640  -26.9360   40.0110 C.ar  404  PHE404     -0.0042
    116  CD2       43.7500  -29.1550   40.3320 C.ar  404  PHE404     -0.0042
    117  CE1       43.4810  -26.6470   39.1880 C.ar  404  PHE404     -0.0003
    118  CE2       42.6540  -28.8690   39.5170 C.ar  404  PHE404     -0.0003
    119  CZ        42.5260  -27.6140   38.9490 C.ar  404  PHE404     -0.0000
    120  N         48.4000  -26.8830   40.3540 N.am  405  GLU405     -0.1977
    121  CA        48.8840  -25.6850   39.6690 C.3   405  GLU405      0.1602
    122  C         49.6220  -26.0030   38.3450 C.2   405  GLU405      0.2287
    123  O         49.7070  -25.1500   37.4620 O.2   405  GLU405     -0.2864
    124  CB        49.7980  -24.8860   40.6070 C.3   405  GLU405      0.0415
    125  CG        49.1060  -24.2630   41.8370 C.3   405  GLU405      0.1163
    126  CD        48.9430  -25.2250   43.0140 C.2   405  GLU405      0.3649
    127  OE1       49.3410  -26.4050   42.9090 O.co2 405  GLU405     -0.2457
    128  OE2       48.3880  -24.7950   44.0510 O.co2 405  GLU405     -0.2457
    129  N         36.4800  -29.1430   46.8840 N.3   420  ILE420     -0.1231
    130  CA        36.7930  -28.5800   48.1890 C.3   420  ILE420      0.1692
    131  C         37.7820  -27.4220   48.0580 C.2   420  ILE420      0.2592
    132  O         38.7260  -27.4890   47.2580 O.2   420  ILE420     -0.2718
    133  CB        37.3570  -29.6510   49.1270 C.3   420  ILE420      0.0266
    134  CG1       36.4700  -30.8980   49.0940 C.3   420  ILE420      0.0019
    135  CG2       37.4930  -29.1020   50.5320 C.3   420  ILE420      0.0020
    136  CD1       35.0280  -30.6230   49.4370 C.3   420  ILE420      0.0001
    137  N         37.5300  -26.3490   48.8110 N.am  421  ALA421     -0.1966
    138  CA        38.3800  -25.1610   48.7960 C.3   421  ALA421      0.1728
    139  C         39.8630  -25.4820   48.9640 C.2   421  ALA421      0.2617
    140  O         40.2530  -26.3320   49.7780 O.2   421  ALA421     -0.2715
    141  CB        37.9570  -24.1960   49.8760 C.3   421  ALA421      0.0334
    142  N         40.6770  -24.7540   48.2170 N.am  422  SER422     -0.1936
    143  CA        42.1140  -24.9080   48.2700 C.3   422  SER422      0.2055
    144  C         42.7400  -23.7160   47.5910 C.2   422  SER422      0.2644
    145  O         42.1150  -23.0820   46.7470 O.2   422  SER422     -0.2714
    146  CB        42.5620  -26.2000   47.5840 C.3   422  SER422      0.2130
    147  OG        43.9590  -26.1660   47.3210 O.3   422  SER422     -0.2179
    148  N         43.9930  -23.4420   47.9440 N.am  423  SER423     -0.1935
    149  CA        44.7630  -22.3810   47.3200 C.3   423  SER423      0.2055
    150  C         44.7960  -22.5060   45.7980 C.2   423  SER423      0.2642
    151  O         44.9430  -21.5090   45.0830 O.2   423  SER423     -0.2714
    152  CB        46.2000  -22.4090   47.8740 C.3   423  SER423      0.2130
    153  OG        46.9620  -21.3980   47.2740 O.3   423  SER423     -0.2179
    154  N         44.6450  -23.7320   45.3030 N.am  424  LEU424     -0.1977
    155  CA        44.7040  -23.9840   43.8660 C.3   424  LEU424      0.1596
    156  C         43.6670  -23.1540   43.1140 C.2   424  LEU424      0.2287
    157  O         43.8340  -22.8640   41.9370 O.2   424  LEU424     -0.2864
    158  CB        44.5290  -25.4850   43.5810 C.3   424  LEU424      0.0297
    159  CG        43.1860  -26.1710   43.8650 C.3   424  LEU424      0.0022
    160  CD1       42.2510  -26.0710   42.6720 C.3   424  LEU424      0.0001
    161  CD2       43.3880  -27.6340   44.2640 C.3   424  LEU424      0.0001
    162  N         33.5940  -25.1660   51.3340 N.3   438  PHE438     -0.1227
    163  CA        34.3760  -25.0180   52.5450 C.3   438  PHE438      0.1736
    164  C         33.8820  -26.0070   53.5880 C.2   438  PHE438      0.2596
    165  O         32.6810  -26.1820   53.7850 O.2   438  PHE438     -0.2718
    166  CB        34.3160  -23.5860   53.0730 C.3   438  PHE438      0.0547
    167  CG        35.0330  -22.6020   52.1960 C.ar  438  PHE438     -0.0202
    168  CD1       34.4250  -22.0910   51.0600 C.ar  438  PHE438     -0.0042
    169  CD2       36.3280  -22.2120   52.4930 C.ar  438  PHE438     -0.0042
    170  CE1       35.0980  -21.1990   50.2380 C.ar  438  PHE438     -0.0003
    171  CE2       37.0020  -21.3180   51.6770 C.ar  438  PHE438     -0.0003
    172  CZ        36.3850  -20.8140   50.5490 C.ar  438  PHE438     -0.0000
    173  N         34.8350  -26.6310   54.2640 N.am  439  THR439     -0.1953
    174  CA        34.5470  -27.6760   55.2370 C.3   439  THR439      0.1897
    175  C         34.8250  -27.1570   56.6390 C.2   439  THR439      0.2313
    176  O         35.5020  -26.1380   56.7960 O.2   439  THR439     -0.2863
    177  CB        35.3950  -28.9300   54.9700 C.3   439  THR439      0.1794
    178  OG1       36.7750  -28.5510   54.8860 O.3   439  THR439     -0.2208
    179  CG2       34.9890  -29.5930   53.6590 C.3   439  THR439      0.0378
    180  N         39.6170  -15.4770   53.5300 N.3   455  LEU455     -0.1245
    181  CA        39.8410  -16.1390   52.2520 C.3   455  LEU455      0.1561
    182  C         38.7110  -15.8600   51.2660 C.2   455  LEU455      0.2260
    183  O         38.9670  -15.4760   50.1320 O.2   455  LEU455     -0.2867
    184  CB        40.0090  -17.6450   52.4310 C.3   455  LEU455      0.0270
    185  CG        40.3620  -18.3620   51.1290 C.3   455  LEU455      0.0019
    186  CD1       41.6580  -17.8110   50.5610 C.3   455  LEU455      0.0001
    187  CD2       40.4890  -19.8560   51.3650 C.3   455  LEU455      0.0001
@<TRIPOS>BOND
     1   102   100    1
     2   123   122    2
     3   122   121    1
     4   101    99    1
     5   100    99    1
     6   112   111    2
     7   119   117   ar
     8   119   118   ar
     9   117   115   ar
    10    99    96    1
    11   118   116   ar
    12   121   120    1
    13   121   124    1
    14   111   120   am
    15   111   110    1
    16   106   105    2
    17   115   114   ar
    18   116   114   ar
    19    69    66    1
    20    69    70    1
    21    65    66    1
    22   114   113    1
    23   124   125    1
    24   110   113    1
    25   110   109    1
    26    96    97    1
    27    96    95    1
    28    71    70    1
    29    71    72    1
    30   105   109   am
    31   105   104    1
    32    66    67    1
    33    72    73    1
    34    97   103   am
    35    97    98    2
    36   103   104    1
    37   125   126    1
    38   157   156    2
    39   104   107    1
    40   107   108    1
    41    32    30    1
    42    67    74   am
    43    67    68    2
    44     4     3    2
    45    26    27    1
    46   160   159    1
    47   127   126   ar
    48   126   128   ar
    49    74    75    1
    50   156   155    1
    51    27    30    1
    52    27    28    1
    53     3     2    1
    54    30    31    1
    55   158   159    1
    56   158   155    1
    57   159   161    1
    58   155   154    1
    59     5     2    1
    60     5     6    1
    61     2     1    1
    62    10     9    2
    63    77    76    2
    64    75    76    1
    65    28    33   am
    66    28    29    2
    67     9     8    1
    68   151   150    2
    69    33    34    1
    70    76    78   am
    71   154   150   am
    72   150   149    1
    73    17    15    1
    74    21    20    2
    75    11     8    1
    76    11    12    1
    77    15    16    1
    78    15    14    2
    79     8     7    1
    80    34    35    1
    81    78    79    1
    82    20    19    1
    83    19    18    1
    84    19    22    1
    85   145   144    2
    86   129   130    1
    87    14    13    1
    88    94    88    1
    89    94    93    1
    90    92    89    1
    91    92    93    1
    92   132   131    2
    93   153   152    1
    94    88    89    1
    95    88    80   am
    96    79    80    1
    97    79    82    1
    98   149   152    1
    99   149   148    1
   100   147   146    1
   101    36    35    2
   102    89    90    1
   103    80    81    2
   104    13    12    1
   105   146   143    1
   106    35    37   am
   107   144   148   am
   108   144   143    1
   109    22    23    1
   110   131   130    1
   111   131   137   am
   112   130   133    1
   113   142   143    1
   114   142   139   am
   115    91    90    2
   116    82    83    1
   117   138   137    1
   118   138   139    1
   119   138   141    1
   120    37    38    1
   121   139   140    2
   122   134   133    1
   123   134   136    1
   124   133   135    1
   125    23    24   ar
   126    23    25   ar
   127    83    85   ar
   128    83    84   ar
   129    85    87   ar
   130    38    41    1
   131    38    39    1
   132    84    86   ar
   133   183   182    2
   134   170   172   ar
   135   170   168   ar
   136    40    39    2
   137   172   171   ar
   138   186   185    1
   139    87    86   ar
   140    41    43    1
   141    41    42    1
   142    39    44   am
   143   168   167   ar
   144   185   187    1
   145   185   184    1
   146   182   181    1
   147   162   163    1
   148   171   169   ar
   149    44    45    1
   150   167   169   ar
   151   167   166    1
   152   181   184    1
   153   181   180    1
   154   163   166    1
   155   163   164    1
   156    50    48    1
   157    45    48    1
   158    45    46    1
   159    47    46    2
   160   164   165    2
   161   164   173   am
   162    48    49    1
   163   179   177    1
   164    63    64   ar
   165    63    61   ar
   166    64    62   ar
   167   173   174    1
   168    61    58   ar
   169   178   177    1
   170    62    60   ar
   171   177   174    1
   172   174   175    1
   173    58    60   ar
   174    58    56   ar
   175    60    59   ar
   176   175   176    2
   177    56    55    1
   178    56    57   ar
   179    59    57   ar
   180    55    52    1
   181    51    52    1
   182    52    53    1
   183    53    54    2
