@<TRIPOS>MOLECULE
tmp/4r85A00.pdb
 120 114 0 0 0
SMALL
GASTEIGER

@<TRIPOS>ATOM
      1  N        147.3840   10.2660   18.6150 N.3    58  HIS58      -0.1241
      2  CA       147.7950   11.1860   19.6690 C.3    58  HIS58       0.1621
      3  C        149.3080   11.2290   19.7570 C.2    58  HIS58       0.2264
      4  O        149.9120   10.4960   20.5580 O.2    58  HIS58      -0.2867
      5  CB       147.2400   10.7530   21.0260 C.3    58  HIS58       0.0745
      6  CG       145.7440   10.7570   21.1000 C.ar   58  HIS58       0.0817
      7  ND1      145.0370   11.7230   21.7800 N.ar   58  HIS58      -0.2268
      8  CD2      144.8240    9.9010   20.5970 C.ar   58  HIS58       0.1154
      9  CE1      143.7450   11.4710   21.6880 C.ar   58  HIS58       0.1986
     10  NE2      143.5900   10.3720   20.9730 N.ar   58  HIS58      -0.2212
     11  N        139.8430    3.5270   29.4700 N.3    76  LEU76      -0.1245
     12  CA       139.9820    4.9190   29.0680 C.3    76  LEU76       0.1561
     13  C        140.3210    5.7690   30.2880 C.2    76  LEU76       0.2260
     14  O        141.2110    6.6170   30.2430 O.2    76  LEU76      -0.2867
     15  CB       138.6720    5.4220   28.4580 C.3    76  LEU76       0.0270
     16  CG       138.6190    6.9150   28.1610 C.3    76  LEU76       0.0019
     17  CD1      139.6680    7.2790   27.1100 C.3    76  LEU76       0.0001
     18  CD2      137.2120    7.3380   27.7070 C.3    76  LEU76       0.0001
     19  N        142.8240   19.3250   21.5730 N.3   149  PHE149     -0.1241
     20  CA       142.0390   18.2910   22.2330 C.3   149  PHE149      0.1605
     21  C        142.0740   18.5390   23.7380 C.2   149  PHE149      0.2264
     22  O        143.1370   18.4630   24.3480 O.2   149  PHE149     -0.2867
     23  CB       142.6510   16.9190   21.9140 C.3   149  PHE149      0.0534
     24  CG       142.0700   15.7760   22.7180 C.ar  149  PHE149     -0.0203
     25  CD1      140.7020   15.5530   22.7570 C.ar  149  PHE149     -0.0042
     26  CD2      142.9000   14.9150   23.4130 C.ar  149  PHE149     -0.0042
     27  CE1      140.1700   14.4990   23.4880 C.ar  149  PHE149     -0.0003
     28  CE2      142.3820   13.8590   24.1430 C.ar  149  PHE149     -0.0003
     29  CZ       141.0170   13.6470   24.1830 C.ar  149  PHE149     -0.0000
     30  N        141.6970   17.1070   26.7530 N.3   151  GLN151     -0.1245
     31  CA       141.5880   15.7930   27.3940 C.3   151  GLN151      0.1566
     32  C        140.7850   15.7790   28.6920 C.2   151  GLN151      0.2260
     33  O        139.9840   14.8710   28.9350 O.2   151  GLN151     -0.2867
     34  CB       142.9790   15.2330   27.6800 C.3   151  GLN151      0.0367
     35  CG       142.9790   13.9230   28.4490 C.3   151  GLN151      0.0905
     36  CD       142.4700   12.7720   27.5960 C.2   151  GLN151      0.2608
     37  OE1      143.2400   12.1250   26.8890 O.2   151  GLN151     -0.2717
     38  NE2      141.1680   12.5260   27.6460 N.am  151  GLN151     -0.0878
     39  N        135.5290   16.6660   24.0770 N.3   178  ILE178     -0.1245
     40  CA       135.3280   15.3760   24.7410 C.3   178  ILE178      0.1561
     41  C        134.0510   15.4110   25.6100 C.2   178  ILE178      0.2260
     42  O        134.0900   15.1810   26.8230 O.2   178  ILE178     -0.2867
     43  CB       136.6180   14.9600   25.5370 C.3   178  ILE178      0.0252
     44  CG1      136.5830   13.4760   25.9250 C.3   178  ILE178      0.0019
     45  CG2      136.8930   15.9080   26.7260 C.3   178  ILE178      0.0019
     46  CD1      137.8070   13.0050   26.6900 C.3   178  ILE178      0.0001
     47  N        136.2230   13.9070   20.1360 N.3   209  HIS209     -0.1241
     48  CA       136.1210   12.6090   20.8170 C.3   209  HIS209      0.1621
     49  C        134.7100   12.5280   21.3620 C.2   209  HIS209      0.2264
     50  O        134.3900   13.1150   22.3850 O.2   209  HIS209     -0.2867
     51  CB       137.1260   12.5160   21.9670 C.3   209  HIS209      0.0745
     52  CG       138.5060   12.1490   21.5250 C.ar  209  HIS209      0.0817
     53  ND1      139.2700   12.9650   20.7200 N.ar  209  HIS209     -0.2268
     54  CD2      139.2530   11.0470   21.7650 C.ar  209  HIS209      0.1154
     55  CE1      140.4320   12.3830   20.4820 C.ar  209  HIS209      0.1986
     56  NE2      140.4460   11.2190   21.1080 N.ar  209  HIS209     -0.2212
     57  N        133.0470    8.1380   23.6010 N.3   212  GLU212     -0.1245
     58  CA       133.9950    7.0330   23.7240 C.3   212  GLU212      0.1567
     59  C        133.7410    6.2920   25.0250 C.2   212  GLU212      0.2260
     60  O        134.5630    6.3010   25.9450 O.2   212  GLU212     -0.2867
     61  CB       135.4490    7.5260   23.6320 C.3   212  GLU212      0.0388
     62  CG       136.4550    6.3680   23.4420 C.3   212  GLU212      0.1160
     63  CD       137.9160    6.7980   23.3810 C.2   212  GLU212      0.3649
     64  OE1      138.7670    5.9220   23.0990 O.co2 212  GLU212     -0.2457
     65  OE2      138.2240    7.9870   23.6170 O.co2 212  GLU212     -0.2457
     66  N        135.4780    8.1630   17.5700 N.3   241  HIS241     -0.1241
     67  CA       135.1720    7.3060   18.7300 C.3   241  HIS241      0.1621
     68  C        133.7230    7.3910   19.1600 C.2   241  HIS241      0.2264
     69  O        133.4390    7.6730   20.3280 O.2   241  HIS241     -0.2867
     70  CB       135.9400    7.7320   19.9810 C.3   241  HIS241      0.0745
     71  CG       137.4250    7.6360   19.8800 C.ar  241  HIS241      0.0817
     72  ND1      138.0920    6.4340   19.7890 N.ar  241  HIS241     -0.2268
     73  CD2      138.3780    8.5940   19.9380 C.ar  241  HIS241      0.1154
     74  CE1      139.3960    6.6570   19.7700 C.ar  241  HIS241      0.1986
     75  NE2      139.5940    7.9600   19.8530 N.ar  241  HIS241     -0.2212
     76  N        141.9380    0.1130   19.0850 N.3   273  GLU273     -0.1245
     77  CA       141.9130    0.8170   20.3620 C.3   273  GLU273      0.1567
     78  C        140.6280    0.4930   21.1080 C.2   273  GLU273      0.2260
     79  O        140.6410    0.1910   22.3070 O.2   273  GLU273     -0.2867
     80  CB       142.0250    2.3260   20.1620 C.3   273  GLU273      0.0388
     81  CG       142.2910    3.0690   21.4440 C.3   273  GLU273      0.1160
     82  CD       143.7690    3.3830   21.6290 C.2   273  GLU273      0.3649
     83  OE1      144.5950    2.9090   20.8160 O.co2 273  GLU273     -0.2457
     84  OE2      144.1000    4.1260   22.5720 O.co2 273  GLU273     -0.2457
     85  N        139.9100   -0.9300   24.8040 N.3   277  LEU277     -0.1245
     86  CA       139.4060   -0.0640   25.8730 C.3   277  LEU277      0.1561
     87  C        137.9260   -0.2720   26.1950 C.2   277  LEU277      0.2260
     88  O        137.4850    0.0160   27.2990 O.2   277  LEU277     -0.2867
     89  CB       139.6090    1.4130   25.5190 C.3   277  LEU277      0.0270
     90  CG       141.0350    1.9380   25.3910 C.3   277  LEU277      0.0019
     91  CD1      140.9770    3.4250   25.1300 C.3   277  LEU277      0.0001
     92  CD2      141.8370    1.6520   26.6800 C.3   277  LEU277      0.0001
     93  N        144.9090    5.7030   16.3910 N.3   308  ASP308     -0.1225
     94  CA       144.6700    6.3360   17.6990 C.3   308  ASP308      0.1805
     95  C        145.9420    6.4340   18.5550 C.2   308  ASP308      0.2598
     96  O        146.4180    7.5310   18.8670 O.2   308  ASP308     -0.2718
     97  CB       143.5510    5.6040   18.4740 C.3   308  ASP308      0.1424
     98  CG       142.9540    6.4480   19.5690 C.2   308  ASP308      0.3668
     99  OD1      142.4930    5.9060   20.5980 O.co2 308  ASP308     -0.2456
    100  OD2      142.9420    7.6690   19.3970 O.co2 308  ASP308     -0.2456
    101  N        146.4890    5.2860   18.9280 N.am  309  SER309     -0.1952
    102  CA       147.6170    5.2460   19.8500 C.3   309  SER309      0.1924
    103  C        148.7660    4.3980   19.3500 C.2   309  SER309      0.2314
    104  O        148.5600    3.3520   18.7550 O.2   309  SER309     -0.2863
    105  CB       147.1710    4.6510   21.1830 C.3   309  SER309      0.2116
    106  OG       146.3210    5.5370   21.8740 O.3   309  SER309     -0.2180
    107  N        147.1620    4.4910   26.9760 N.3   314  TRP314     -0.1241
    108  CA       145.9070    3.7850   26.7140 C.3   314  TRP314      0.1605
    109  C        146.1140    2.4450   26.0100 C.2   314  TRP314      0.2264
    110  O        145.2910    1.5370   26.1360 O.2   314  TRP314     -0.2867
    111  CB       144.9530    4.6550   25.8830 C.3   314  TRP314      0.0550
    112  CG       144.4620    5.8420   26.6300 C.ar  314  TRP314      0.0003
    113  CD1      143.3450    5.9150   27.4220 C.ar  314  TRP314      0.0946
    114  CD2      145.0760    7.1370   26.6730 C.ar  314  TRP314      0.0152
    115  NE1      143.2290    7.1810   27.9560 N.ar  314  TRP314     -0.2442
    116  CE2      144.2810    7.9480   27.5140 C.ar  314  TRP314      0.0810
    117  CE3      146.2200    7.6880   26.0810 C.ar  314  TRP314      0.0012
    118  CZ2      144.6010    9.2900   27.7850 C.ar  314  TRP314      0.0191
    119  CZ3      146.5400    9.0260   26.3500 C.ar  314  TRP314      0.0001
    120  CH2      145.7310    9.8060   27.1980 C.ar  314  TRP314      0.0015
@<TRIPOS>BOND
     1    93    94    1
     2    66    67    1
     3    94    97    1
     4    94    95    1
     5    97    98    1
     6    95    96    2
     7    95   101   am
     8     1     2    1
     9    67    68    1
    10    67    70    1
    11   104   103    2
    12   101   102    1
    13    76    77    1
    14    68    69    2
    15   103   102    1
    16   100    98   ar
    17    98    99   ar
    18     2     3    1
    19     2     5    1
    20     3     4    2
    21    74    72   ar
    22    74    75   ar
    23    72    71   ar
    24   102   105    1
    25    75    73   ar
    26    71    73   ar
    27    71    70    1
    28    47    48    1
    29    80    77    1
    30    80    81    1
    31    77    78    1
    32    55    53   ar
    33    55    56   ar
    34     8    10   ar
    35     8     6   ar
    36    53    52   ar
    37    83    82   ar
    38    48    49    1
    39    48    51    1
    40    10     9   ar
    41     5     6    1
    42     6     7   ar
    43    78    79    2
    44    56    54   ar
    45   105   106    1
    46    49    50    2
    47    81    82    1
    48    52    54   ar
    49    52    51    1
    50    19    20    1
    51    82    84   ar
    52     9     7   ar
    53    23    20    1
    54    23    24    1
    55    20    21    1
    56    24    25   ar
    57    24    26   ar
    58    25    27   ar
    59    64    63   ar
    60    63    62    1
    61    63    65   ar
    62    26    28   ar
    63    62    61    1
    64    27    29   ar
    65    57    58    1
    66    61    58    1
    67    58    59    1
    68    21    22    2
    69    39    40    1
    70    28    29   ar
    71    40    43    1
    72    40    41    1
    73    85    86    1
    74    59    60    2
    75    91    90    1
    76    90    89    1
    77    90    92    1
    78    89    86    1
    79    43    44    1
    80    43    45    1
    81    41    42    2
    82    86    87    1
    83   111   112    1
    84   111   108    1
    85    44    46    1
    86   109   110    2
    87   109   108    1
    88   117   119   ar
    89   117   114   ar
    90    87    88    2
    91   119   120   ar
    92   112   114   ar
    93   112   113   ar
    94   114   116   ar
    95   108   107    1
    96    30    31    1
    97    37    36    2
    98    17    16    1
    99   120   118   ar
   100    31    34    1
   101    31    32    1
   102   113   115   ar
   103   116   118   ar
   104   116   115   ar
   105    36    38   am
   106    36    35    1
   107    34    35    1
   108    18    16    1
   109    16    15    1
   110    15    12    1
   111    32    33    2
   112    12    11    1
   113    12    13    1
   114    14    13    2
