@<TRIPOS>MOLECULE
tmp/4r86B00.pdb
 99 96 0 0 0
SMALL
GASTEIGER

@<TRIPOS>ATOM
      1  N        -45.2750  -17.6940  -18.6120 N.3    16  ALA16      -0.1245
      2  CA       -44.5340  -17.4530  -19.8490 C.3    16  ALA16       0.1562
      3  C        -45.4450  -17.1130  -21.0270 C.2    16  ALA16       0.2260
      4  O        -45.1940  -16.1540  -21.7570 O.2    16  ALA16      -0.2867
      5  CB       -43.6780  -18.6620  -20.1890 C.3    16  ALA16       0.0290
      6  N        -39.4940  -15.6460  -23.8700 N.3    41  SER41      -0.1202
      7  CA       -40.3940  -15.5150  -22.7300 C.3    41  SER41       0.2020
      8  C        -40.0900  -16.6130  -21.7140 C.2    41  SER41       0.2619
      9  O        -39.5380  -17.6540  -22.0680 O.2    41  SER41      -0.2717
     10  CB       -41.8560  -15.5840  -23.1730 C.3    41  SER41       0.2103
     11  OG       -42.1720  -14.5190  -24.0520 O.3    41  SER41      -0.2182
     12  N        -40.4450  -16.3790  -20.4550 N.am   42  SER42      -0.1937
     13  CA       -40.1790  -17.3580  -19.4050 C.3    42  SER42       0.2055
     14  C        -41.2130  -17.3060  -18.2880 C.2    42  SER42       0.2644
     15  O        -41.9080  -16.3050  -18.1180 O.2    42  SER42      -0.2714
     16  CB       -38.7810  -17.1450  -18.8210 C.3    42  SER42       0.2130
     17  OG       -38.6370  -15.8360  -18.3010 O.3    42  SER42      -0.2179
     18  N        -41.3050  -18.3940  -17.5280 N.am   43  GLY43      -0.1939
     19  CA       -42.1770  -18.4510  -16.3670 C.3    43  GLY43       0.2014
     20  C        -41.6970  -17.4910  -15.2970 C.2    43  GLY43       0.2639
     21  O        -42.4470  -17.1170  -14.3940 O.2    43  GLY43      -0.2714
     22  N        -40.4290  -17.1050  -15.4090 N.am   44  THR44      -0.1950
     23  CA       -39.8280  -16.0720  -14.5770 C.3    44  THR44       0.1897
     24  C        -40.6710  -14.7990  -14.5820 C.2    44  THR44       0.2313
     25  O        -40.8300  -14.1370  -13.5540 O.2    44  THR44      -0.2863
     26  CB       -38.3930  -15.7540  -15.0610 C.3    44  THR44       0.1794
     27  OG1      -37.4940  -16.7630  -14.5830 O.3    44  THR44      -0.2208
     28  CG2      -37.9240  -14.3900  -14.5730 C.3    44  THR44       0.0378
     29  N        -32.5700  -20.9270  -16.6540 N.3    97  THR97      -0.1218
     30  CA       -32.9880  -20.4690  -15.3370 C.3    97  THR97       0.1862
     31  C        -32.7850  -21.6110  -14.3500 C.2    97  THR97       0.2287
     32  O        -33.2530  -22.7270  -14.5790 O.2    97  THR97      -0.2866
     33  CB       -34.4580  -20.0150  -15.3210 C.3    97  THR97       0.1770
     34  OG1      -34.6670  -19.0260  -16.3350 O.3    97  THR97      -0.2211
     35  CG2      -34.8210  -19.4290  -13.9650 C.3    97  THR97       0.0375
     36  N        -37.7680  -14.3850   -9.2620 N.3   226  TYR226     -0.1227
     37  CA       -38.9780  -14.7860   -9.9690 C.3   226  TYR226      0.1736
     38  C        -39.8180  -15.7140   -9.1050 C.2   226  TYR226      0.2595
     39  O        -41.0200  -15.8740   -9.3180 O.2   226  TYR226     -0.2718
     40  CB       -38.6190  -15.4860  -11.2780 C.3   226  TYR226      0.0548
     41  CG       -37.8910  -16.8010  -11.0860 C.ar  226  TYR226     -0.0200
     42  CD1      -36.5310  -16.8300  -10.8040 C.ar  226  TYR226     -0.0009
     43  CD2      -38.5650  -18.0120  -11.1850 C.ar  226  TYR226     -0.0009
     44  CE1      -35.8620  -18.0270  -10.6240 C.ar  226  TYR226      0.0417
     45  CE2      -37.9040  -19.2150  -11.0050 C.ar  226  TYR226      0.0417
     46  CZ       -36.5530  -19.2150  -10.7260 C.ar  226  TYR226      0.1957
     47  OH       -35.8900  -20.4070  -10.5480 O.3   226  TYR226     -0.2866
     48  N        -39.1570  -16.3250   -8.1300 N.am  227  LEU227     -0.1980
     49  CA       -39.7530  -17.3480   -7.2910 C.3   227  LEU227      0.1596
     50  C        -39.1370  -17.2880   -5.8990 C.2   227  LEU227      0.2287
     51  O        -37.9160  -17.2320   -5.7540 O.2   227  LEU227     -0.2864
     52  CB       -39.5560  -18.7220   -7.9370 C.3   227  LEU227      0.0297
     53  CG       -39.7080  -20.0250   -7.1600 C.3   227  LEU227      0.0022
     54  CD1      -40.3630  -21.0680   -8.0470 C.3   227  LEU227      0.0001
     55  CD2      -38.3460  -20.5080   -6.7040 C.3   227  LEU227      0.0001
     56  N        -40.3190  -22.8310   -3.7830 N.3   230  PHE230     -0.1241
     57  CA       -40.4330  -23.8960   -4.7730 C.3   230  PHE230      0.1605
     58  C        -41.0460  -25.1380   -4.1420 C.2   230  PHE230      0.2264
     59  O        -40.4200  -25.7870   -3.3030 O.2   230  PHE230     -0.2867
     60  CB       -39.0660  -24.2280   -5.3750 C.3   230  PHE230      0.0534
     61  CG       -39.1370  -24.9960   -6.6690 C.ar  230  PHE230     -0.0203
     62  CD1      -39.3730  -26.3620   -6.6720 C.ar  230  PHE230     -0.0042
     63  CD2      -38.9530  -24.3530   -7.8820 C.ar  230  PHE230     -0.0042
     64  CE1      -39.4360  -27.0690   -7.8610 C.ar  230  PHE230     -0.0003
     65  CE2      -39.0140  -25.0540   -9.0740 C.ar  230  PHE230     -0.0003
     66  CZ       -39.2560  -26.4130   -9.0620 C.ar  230  PHE230     -0.0000
     67  N        -34.2740  -24.9100  -15.6720 N.3   274  ALA274     -0.1231
     68  CA       -35.2290  -24.5770  -16.7210 C.3   274  ALA274      0.1694
     69  C        -34.5040  -24.0090  -17.9340 C.2   274  ALA274      0.2592
     70  O        -33.6970  -23.0880  -17.8060 O.2   274  ALA274     -0.2718
     71  CB       -36.2620  -23.5890  -16.2070 C.3   274  ALA274      0.0304
     72  N        -34.7880  -24.5610  -19.1090 N.am  275  TYR275     -0.1962
     73  CA       -34.1720  -24.0760  -20.3380 C.3   275  TYR275      0.1771
     74  C        -35.0530  -23.0230  -21.0010 C.2   275  TYR275      0.2619
     75  O        -36.2740  -23.1740  -21.0690 O.2   275  TYR275     -0.2715
     76  CB       -33.9090  -25.2290  -21.3070 C.3   275  TYR275      0.0574
     77  CG       -32.7270  -24.9930  -22.2190 C.ar  275  TYR275     -0.0198
     78  CD1      -31.5780  -25.7630  -22.1080 C.ar  275  TYR275     -0.0009
     79  CD2      -32.7550  -23.9950  -23.1830 C.ar  275  TYR275     -0.0009
     80  CE1      -30.4930  -25.5490  -22.9330 C.ar  275  TYR275      0.0417
     81  CE2      -31.6750  -23.7720  -24.0120 C.ar  275  TYR275      0.0417
     82  CZ       -30.5470  -24.5530  -23.8830 C.ar  275  TYR275      0.1957
     83  OH       -29.4680  -24.3370  -24.7050 O.3   275  TYR275     -0.2866
     84  N        -34.4270  -21.9590  -21.4920 N.am  276  GLU276     -0.1963
     85  CA       -35.1590  -20.8570  -22.1020 C.3   276  GLU276      0.1733
     86  C        -35.2450  -20.9860  -23.6190 C.2   276  GLU276      0.2617
     87  O        -34.2390  -21.2110  -24.2910 O.2   276  GLU276     -0.2715
     88  CB       -34.5110  -19.5220  -21.7280 C.3   276  GLU276      0.0429
     89  CG       -34.3790  -19.2830  -20.2290 C.3   276  GLU276      0.1163
     90  CD       -35.7120  -19.0240  -19.5470 C.2   276  GLU276      0.3649
     91  OE1      -36.7520  -19.0110  -20.2390 O.co2 276  GLU276     -0.2457
     92  OE2      -35.7200  -18.8310  -18.3130 O.co2 276  GLU276     -0.2457
     93  N        -36.4560  -20.8430  -24.1480 N.am  277  THR277     -0.1951
     94  CA       -36.6880  -20.8540  -25.5880 C.3   277  THR277      0.1897
     95  C        -36.4480  -19.4680  -26.1700 C.2   277  THR277      0.2313
     96  O        -36.9440  -18.4820  -25.6340 O.2   277  THR277     -0.2863
     97  CB       -38.1260  -21.2910  -25.9300 C.3   277  THR277      0.1794
     98  OG1      -38.3790  -22.5970  -25.3980 O.3   277  THR277     -0.2208
     99  CG2      -38.3360  -21.3030  -27.4370 C.3   277  THR277      0.0378
@<TRIPOS>BOND
     1    99    97    1
     2    95    96    2
     3    95    94    1
     4    97    94    1
     5    97    98    1
     6    94    93    1
     7    83    82    1
     8    87    86    2
     9    93    86   am
    10    11    10    1
    11    81    82   ar
    12    81    79   ar
    13    82    80   ar
    14     6     7    1
    15    86    85    1
    16    79    77   ar
    17    10     7    1
    18    80    78   ar
    19     7     8    1
    20    77    78   ar
    21    77    76    1
    22    85    88    1
    23    85    84    1
    24     9     8    2
    25     4     3    2
    26    88    89    1
    27     8    12   am
    28    84    74   am
    29    76    73    1
    30    75    74    2
    31     3     2    1
    32    74    73    1
    33    12    13    1
    34    73    72    1
    35    91    90   ar
    36    89    90    1
    37     5     2    1
    38     2     1    1
    39    90    92   ar
    40    13    16    1
    41    13    14    1
    42    72    69   am
    43    16    17    1
    44    14    15    2
    45    14    18   am
    46    69    70    2
    47    69    68    1
    48    18    19    1
    49    68    71    1
    50    68    67    1
    51    29    30    1
    52    19    20    1
    53    34    33    1
    54    22    20   am
    55    22    23    1
    56    30    33    1
    57    30    31    1
    58    33    35    1
    59    20    21    2
    60    26    27    1
    61    26    23    1
    62    26    28    1
    63    24    23    1
    64    24    25    2
    65    32    31    2
    66    40    41    1
    67    40    37    1
    68    43    41   ar
    69    43    45   ar
    70    41    42   ar
    71    45    46   ar
    72    42    44   ar
    73    46    44   ar
    74    46    47    1
    75    37    36    1
    76    37    38    1
    77    39    38    2
    78    38    48   am
    79    65    66   ar
    80    65    63   ar
    81    66    64   ar
    82    48    49    1
    83    54    53    1
    84    52    49    1
    85    52    53    1
    86    63    61   ar
    87    64    62   ar
    88    49    50    1
    89    53    55    1
    90    62    61   ar
    91    61    60    1
    92    50    51    2
    93    60    57    1
    94    57    58    1
    95    57    56    1
    96    58    59    2
