@<TRIPOS>MOLECULE
tmp/4r87I00.pdb
 149 146 0 0 0
SMALL
GASTEIGER

@<TRIPOS>ATOM
      1  N          4.9640  239.9560   21.4700 N.3    26  ILE26      -0.1245
      2  CA         6.1980  239.3910   20.9420 C.3    26  ILE26       0.1561
      3  C          6.1620  239.1750   19.4220 C.2    26  ILE26       0.2260
      4  O          7.1900  239.3660   18.7810 O.2    26  ILE26      -0.2867
      5  CB         6.5370  238.0620   21.6530 C.3    26  ILE26       0.0252
      6  CG1        6.9560  238.3170   23.0950 C.3    26  ILE26       0.0019
      7  CG2        7.6780  237.3340   20.9820 C.3    26  ILE26       0.0019
      8  CD1        6.4550  237.2620   24.0440 C.3    26  ILE26       0.0001
      9  N          6.9070  242.0590   16.6660 N.3    29  TYR29      -0.1241
     10  CA         8.3260  242.2770   16.5560 C.3    29  TYR29       0.1605
     11  C          9.0060  241.1690   15.7340 C.2    29  TYR29       0.2264
     12  O         10.1540  241.3080   15.3000 O.2    29  TYR29      -0.2867
     13  CB         8.8830  242.3960   17.9810 C.3    29  TYR29       0.0534
     14  CG         8.3940  243.6360   18.7310 C.ar   29  TYR29      -0.0201
     15  CD1        8.2510  244.8570   18.0670 C.ar   29  TYR29      -0.0009
     16  CD2        8.1230  243.6060   20.1070 C.ar   29  TYR29      -0.0009
     17  CE1        7.8460  246.0030   18.7380 C.ar   29  TYR29       0.0417
     18  CE2        7.7170  244.7600   20.7930 C.ar   29  TYR29       0.0417
     19  CZ         7.5830  245.9530   20.0950 C.ar   29  TYR29       0.1957
     20  OH         7.1660  247.1360   20.6820 O.3    29  TYR29      -0.2866
     21  N         15.6070  237.0740   16.8960 N.3    86  ILE86      -0.1231
     22  CA        15.7080  236.7020   18.2950 C.3    86  ILE86       0.1692
     23  C         14.4340  237.0820   19.0910 C.2    86  ILE86       0.2592
     24  O         13.8410  238.1660   18.8860 O.2    86  ILE86      -0.2718
     25  CB        16.9590  237.3550   18.9450 C.3    86  ILE86       0.0266
     26  CG1       17.1430  236.8420   20.3720 C.3    86  ILE86       0.0019
     27  CG2       16.8590  238.8830   18.9290 C.3    86  ILE86       0.0020
     28  CD1       18.4410  237.2720   21.0040 C.3    86  ILE86       0.0001
     29  N         14.0380  236.1850   19.9990 N.am   87  ILE87      -0.1966
     30  CA        12.9720  236.4400   20.9520 C.3    87  ILE87       0.1727
     31  C         13.5440  236.1590   22.3200 C.2    87  ILE87       0.2616
     32  O         13.9950  235.0490   22.5700 O.2    87  ILE87      -0.2715
     33  CB        11.7730  235.4830   20.7560 C.3    87  ILE87       0.0290
     34  CG1       10.8140  235.9990   19.7020 C.3    87  ILE87       0.0022
     35  CG2       10.9370  235.3610   22.0160 C.3    87  ILE87       0.0023
     36  CD1        9.7020  235.0060   19.3690 C.3    87  ILE87       0.0001
     37  N         13.5160  237.1500   23.2000 N.am   88  ILE88      -0.1977
     38  CA        13.6890  236.8840   24.6030 C.3    88  ILE88       0.1596
     39  C         12.2950  236.7940   25.2440 C.2    88  ILE88       0.2287
     40  O         11.4260  237.6700   25.0010 O.2    88  ILE88      -0.2864
     41  CB        14.4740  237.9830   25.3190 C.3    88  ILE88       0.0276
     42  CG1       15.7190  238.3610   24.5200 C.3    88  ILE88       0.0022
     43  CG2       14.8150  237.5120   26.7480 C.3    88  ILE88       0.0022
     44  CD1       16.8220  238.9330   25.3690 C.3    88  ILE88       0.0001
     45  N         12.3720  237.5830   30.8010 N.3    92  HIS92      -0.1226
     46  CA        13.8480  237.7080   30.7880 C.3    92  HIS92       0.1752
     47  C         14.4140  238.9130   30.0650 C.2    92  HIS92       0.2596
     48  O         15.6310  239.1230   30.0470 O.2    92  HIS92      -0.2718
     49  CB        14.4580  236.4180   30.2910 C.3    92  HIS92       0.0759
     50  CG        13.9830  235.2350   31.0590 C.ar   92  HIS92       0.0818
     51  ND1       14.2210  235.0890   32.4090 N.ar   92  HIS92      -0.2268
     52  CD2       13.2570  234.1600   30.6850 C.ar   92  HIS92       0.1154
     53  CE1       13.6910  233.9610   32.8320 C.ar   92  HIS92       0.1986
     54  NE2       13.1020  233.3770   31.8030 N.ar   92  HIS92      -0.2212
     55  N         13.5230  239.7330   29.5280 N.am   93  GLN93      -0.1965
     56  CA        13.9110  241.0140   28.9180 C.3    93  GLN93       0.1733
     57  C         14.3050  242.0000   29.9810 C.2    93  GLN93       0.2617
     58  O         13.6820  242.0280   31.0340 O.2    93  GLN93      -0.2715
     59  CB        12.7420  241.5950   28.1590 C.3    93  GLN93       0.0408
     60  CG        12.5110  240.9610   26.8070 C.3    93  GLN93       0.0908
     61  CD        11.0610  241.0790   26.4130 C.2    93  GLN93       0.2608
     62  OE1       10.3850  242.0090   26.8350 O.2    93  GLN93      -0.2717
     63  NE2       10.5600  240.1180   25.6510 N.am   93  GLN93      -0.0878
     64  N         15.3360  242.7950   29.7100 N.am   94  GLY94      -0.1940
     65  CA        15.7430  243.8600   30.6270 C.3    94  GLY94       0.2014
     66  C         16.8450  243.4670   31.5930 C.2    94  GLY94       0.2639
     67  O         17.2360  244.2470   32.4690 O.2    94  GLY94      -0.2714
     68  N         17.3540  242.2570   31.4200 N.am   95  LYS95      -0.1963
     69  CA        18.4900  241.7500   32.1710 C.3    95  LYS95       0.1728
     70  C         19.7920  241.8840   31.3830 C.2    95  LYS95       0.2617
     71  O         20.8390  241.3390   31.7720 O.2    95  LYS95      -0.2715
     72  CB        18.2350  240.2870   32.4830 C.3    95  LYS95       0.0311
     73  CG        17.0120  240.0980   33.3490 C.3    95  LYS95       0.0038
     74  CD        16.6330  238.6450   33.4250 C.3    95  LYS95       0.0206
     75  CE        15.3060  238.4940   34.1440 C.3    95  LYS95       0.1093
     76  NZ        15.1330  237.0740   34.5750 N.3    95  LYS95      -0.1314
     77  N         19.7080  242.6030   30.2630 N.am   96  GLY96      -0.1940
     78  CA        20.8300  242.8030   29.3520 C.3    96  GLY96       0.2014
     79  C         21.4450  241.5670   28.7240 C.2    96  GLY96       0.2639
     80  O         22.6580  241.5350   28.5400 O.2    96  GLY96      -0.2714
     81  N         20.6330  240.5610   28.3880 N.am   97  PHE97      -0.1959
     82  CA        21.1110  239.3510   27.6850 C.3    97  PHE97       0.1771
     83  C         21.2840  239.4510   26.1470 C.2    97  PHE97       0.2619
     84  O         22.0820  238.6960   25.5650 O.2    97  PHE97      -0.2715
     85  CB        20.1670  238.1570   27.8960 C.3    97  PHE97       0.0574
     86  CG        19.9290  237.7730   29.3290 C.ar   97  PHE97      -0.0200
     87  CD1       20.9390  237.8480   30.2760 C.ar   97  PHE97      -0.0042
     88  CD2       18.6840  237.2750   29.7120 C.ar   97  PHE97      -0.0042
     89  CE1       20.6960  237.4710   31.5860 C.ar   97  PHE97      -0.0003
     90  CE2       18.4430  236.9100   31.0100 C.ar   97  PHE97      -0.0003
     91  CZ        19.4490  237.0020   31.9520 C.ar   97  PHE97      -0.0000
     92  N         20.5080  240.3060   25.4820 N.am   98  ALA98      -0.1963
     93  CA        20.5360  240.3710   24.0110 C.3    98  ALA98       0.1728
     94  C         21.9250  240.2840   23.3960 C.2    98  ALA98       0.2616
     95  O         22.0970  239.7020   22.3630 O.2    98  ALA98      -0.2715
     96  CB        19.8650  241.6390   23.5240 C.3    98  ALA98       0.0334
     97  N         22.9180  240.8860   24.0080 N.am   99  ARG99      -0.1977
     98  CA        24.1900  241.0480   23.3320 C.3    99  ARG99       0.1597
     99  C         24.9120  239.6930   23.2680 C.2    99  ARG99       0.2287
    100  O         25.2110  239.1720   22.1990 O.2    99  ARG99      -0.2864
    101  CB        25.0290  242.1590   24.0130 C.3    99  ARG99       0.0334
    102  CG        25.5300  243.2330   23.0280 C.3    99  ARG99       0.0492
    103  CD        26.4190  244.3200   23.6820 C.3    99  ARG99       0.2205
    104  NE        25.6750  245.2470   24.5440 N.pl3  99  ARG99      -0.0865
    105  CZ        25.1720  246.4190   24.1740 C.cat  99  ARG99       0.5346
    106  NH1       24.4990  247.1650   25.0590 N.pl3  99  ARG99       0.1354
    107  NH2       25.3380  246.8610   22.9290 N.pl3  99  ARG99       0.1354
    108  N         11.3520  250.6430   16.1920 N.3   126  ASN126     -0.1240
    109  CA        12.0500  250.1200   17.3610 C.3   126  ASN126      0.1653
    110  C         13.4640  250.6750   17.4140 C.2   126  ASN126      0.2266
    111  O         14.4560  249.9760   17.1850 O.2   126  ASN126     -0.2867
    112  CB        12.0760  248.6040   17.3160 C.3   126  ASN126      0.1155
    113  CG        12.2040  247.9840   18.7040 C.2   126  ASN126      0.2627
    114  OD1       12.6810  248.5990   19.6660 O.2   126  ASN126     -0.2716
    115  ND2       11.7740  246.7570   18.8110 N.am  126  ASN126     -0.0877
    116  N         15.5920  251.4240   19.5220 N.3   128  LYS128     -0.1231
    117  CA        16.6030  250.9380   20.4410 C.3   128  LYS128      0.1693
    118  C         17.1520  249.6450   19.9100 C.2   128  LYS128      0.2591
    119  O         18.3600  249.5020   19.7630 O.2   128  LYS128     -0.2718
    120  CB        16.0330  250.7680   21.8370 C.3   128  LYS128      0.0285
    121  CG        15.3120  252.0220   22.3000 C.3   128  LYS128      0.0035
    122  CD        15.0130  252.0030   23.7840 C.3   128  LYS128      0.0206
    123  CE        16.1000  252.7230   24.5620 C.3   128  LYS128      0.1093
    124  NZ        16.2650  254.1300   24.1260 N.3   128  LYS128     -0.1314
    125  N         16.2480  248.7190   19.5930 N.am  129  ALA129     -0.1980
    126  CA        16.5940  247.4830   18.9120 C.3   129  ALA129      0.1597
    127  C         17.5330  247.7380   17.7210 C.2   129  ALA129      0.2287
    128  O         18.5490  247.0660   17.6070 O.2   129  ALA129     -0.2864
    129  CB        15.3310  246.7570   18.4570 C.3   129  ALA129      0.0319
    130  N         21.1140  248.7600   19.3210 N.3   132  LEU132     -0.1231
    131  CA        21.8260  247.5910   19.7860 C.3   132  LEU132      0.1693
    132  C         22.4540  246.8460   18.5950 C.2   132  LEU132      0.2592
    133  O         23.6760  246.7100   18.5380 O.2   132  LEU132     -0.2718
    134  CB        20.8810  246.6700   20.5520 C.3   132  LEU132      0.0284
    135  CG        21.4350  245.7720   21.6530 C.3   132  LEU132      0.0019
    136  CD1       22.7380  245.1160   21.2350 C.3   132  LEU132      0.0001
    137  CD2       21.5870  246.5480   22.9570 C.3   132  LEU132      0.0001
    138  N         21.6380  246.3930   17.6430 N.am  133  TYR133     -0.1976
    139  CA        22.1510  245.7000   16.4570 C.3   133  TYR133      0.1639
    140  C         23.3040  246.4590   15.6920 C.2   133  TYR133      0.2290
    141  O         24.2420  245.8430   15.1880 O.2   133  TYR133     -0.2864
    142  CB        20.9930  245.3760   15.4940 C.3   133  TYR133      0.0560
    143  CG        19.9440  244.4030   16.0050 C.ar  133  TYR133     -0.0198
    144  CD1       20.2750  243.1290   16.3580 C.ar  133  TYR133     -0.0009
    145  CD2       18.6150  244.7470   16.0440 C.ar  133  TYR133     -0.0009
    146  CE1       19.3190  242.2310   16.8010 C.ar  133  TYR133      0.0417
    147  CE2       17.6390  243.8640   16.4720 C.ar  133  TYR133      0.0417
    148  CZ        17.9900  242.6000   16.8550 C.ar  133  TYR133      0.1957
    149  OH        17.0380  241.6940   17.2990 O.3   133  TYR133     -0.2866
@<TRIPOS>BOND
     1   141   140    2
     2    12    11    2
     3   142   143    1
     4   142   139    1
     5   140   139    1
     6    11    10    1
     7   143   145   ar
     8   143   144   ar
     9   145   147   ar
    10   108   109    1
    11   144   146   ar
    12   139   138    1
    13   147   148   ar
    14    10     9    1
    15    10    13    1
    16   146   148   ar
    17   148   149    1
    18    21    22    1
    19   111   110    2
    20   112   109    1
    21   112   113    1
    22   109   110    1
    23   128   127    2
    24   138   132   am
    25   127   126    1
    26    13    14    1
    27    15    14   ar
    28    15    17   ar
    29    22    25    1
    30    22    23    1
    31   129   126    1
    32   133   132    2
    33   132   131    1
    34   113   115   am
    35   113   114    2
    36    14    16   ar
    37    17    19   ar
    38     4     3    2
    39    24    23    2
    40   126   125    1
    41    27    25    1
    42    25    26    1
    43    23    29   am
    44   130   131    1
    45    36    34    1
    46     3     2    1
    47   116   117    1
    48   125   118   am
    49    34    33    1
    50   119   118    2
    51   131   134    1
    52   118   117    1
    53    29    30    1
    54    19    20    1
    55    19    18   ar
    56    16    18   ar
    57    26    28    1
    58   117   120    1
    59   134   135    1
    60    33    30    1
    61    33    35    1
    62     2     1    1
    63     2     5    1
    64    30    31    1
    65     7     5    1
    66   136   135    1
    67     5     6    1
    68   135   137    1
    69   120   121    1
    70   100    99    2
    71   121   122    1
    72    31    32    2
    73    31    37   am
    74    95    94    2
    75   107   105    1
    76   102   103    1
    77   102   101    1
    78     6     8    1
    79    37    38    1
    80    99    98    1
    81    98    97    1
    82    98   101    1
    83    94    97   am
    84    94    93    1
    85    96    93    1
    86   103   104    1
    87   122   123    1
    88    93    92    1
    89   124   123    1
    90   105   104    2
    91   105   106    1
    92    42    41    1
    93    42    44    1
    94    38    39    1
    95    38    41    1
    96    40    39    2
    97    41    43    1
    98    92    83   am
    99    84    83    2
   100    63    61   am
   101    83    82    1
   102    61    60    1
   103    61    62    2
   104    60    59    1
   105    82    85    1
   106    82    81    1
   107    85    86    1
   108    59    56    1
   109    81    79   am
   110    80    79    2
   111    79    78    1
   112    56    55    1
   113    56    57    1
   114    86    88   ar
   115    86    87   ar
   116    78    77    1
   117    55    47   am
   118    64    57   am
   119    64    65    1
   120    88    90   ar
   121    57    58    2
   122    48    47    2
   123    47    46    1
   124    77    70   am
   125    87    89   ar
   126    49    46    1
   127    49    50    1
   128    65    66    1
   129    52    50   ar
   130    52    54   ar
   131    46    45    1
   132    90    91   ar
   133    50    51   ar
   134    70    71    2
   135    70    69    1
   136    68    66   am
   137    68    69    1
   138    89    91   ar
   139    66    67    2
   140    54    53   ar
   141    69    72    1
   142    51    53   ar
   143    72    73    1
   144    73    74    1
   145    74    75    1
   146    75    76    1
