@<TRIPOS>MOLECULE
tmp/4r87E00.pdb
 232 232 0 0 0
SMALL
GASTEIGER

@<TRIPOS>ATOM
      1  N         83.6740  189.0340  -14.1150 N.3    26  ILE26      -0.1245
      2  CA        82.4760  188.5660  -13.4200 C.3    26  ILE26       0.1561
      3  C         82.6480  188.3120  -11.9250 C.2    26  ILE26       0.2260
      4  O         81.8470  188.7860  -11.1240 O.2    26  ILE26      -0.2867
      5  CB        81.9630  187.2540  -14.0090 C.3    26  ILE26       0.0252
      6  CG1       81.5350  187.4930  -15.4480 C.3    26  ILE26       0.0019
      7  CG2       80.8060  186.7330  -13.1720 C.3    26  ILE26       0.0019
      8  CD1       81.0790  186.2590  -16.1750 C.3    26  ILE26       0.0001
      9  N         82.2060  190.8870   -9.2720 N.3    29  TYR29      -0.1227
     10  CA        80.8380  191.2750   -8.9150 C.3    29  TYR29       0.1736
     11  C         80.1660  190.2430   -8.0530 C.2    29  TYR29       0.2595
     12  O         78.9780  190.3900   -7.7190 O.2    29  TYR29      -0.2718
     13  CB        80.0000  191.4970  -10.1430 C.3    29  TYR29       0.0548
     14  CG        80.5500  192.5630  -11.0340 C.ar   29  TYR29      -0.0200
     15  CD1       80.9270  193.8050  -10.5150 C.ar   29  TYR29      -0.0009
     16  CD2       80.7020  192.3300  -12.4040 C.ar   29  TYR29      -0.0009
     17  CE1       81.4340  194.8030  -11.3570 C.ar   29  TYR29       0.0417
     18  CE2       81.1790  193.3090  -13.2450 C.ar   29  TYR29       0.0417
     19  CZ        81.5580  194.5450  -12.7320 C.ar   29  TYR29       0.1957
     20  OH        82.0620  195.4930  -13.5890 O.3    29  TYR29      -0.2866
     21  N         80.9300  189.2070   -7.6870 N.am   30  TRP30      -0.1962
     22  CA        80.4490  188.2170   -6.7230 C.3    30  TRP30       0.1771
     23  C         81.3150  188.1200   -5.4650 C.2    30  TRP30       0.2619
     24  O         81.2390  187.1310   -4.7290 O.2    30  TRP30      -0.2715
     25  CB        80.3770  186.8680   -7.3990 C.3    30  TRP30       0.0590
     26  CG        79.0140  186.4510   -7.7690 C.ar   30  TRP30       0.0006
     27  CD1       77.9440  187.2430   -8.0470 C.ar   30  TRP30       0.0946
     28  CD2       78.5860  185.1140   -7.9560 C.ar   30  TRP30       0.0152
     29  NE1       76.8720  186.4690   -8.3810 N.ar   30  TRP30      -0.2442
     30  CE2       77.2480  185.1550   -8.3380 C.ar   30  TRP30       0.0810
     31  CE3       79.2200  183.8780   -7.8480 C.ar   30  TRP30       0.0012
     32  CZ2       76.5230  184.0130   -8.6100 C.ar   30  TRP30       0.0191
     33  CZ3       78.4760  182.7240   -8.1120 C.ar   30  TRP30       0.0001
     34  CH2       77.1570  182.8050   -8.4790 C.ar   30  TRP30       0.0015
     35  N         82.1310  189.1530   -5.2390 N.am   31  PHE31      -0.1974
     36  CA        82.8440  189.3360   -3.9870 C.3    31  PHE31       0.1639
     37  C         83.7540  188.1520   -3.7050 C.2    31  PHE31       0.2290
     38  O         84.0750  187.8840   -2.5210 O.2    31  PHE31      -0.2864
     39  CB        81.8450  189.5140   -2.8540 C.3    31  PHE31       0.0560
     40  CG        80.7100  190.4700   -3.1930 C.ar   31  PHE31      -0.0200
     41  CD1       80.9560  191.8080   -3.4880 C.ar   31  PHE31      -0.0042
     42  CD2       79.3880  190.0270   -3.1970 C.ar   31  PHE31      -0.0042
     43  CE1       79.9120  192.6660   -3.7760 C.ar   31  PHE31      -0.0003
     44  CE2       78.3420  190.8890   -3.4910 C.ar   31  PHE31      -0.0003
     45  CZ        78.5990  192.2100   -3.7840 C.ar   31  PHE31      -0.0000
     46  N         71.7750  184.7520   -5.8750 N.3    85  GLN85      -0.1231
     47  CA        72.9370  185.2150   -6.6570 C.3    85  GLN85       0.1698
     48  C         72.7670  184.8160   -8.1460 C.2    85  GLN85       0.2592
     49  O         72.1460  183.8120   -8.4790 O.2    85  GLN85      -0.2718
     50  CB        74.1770  184.4590   -6.2490 C.3    85  GLN85       0.0381
     51  CG        74.6960  184.5550   -4.8450 C.3    85  GLN85       0.0905
     52  CD        75.7840  183.5090   -4.6230 C.2    85  GLN85       0.2608
     53  OE1       75.7120  182.4150   -5.1950 O.2    85  GLN85      -0.2717
     54  NE2       76.7780  183.8250   -3.7990 N.am   85  GLN85      -0.0878
     55  N         73.4040  185.5550   -9.0270 N.am   86  ILE86      -0.1966
     56  CA        73.2190  185.3660  -10.4550 C.3    86  ILE86       0.1727
     57  C         74.4010  185.9430  -11.2760 C.2    86  ILE86       0.2616
     58  O         74.8640  187.0900  -11.0530 O.2    86  ILE86      -0.2715
     59  CB        71.8940  186.0110  -10.9430 C.3    86  ILE86       0.0290
     60  CG1       71.6170  185.5910  -12.3930 C.3    86  ILE86       0.0022
     61  CG2       71.9580  187.5370  -10.8010 C.3    86  ILE86       0.0023
     62  CD1       70.3750  186.1960  -13.0330 C.3    86  ILE86       0.0001
     63  N         74.8310  185.1250  -12.2350 N.am   87  ILE87      -0.1963
     64  CA        75.7420  185.5090  -13.2810 C.3    87  ILE87       0.1727
     65  C         75.1020  185.0570  -14.6190 C.2    87  ILE87       0.2616
     66  O         74.6020  183.9170  -14.7310 O.2    87  ILE87      -0.2715
     67  CB        77.1100  184.7860  -13.1210 C.3    87  ILE87       0.0290
     68  CG1       77.7500  185.0410  -11.7830 C.3    87  ILE87       0.0022
     69  CG2       78.1020  185.2390  -14.1690 C.3    87  ILE87       0.0023
     70  CD1       78.6170  183.8870  -11.3500 C.3    87  ILE87       0.0001
     71  N         75.0960  185.9400  -15.6250 N.am   88  ILE88      -0.1977
     72  CA        74.9180  185.5110  -17.0300 C.3    88  ILE88       0.1596
     73  C         76.2590  185.5920  -17.7800 C.2    88  ILE88       0.2287
     74  O         77.0560  186.5650  -17.6510 O.2    88  ILE88      -0.2864
     75  CB        73.8530  186.3410  -17.7660 C.3    88  ILE88       0.0276
     76  CG1       72.4230  185.9260  -17.3730 C.3    88  ILE88       0.0022
     77  CG2       73.9610  186.1880  -19.2720 C.3    88  ILE88       0.0022
     78  CD1       71.3300  186.8070  -17.9600 C.3    88  ILE88       0.0001
     79  N         76.4910  186.3440  -23.3820 N.3    92  HIS92      -0.1226
     80  CA        75.0400  186.5190  -23.3080 C.3    92  HIS92       0.1752
     81  C         74.5420  187.8000  -22.6250 C.2    92  HIS92       0.2596
     82  O         73.3870  188.1620  -22.8180 O.2    92  HIS92      -0.2718
     83  CB        74.3950  185.2990  -22.6580 C.3    92  HIS92       0.0759
     84  CG        74.5160  184.0340  -23.4610 C.ar   92  HIS92       0.0818
     85  ND1       74.1760  183.9480  -24.7990 N.ar   92  HIS92      -0.2268
     86  CD2       74.8810  182.7850  -23.0930 C.ar   92  HIS92       0.1154
     87  CE1       74.3380  182.7050  -25.2230 C.ar   92  HIS92       0.1986
     88  NE2       74.7610  181.9780  -24.2060 N.ar   92  HIS92      -0.2212
     89  N         75.3680  188.5090  -21.8620 N.am   93  GLN93      -0.1965
     90  CA        74.9210  189.8100  -21.2990 C.3    93  GLN93       0.1733
     91  C         74.3870  190.8350  -22.3010 C.2    93  GLN93       0.2617
     92  O         74.7740  190.8420  -23.4460 O.2    93  GLN93      -0.2715
     93  CB        76.0250  190.4730  -20.5310 C.3    93  GLN93       0.0408
     94  CG        76.1760  189.9010  -19.1480 C.3    93  GLN93       0.0908
     95  CD        77.5090  190.2660  -18.5740 C.2    93  GLN93       0.2608
     96  OE1       78.2160  191.0570  -19.1760 O.2    93  GLN93      -0.2717
     97  NE2       77.8760  189.6820  -17.4300 N.am   93  GLN93      -0.0878
     98  N         73.4800  191.6860  -21.8210 N.am   94  GLY94      -0.1940
     99  CA        72.8940  192.7870  -22.5790 C.3    94  GLY94       0.2014
    100  C         71.7260  192.4760  -23.5110 C.2    94  GLY94       0.2639
    101  O         71.4550  193.2040  -24.4990 O.2    94  GLY94      -0.2714
    102  N         71.0040  191.4190  -23.2150 N.am   95  LYS95      -0.1963
    103  CA        69.9840  190.9480  -24.1460 C.3    95  LYS95       0.1728
    104  C         68.5500  190.9980  -23.6140 C.2    95  LYS95       0.2617
    105  O         67.6560  190.5920  -24.3180 O.2    95  LYS95      -0.2715
    106  CB        70.2850  189.5160  -24.5230 C.3    95  LYS95       0.0311
    107  CG        71.6770  189.2540  -25.1000 C.3    95  LYS95       0.0038
    108  CD        71.7800  187.7410  -25.4510 C.3    95  LYS95       0.0206
    109  CE        72.6180  187.4140  -26.6820 C.3    95  LYS95       0.1093
    110  NZ        72.2790  186.0360  -27.1850 N.3    95  LYS95      -0.1314
    111  N         68.3160  191.4220  -22.3840 N.am   96  GLY96      -0.1940
    112  CA        66.9500  191.4010  -21.8590 C.3    96  GLY96       0.2014
    113  C         66.6050  190.2140  -20.9680 C.2    96  GLY96       0.2639
    114  O         65.4300  190.0190  -20.5860 O.2    96  GLY96      -0.2714
    115  N         67.6280  189.4420  -20.5970 N.am   97  PHE97      -0.1959
    116  CA        67.4270  188.2190  -19.8890 C.3    97  PHE97       0.1771
    117  C         67.3130  188.4060  -18.3730 C.2    97  PHE97       0.2619
    118  O         66.6000  187.6210  -17.7250 O.2    97  PHE97      -0.2715
    119  CB        68.5740  187.2570  -20.1410 C.3    97  PHE97       0.0574
    120  CG        68.6660  186.7220  -21.5360 C.ar   97  PHE97      -0.0200
    121  CD1       67.6920  186.9760  -22.4890 C.ar   97  PHE97      -0.0042
    122  CD2       69.7680  185.9300  -21.8810 C.ar   97  PHE97      -0.0042
    123  CE1       67.8360  186.4830  -23.7630 C.ar   97  PHE97      -0.0003
    124  CE2       69.9270  185.4420  -23.1460 C.ar   97  PHE97      -0.0003
    125  CZ        68.9660  185.7130  -24.0900 C.ar   97  PHE97      -0.0000
    126  N         68.0160  189.3860  -17.7870 N.am   98  ALA98      -0.1963
    127  CA        68.0920  189.4900  -16.3080 C.3    98  ALA98       0.1728
    128  C         66.7470  189.6870  -15.5440 C.2    98  ALA98       0.2616
    129  O         66.6680  189.4450  -14.3400 O.2    98  ALA98      -0.2715
    130  CB        69.0890  190.5640  -15.9080 C.3    98  ALA98       0.0334
    131  N         65.6900  190.1160  -16.1850 N.am   99  ARG99      -0.1977
    132  CA        64.4370  190.1390  -15.4470 C.3    99  ARG99       0.1597
    133  C         63.9190  188.7090  -15.3160 C.2    99  ARG99       0.2287
    134  O         63.6370  188.2480  -14.2170 O.2    99  ARG99      -0.2864
    135  CB        63.3820  191.0330  -16.1300 C.3    99  ARG99       0.0334
    136  CG        63.8330  192.4670  -16.2110 C.3    99  ARG99       0.0492
    137  CD        62.6840  193.4310  -16.4990 C.3    99  ARG99       0.2205
    138  NE        63.1570  194.7960  -16.3940 N.pl3  99  ARG99      -0.0865
    139  CZ        63.9890  195.3610  -17.2630 C.cat  99  ARG99       0.5346
    140  NH1       64.4180  194.6800  -18.3430 N.pl3  99  ARG99       0.1354
    141  NH2       64.3710  196.6210  -17.0710 N.pl3  99  ARG99       0.1354
    142  N         69.5360  189.4840   -1.1120 N.3   120  LEU120     -0.1231
    143  CA        70.7610  189.5040   -1.9180 C.3   120  LEU120      0.1693
    144  C         71.7420  190.5430   -1.3870 C.2   120  LEU120      0.2592
    145  O         71.5140  191.1230   -0.3270 O.2   120  LEU120     -0.2718
    146  CB        70.4710  189.6850   -3.4290 C.3   120  LEU120      0.0284
    147  CG        69.6310  190.8190   -4.0310 C.3   120  LEU120      0.0019
    148  CD1       70.3680  192.1470   -4.0220 C.3   120  LEU120      0.0001
    149  CD2       69.2640  190.4940   -5.4750 C.3   120  LEU120      0.0001
    150  N         72.8560  190.6830   -2.1120 N.am  121  HIS121     -0.1962
    151  CA        73.9100  191.6260   -1.8610 C.3   121  HIS121      0.1787
    152  C         74.4590  192.1030   -3.2430 C.2   121  HIS121      0.2620
    153  O         74.7820  191.2690   -4.1220 O.2   121  HIS121     -0.2715
    154  CB        75.0100  190.9450   -1.0920 C.3   121  HIS121      0.0785
    155  CG        74.6940  190.6790    0.3440 C.ar  121  HIS121      0.0821
    156  ND1       74.5830  189.4020    0.8540 N.ar  121  HIS121     -0.2267
    157  CD2       74.5470  191.5180    1.3980 C.ar  121  HIS121      0.1154
    158  CE1       74.3520  189.4660    2.1540 C.ar  121  HIS121      0.1986
    159  NE2       74.3220  190.7410    2.5080 N.ar  121  HIS121     -0.2212
    160  N         74.5380  193.4320   -3.4350 N.am  122  VAL122     -0.1963
    161  CA        74.9540  194.0040   -4.7000 C.3   122  VAL122      0.1727
    162  C         76.0530  194.9760   -4.4310 C.2   122  VAL122      0.2616
    163  O         75.9540  195.8130   -3.5200 O.2   122  VAL122     -0.2715
    164  CB        73.9150  194.9210   -5.3390 C.3   122  VAL122      0.0290
    165  CG1       73.9810  194.8130   -6.8570 C.3   122  VAL122      0.0023
    166  CG2       72.5320  194.6910   -4.7750 C.3   122  VAL122      0.0023
    167  N         77.0720  194.9470   -5.2720 N.am  123  ALA123     -0.1977
    168  CA        78.1130  195.9440   -5.1190 C.3   123  ALA123      0.1597
    169  C         77.4320  197.2630   -5.4040 C.2   123  ALA123      0.2287
    170  O         76.6070  197.3490   -6.3320 O.2   123  ALA123     -0.2864
    171  CB        79.2780  195.6740   -6.0530 C.3   123  ALA123      0.0319
    172  N         78.0800  198.0480   -8.7590 N.3   126  ASN126     -0.1240
    173  CA        77.5050  197.2390   -9.7950 C.3   126  ASN126      0.1653
    174  C         76.0300  197.6720  -10.0120 C.2   126  ASN126      0.2266
    175  O         75.1290  196.8540  -10.0470 O.2   126  ASN126     -0.2867
    176  CB        77.6160  195.7750   -9.3630 C.3   126  ASN126      0.1155
    177  CG        77.4570  194.8120  -10.5180 C.2   126  ASN126      0.2627
    178  OD1       77.5550  195.2060  -11.6950 O.2   126  ASN126     -0.2716
    179  ND2       77.2160  193.5400  -10.1990 N.am  126  ASN126     -0.0877
    180  N         73.9730  198.6350  -12.3270 N.3   128  LYS128     -0.1231
    181  CA        73.2280  197.9640  -13.3990 C.3   128  LYS128      0.1693
    182  C         72.4850  196.7500  -12.8040 C.2   128  LYS128      0.2591
    183  O         71.3430  196.4650  -13.1390 O.2   128  LYS128     -0.2718
    184  CB        74.1800  197.5050  -14.5300 C.3   128  LYS128      0.0285
    185  CG        75.1310  198.5650  -15.1320 C.3   128  LYS128      0.0035
    186  CD        74.5610  199.3380  -16.3260 C.3   128  LYS128      0.0206
    187  CE        73.5150  200.3610  -15.8930 C.3   128  LYS128      0.1093
    188  NZ        74.1170  201.5100  -15.1670 N.3   128  LYS128     -0.1314
    189  N         73.1570  196.0730  -11.8830 N.am  129  ALA129     -0.1980
    190  CA        72.5400  195.0720  -11.0390 C.3   129  ALA129      0.1597
    191  C         71.5300  195.6350  -10.0180 C.2   129  ALA129      0.2287
    192  O         70.4490  195.0610   -9.8160 O.2   129  ALA129     -0.2864
    193  CB        73.6270  194.3040  -10.3160 C.3   129  ALA129      0.0319
    194  N         69.7270  198.0700  -10.3510 N.3   131  HIS131     -0.1226
    195  CA        68.6040  198.4890  -11.1850 C.3   131  HIS131      0.1752
    196  C         67.6360  197.3510  -11.5830 C.2   131  HIS131      0.2596
    197  O         66.4250  197.5200  -11.6280 O.2   131  HIS131     -0.2718
    198  CB        69.1840  199.2090  -12.4080 C.3   131  HIS131      0.0759
    199  CG        68.2290  199.3770  -13.5370 C.ar  131  HIS131      0.0818
    200  ND1       66.9900  199.9630  -13.3870 N.ar  131  HIS131     -0.2268
    201  CD2       68.3530  199.0770  -14.8490 C.ar  131  HIS131      0.1154
    202  CE1       66.3780  199.9840  -14.5550 C.ar  131  HIS131      0.1986
    203  NE2       67.1870  199.4620  -15.4610 N.ar  131  HIS131     -0.2212
    204  N         68.1650  196.1740  -11.8350 N.am  132  LEU132     -0.1966
    205  CA        67.3220  195.0520  -12.2020 C.3   132  LEU132      0.1728
    206  C         66.6180  194.4180  -10.9780 C.2   132  LEU132      0.2616
    207  O         65.4880  193.9260  -11.0750 O.2   132  LEU132     -0.2715
    208  CB        68.1740  194.0460  -12.9690 C.3   132  LEU132      0.0311
    209  CG        68.7970  194.6010  -14.2540 C.3   132  LEU132      0.0022
    210  CD1       69.9180  193.7130  -14.7130 C.3   132  LEU132      0.0001
    211  CD2       67.7590  194.7320  -15.3420 C.3   132  LEU132      0.0001
    212  N         67.2530  194.4460   -9.8190 N.am  133  TYR133     -0.1974
    213  CA        66.5730  193.9270   -8.6260 C.3   133  TYR133      0.1639
    214  C         65.4190  194.8450   -8.2180 C.2   133  TYR133      0.2290
    215  O         64.3690  194.3660   -7.8420 O.2   133  TYR133     -0.2864
    216  CB        67.5290  193.7370   -7.4440 C.3   133  TYR133      0.0560
    217  CG        68.7780  192.9820   -7.7810 C.ar  133  TYR133     -0.0198
    218  CD1       68.7270  191.8060   -8.5410 C.ar  133  TYR133     -0.0009
    219  CD2       70.0280  193.4550   -7.3580 C.ar  133  TYR133     -0.0009
    220  CE1       69.8810  191.1200   -8.8750 C.ar  133  TYR133      0.0417
    221  CE2       71.1970  192.7670   -7.6720 C.ar  133  TYR133      0.0417
    222  CZ        71.1270  191.6090   -8.4420 C.ar  133  TYR133      0.1957
    223  OH        72.2840  190.9240   -8.7660 O.3   133  TYR133     -0.2866
    224  N         63.3410  196.6400   -9.8880 N.3   135  GLU135     -0.1245
    225  CA        62.1240  196.4680  -10.7260 C.3   135  GLU135      0.1567
    226  C         61.3670  195.1880  -10.4120 C.2   135  GLU135      0.2260
    227  O         60.1310  195.2000  -10.3500 O.2   135  GLU135     -0.2867
    228  CB        62.4690  196.4750  -12.2290 C.3   135  GLU135      0.0388
    229  CG        62.4170  197.8580  -12.8710 C.3   135  GLU135      0.1160
    230  CD        63.5410  198.0830  -13.8700 C.2   135  GLU135      0.3649
    231  OE1       64.4820  197.2520  -13.9240 O.co2 135  GLU135     -0.2457
    232  OE2       63.4940  199.0990  -14.5900 O.co2 135  GLU135     -0.2457
@<TRIPOS>BOND
     1   110   109    1
     2   109   108    1
     3   108   107    1
     4    87    85   ar
     5    87    88   ar
     6   107   106    1
     7    85    84   ar
     8   106   103    1
     9   101   100    2
    10   105   104    2
    11    88    86   ar
    12   103   104    1
    13   103   102    1
    14   125   123   ar
    15   125   124   ar
    16   123   121   ar
    17   104   111   am
    18   100   102   am
    19   100    99    1
    20    84    86   ar
    21    84    83    1
    22    92    91    2
    23    79    80    1
    24    80    83    1
    25    80    81    1
    26   124   122   ar
    27    82    81    2
    28    81    89   am
    29    99    98    1
    30   121   120   ar
    31   111   112    1
    32    91    98   am
    33    91    90    1
    34   122   120   ar
    35    89    90    1
    36   112   113    1
    37   120   119    1
    38    90    93    1
    39   113   115   am
    40   113   114    2
    41   115   116    1
    42    93    94    1
    43   119   116    1
    44   116   117    1
    45    77    75    1
    46    96    95    2
    47    94    95    1
    48    95    97   am
    49   117   126   am
    50   117   118    2
    51   140   139    1
    52    78    76    1
    53   126   127    1
    54    73    74    2
    55    73    72    1
    56    75    76    1
    57    75    72    1
    58   139   141    1
    59   139   138    2
    60    72    71    1
    61   137   138    1
    62   137   136    1
    63   186   187    1
    64   186   185    1
    65   127   130    1
    66   127   128    1
    67   136   135    1
    68   131   128   am
    69   131   132    1
    70     8     6    1
    71   135   132    1
    72   187   188    1
    73    71    65   am
    74   128   129    2
    75   203   201   ar
    76   203   202   ar
    77     6     5    1
    78   132   133    1
    79   211   209    1
    80   133   134    2
    81   185   184    1
    82   201   199   ar
    83    66    65    2
    84   210   209    1
    85    65    64    1
    86   232   230   ar
    87   202   200   ar
    88   184   181    1
    89   209   208    1
    90    69    67    1
    91     1     2    1
    92     5     2    1
    93     5     7    1
    94   231   230   ar
    95   230   229    1
    96    20    19    1
    97   199   200   ar
    98   199   198    1
    99     2     3    1
   100   181   182    1
   101   181   180    1
   102    64    67    1
   103    64    63    1
   104    18    19   ar
   105    18    16   ar
   106   183   182    2
   107    67    68    1
   108    62    60    1
   109   208   205    1
   110   229   228    1
   111   182   189   am
   112    19    17   ar
   113   198   195    1
   114    16    14   ar
   115    60    59    1
   116    63    57   am
   117   228   225    1
   118   205   204    1
   119   205   206    1
   120     3     4    2
   121   189   190    1
   122   204   196   am
   123    68    70    1
   124   178   177    2
   125   197   196    2
   126   196   195    1
   127    17    15   ar
   128    57    58    2
   129    57    56    1
   130   195   194    1
   131   207   206    2
   132   190   193    1
   133   190   191    1
   134    14    15   ar
   135    14    13    1
   136   206   212   am
   137    59    61    1
   138    59    56    1
   139   225   226    1
   140   225   224    1
   141   177   179   am
   142   177   176    1
   143    56    55    1
   144   226   227    2
   145    13    10    1
   146   175   174    2
   147   191   192    2
   148   174   173    1
   149   212   213    1
   150   173   176    1
   151   173   172    1
   152     9    10    1
   153    55    48   am
   154    10    11    1
   155   220   218   ar
   156   220   222   ar
   157   223   222    1
   158   213   214    1
   159   213   216    1
   160    32    34   ar
   161    32    30   ar
   162   218   217   ar
   163    34    33   ar
   164    49    48    2
   165   222   221   ar
   166    29    30   ar
   167    29    27   ar
   168    30    28   ar
   169   214   215    2
   170    48    47    1
   171    33    31   ar
   172    11    12    2
   173    11    21   am
   174    27    26   ar
   175    28    31   ar
   176    28    26   ar
   177   217   216    1
   178   217   219   ar
   179    26    25    1
   180    21    22    1
   181   221   219   ar
   182    25    22    1
   183   165   164    1
   184    22    23    1
   185    47    50    1
   186    47    46    1
   187   170   169    2
   188    50    51    1
   189   171   168    1
   190   149   147    1
   191    23    35   am
   192    23    24    2
   193   169   168    1
   194   164   166    1
   195   164   161    1
   196   167   168    1
   197   167   162   am
   198    35    36    1
   199    53    52    2
   200    51    52    1
   201   161   162    1
   202   161   160    1
   203    52    54   am
   204   162   163    2
   205   153   152    2
   206   147   148    1
   207   147   146    1
   208    36    37    1
   209    36    39    1
   210    45    43   ar
   211    45    44   ar
   212    43    41   ar
   213    37    38    2
   214    44    42   ar
   215    41    40   ar
   216   160   152   am
   217   146   143    1
   218   152   151    1
   219    42    40   ar
   220    40    39    1
   221   150   151    1
   222   150   144   am
   223   143   144    1
   224   143   142    1
   225   151   154    1
   226   144   145    2
   227   154   155    1
   228   155   156   ar
   229   155   157   ar
   230   156   158   ar
   231   157   159   ar
   232   158   159   ar
