@<TRIPOS>MOLECULE
tmp/4r87G00.pdb
 97 94 0 0 0
SMALL
GASTEIGER

@<TRIPOS>ATOM
      1  N         53.2430  157.9880  -15.5320 N.3    88  ILE88      -0.1245
      2  CA        53.4730  157.5840  -16.9070 C.3    88  ILE88       0.1561
      3  C         54.1430  158.7700  -17.5970 C.2    88  ILE88       0.2260
      4  O         53.6560  159.9070  -17.4990 O.2    88  ILE88      -0.2867
      5  CB        52.1690  157.2050  -17.6120 C.3    88  ILE88       0.0252
      6  CG1       51.5350  155.9980  -16.9210 C.3    88  ILE88       0.0019
      7  CG2       52.4140  156.8470  -19.0750 C.3    88  ILE88       0.0019
      8  CD1       50.0600  155.8220  -17.2470 C.3    88  ILE88       0.0001
      9  N         53.6670  159.3040  -23.0460 N.3    92  HIS92      -0.1226
     10  CA        52.7220  158.1460  -23.0960 C.3    92  HIS92       0.1752
     11  C         51.4220  158.2780  -22.3460 C.2    92  HIS92       0.2596
     12  O         50.7000  157.2880  -22.1950 O.2    92  HIS92      -0.2718
     13  CB        53.4290  156.8430  -22.7030 C.3    92  HIS92       0.0759
     14  CG        54.7090  156.6500  -23.4280 C.ar   92  HIS92       0.0818
     15  ND1       54.7800  155.9890  -24.6310 N.ar   92  HIS92      -0.2268
     16  CD2       55.9540  157.1240  -23.1850 C.ar   92  HIS92       0.1154
     17  CE1       56.0290  155.9890  -25.0620 C.ar   92  HIS92       0.1986
     18  NE2       56.7620  156.6730  -24.2000 N.ar   92  HIS92      -0.2212
     19  N         51.1200  159.4850  -21.8800 N.am   93  GLN93      -0.1965
     20  CA        49.8140  159.8030  -21.2250 C.3    93  GLN93       0.1733
     21  C         48.6860  159.8500  -22.2340 C.2    93  GLN93       0.2617
     22  O         48.9090  160.1200  -23.4080 O.2    93  GLN93      -0.2715
     23  CB        49.8570  161.1780  -20.5350 C.3    93  GLN93       0.0408
     24  CG        50.8150  161.3110  -19.3510 C.3    93  GLN93       0.0908
     25  CD        50.9680  162.7640  -18.9140 C.2    93  GLN93       0.2608
     26  OE1       50.6700  163.6970  -19.6950 O.2    93  GLN93      -0.2717
     27  NE2       51.4570  162.9740  -17.6850 N.am   93  GLN93      -0.0878
     28  N         47.4630  159.6170  -21.7940 N.am   94  GLY94      -0.1940
     29  CA        46.3130  159.7750  -22.6980 C.3    94  GLY94       0.2014
     30  C         46.0100  158.5490  -23.5340 C.2    94  GLY94       0.2639
     31  O         45.2490  158.5920  -24.5130 O.2    94  GLY94      -0.2714
     32  N         46.5960  157.4370  -23.1170 N.am   95  LYS95      -0.1963
     33  CA        46.6120  156.2030  -23.9010 C.3    95  LYS95       0.1728
     34  C         45.7920  155.0850  -23.3090 C.2    95  LYS95       0.2617
     35  O         45.6230  154.0680  -23.9670 O.2    95  LYS95      -0.2715
     36  CB        48.0470  155.7180  -24.0190 C.3    95  LYS95       0.0311
     37  CG        48.9420  156.6560  -24.8080 C.3    95  LYS95       0.0038
     38  CD        50.1780  155.9060  -25.3340 C.3    95  LYS95       0.0206
     39  CE        51.0770  156.7740  -26.2130 C.3    95  LYS95       0.1093
     40  NZ        52.3720  156.0670  -26.4700 N.3    95  LYS95      -0.1314
     41  N         45.3460  155.2370  -22.0610 N.am   96  GLY96      -0.1940
     42  CA        44.6210  154.1750  -21.3530 C.3    96  GLY96       0.2014
     43  C         45.4620  153.1600  -20.5810 C.2    96  GLY96       0.2639
     44  O         44.9690  152.0780  -20.2230 O.2    96  GLY96      -0.2714
     45  N         46.7170  153.5230  -20.2900 N.am   97  PHE97      -0.1959
     46  CA        47.6400  152.6510  -19.5690 C.3    97  PHE97       0.1771
     47  C         47.4550  152.6350  -18.0360 C.2    97  PHE97       0.2619
     48  O         47.4620  151.5560  -17.4380 O.2    97  PHE97      -0.2715
     49  CB        49.0980  152.9870  -19.9390 C.3    97  PHE97       0.0574
     50  CG        49.3980  152.8920  -21.4330 C.ar   97  PHE97      -0.0200
     51  CD1       48.5340  152.2130  -22.3040 C.ar   97  PHE97      -0.0042
     52  CD2       50.5540  153.4590  -21.9470 C.ar   97  PHE97      -0.0042
     53  CE1       48.8080  152.1230  -23.6460 C.ar   97  PHE97      -0.0003
     54  CE2       50.8310  153.3730  -23.2880 C.ar   97  PHE97      -0.0003
     55  CZ        49.9620  152.7060  -24.1440 C.ar   97  PHE97      -0.0000
     56  N         47.2740  153.7950  -17.3980 N.am   98  ALA98      -0.1963
     57  CA        47.1420  153.8690  -15.9220 C.3    98  ALA98       0.1728
     58  C         46.3560  152.6860  -15.2560 C.2    98  ALA98       0.2616
     59  O         46.7590  152.1440  -14.1980 O.2    98  ALA98      -0.2715
     60  CB        46.5140  155.1980  -15.5200 C.3    98  ALA98       0.0334
     61  N         45.2440  152.2710  -15.8390 N.am   99  ARG99      -0.1977
     62  CA        44.5520  151.1500  -15.2160 C.3    99  ARG99       0.1597
     63  C         45.4420  149.8790  -15.1180 C.2    99  ARG99       0.2287
     64  O         45.5630  149.2840  -14.0590 O.2    99  ARG99      -0.2864
     65  CB        43.2590  150.8590  -15.9650 C.3    99  ARG99       0.0334
     66  CG        42.3340  149.9400  -15.2360 C.3    99  ARG99       0.0492
     67  CD        41.0980  149.7400  -16.0860 C.3    99  ARG99       0.2205
     68  NE        40.3070  150.9770  -16.0950 N.pl3  99  ARG99      -0.0865
     69  CZ        39.2950  151.2520  -15.2780 C.cat  99  ARG99       0.5346
     70  NH1       38.7130  152.4270  -15.3790 N.pl3  99  ARG99       0.1354
     71  NH2       38.8600  150.3800  -14.3680 N.pl3  99  ARG99       0.1354
     72  N         40.6530  163.3790  -11.9700 N.3   128  LYS128     -0.1245
     73  CA        40.8670  162.2990  -12.9280 C.3   128  LYS128      0.1561
     74  C         41.5060  161.0850  -12.2470 C.2   128  LYS128      0.2260
     75  O         40.9980  159.9800  -12.3480 O.2   128  LYS128     -0.2867
     76  CB        41.6870  162.7540  -14.1550 C.3   128  LYS128      0.0271
     77  CG        43.0640  163.3430  -13.8910 C.3   128  LYS128      0.0035
     78  CD        43.5860  164.0210  -15.1570 C.3   128  LYS128      0.0206
     79  CE        45.0800  163.8470  -15.3400 C.3   128  LYS128      0.1093
     80  NZ        45.5170  164.4660  -16.6160 N.3   128  LYS128     -0.1314
     81  N         39.8200  157.3890  -11.3740 N.3   132  LEU132     -0.1245
     82  CA        40.5710  156.2550  -11.9570 C.3   132  LEU132      0.1561
     83  C         40.8840  155.1850  -10.8850 C.2   132  LEU132      0.2260
     84  O         40.7370  154.0030  -11.1190 O.2   132  LEU132     -0.2867
     85  CB        41.8990  156.7560  -12.5900 C.3   132  LEU132      0.0270
     86  CG        42.6250  155.9790  -13.7200 C.3   132  LEU132      0.0019
     87  CD1       42.2420  154.5080  -13.7420 C.3   132  LEU132      0.0001
     88  CD2       42.4230  156.5790  -15.1170 C.3   132  LEU132      0.0001
     89  N         37.8350  153.2620   -9.4700 N.3   135  GLU135     -0.1245
     90  CA        37.5480  152.2220  -10.4590 C.3   135  GLU135      0.1567
     91  C         38.4510  150.9490  -10.4420 C.2   135  GLU135      0.2260
     92  O         37.9840  149.8500  -10.8150 O.2   135  GLU135     -0.2867
     93  CB        37.6360  152.8530  -11.8560 C.3   135  GLU135      0.0388
     94  CG        36.5270  153.8210  -12.2110 C.3   135  GLU135      0.1160
     95  CD        36.7260  154.3960  -13.6050 C.2   135  GLU135      0.3649
     96  OE1       36.8780  155.6440  -13.7500 O.co2 135  GLU135     -0.2457
     97  OE2       36.7440  153.5820  -14.5640 O.co2 135  GLU135     -0.2457
@<TRIPOS>BOND
     1    40    39    1
     2    39    38    1
     3    38    37    1
     4    17    15   ar
     5    17    18   ar
     6    37    36    1
     7    15    14   ar
     8    31    30    2
     9    18    16   ar
    10    55    53   ar
    11    55    54   ar
    12    36    33    1
    13    35    34    2
    14    33    34    1
    15    33    32    1
    16    53    51   ar
    17    30    32   am
    18    30    29    1
    19    14    16   ar
    20    14    13    1
    21    22    21    2
    22    34    41   am
    23    54    52   ar
    24    10     9    1
    25    10    13    1
    26    10    11    1
    27    29    28    1
    28    11    12    2
    29    11    19   am
    30    51    50   ar
    31    21    28   am
    32    21    20    1
    33    41    42    1
    34    52    50   ar
    35    19    20    1
    36    50    49    1
    37    42    43    1
    38    20    23    1
    39    43    45   am
    40    43    44    2
    41    23    24    1
    42    45    46    1
    43    49    46    1
    44    26    25    2
    45    46    47    1
    46    24    25    1
    47     7     5    1
    48    25    27   am
    49    47    48    2
    50    47    56   am
    51     5     6    1
    52     5     2    1
    53     3     4    2
    54     3     2    1
    55    56    57    1
    56     8     6    1
    57     2     1    1
    58    80    79    1
    59    68    67    1
    60    68    69    2
    61    67    66    1
    62    65    66    1
    63    65    62    1
    64    57    60    1
    65    57    58    1
    66    61    58   am
    67    61    62    1
    68    70    69    1
    69    79    78    1
    70    69    71    1
    71    58    59    2
    72    62    63    1
    73    78    77    1
    74    63    64    2
    75    88    86    1
    76    97    95   ar
    77    76    77    1
    78    76    73    1
    79    96    95   ar
    80    87    86    1
    81    86    85    1
    82    95    94    1
    83    73    74    1
    84    73    72    1
    85    85    82    1
    86    75    74    2
    87    94    93    1
    88    82    81    1
    89    82    83    1
    90    93    90    1
    91    84    83    2
    92    92    91    2
    93    90    91    1
    94    90    89    1
