@<TRIPOS>MOLECULE
tmp/4r87E01.pdb
 121 114 0 0 0
SMALL
GASTEIGER

@<TRIPOS>ATOM
      1  N         83.9650  181.1110  -12.9990 N.3    21  ASN21      -0.1240
      2  CA        84.5490  181.2090  -11.6440 C.3    21  ASN21       0.1653
      3  C         86.0180  181.6390  -11.6400 C.2    21  ASN21       0.2266
      4  O         86.5310  182.1390  -10.5890 O.2    21  ASN21      -0.2867
      5  CB        84.4890  179.8770  -10.9120 C.3    21  ASN21       0.1155
      6  CG        83.1160  179.5420  -10.3630 C.2    21  ASN21       0.2627
      7  OD1       82.0670  179.9180  -10.9080 O.2    21  ASN21      -0.2716
      8  ND2       83.1180  178.7640   -9.2850 N.am   21  ASN21      -0.0877
      9  N         83.6710  187.5460  -11.5520 N.3    27  MET27      -0.1245
     10  CA        83.7960  187.0970  -10.1690 C.3    27  MET27       0.1570
     11  C         84.0650  188.1990   -9.1810 C.2    27  MET27       0.2261
     12  O         83.8840  187.9860   -7.9920 O.2    27  MET27      -0.2867
     13  CB        84.8410  185.9770   -9.9890 C.3    27  MET27       0.0387
     14  CG        84.2850  184.5500   -9.8870 C.3    27  MET27       0.0595
     15  SD        82.7290  184.3180   -8.9590 S.3    27  MET27      -0.1393
     16  CE        83.1140  182.8940   -7.9330 C.3    27  MET27       0.0692
     17  N         80.9300  189.2070   -7.6870 N.3    30  TRP30      -0.1241
     18  CA        80.4490  188.2170   -6.7230 C.3    30  TRP30       0.1605
     19  C         81.3150  188.1200   -5.4650 C.2    30  TRP30       0.2264
     20  O         81.2390  187.1310   -4.7290 O.2    30  TRP30      -0.2867
     21  CB        80.3770  186.8680   -7.3990 C.3    30  TRP30       0.0550
     22  CG        79.0140  186.4510   -7.7690 C.ar   30  TRP30       0.0003
     23  CD1       77.9440  187.2430   -8.0470 C.ar   30  TRP30       0.0946
     24  CD2       78.5860  185.1140   -7.9560 C.ar   30  TRP30       0.0152
     25  NE1       76.8720  186.4690   -8.3810 N.ar   30  TRP30      -0.2442
     26  CE2       77.2480  185.1550   -8.3380 C.ar   30  TRP30       0.0810
     27  CE3       79.2200  183.8780   -7.8480 C.ar   30  TRP30       0.0012
     28  CZ2       76.5230  184.0130   -8.6100 C.ar   30  TRP30       0.0191
     29  CZ3       78.4760  182.7240   -8.1120 C.ar   30  TRP30       0.0001
     30  CH2       77.1570  182.8050   -8.4790 C.ar   30  TRP30       0.0015
     31  N         84.1600  187.4380   -4.7660 N.3    32  GLU32      -0.1231
     32  CA        84.8380  186.1470   -4.5930 C.3    32  GLU32       0.1699
     33  C         86.1800  186.1790   -5.3180 C.2    32  GLU32       0.2592
     34  O         86.3910  187.0040   -6.1880 O.2    32  GLU32      -0.2718
     35  CB        83.9270  184.9860   -5.0570 C.3    32  GLU32       0.0402
     36  CG        84.0150  183.6930   -4.2250 C.3    32  GLU32       0.1161
     37  CD        82.8640  183.4760   -3.2130 C.2    32  GLU32       0.3649
     38  OE1       81.6940  183.5820   -3.6250 O.co2  32  GLU32      -0.2457
     39  OE2       83.1140  183.1450   -2.0100 O.co2  32  GLU32      -0.2457
     40  N         87.1090  185.3150   -4.9410 N.am   33  GLU33      -0.1979
     41  CA        88.4380  185.3230   -5.5680 C.3    33  GLU33       0.1602
     42  C         88.4710  184.6320   -6.9480 C.2    33  GLU33       0.2287
     43  O         88.1450  183.4840   -7.0220 O.2    33  GLU33      -0.2864
     44  CB        89.4640  184.6060   -4.6650 C.3    33  GLU33       0.0415
     45  CG        90.8920  184.9410   -5.1090 C.3    33  GLU33       0.1163
     46  CD        91.9510  184.0830   -4.4730 C.2    33  GLU33       0.3649
     47  OE1       93.1280  184.1610   -4.9460 O.co2  33  GLU33      -0.2457
     48  OE2       91.6090  183.3400   -3.5130 O.co2  33  GLU33      -0.2457
     49  N         89.8520  182.6250   -8.7460 N.3    35  TYR35      -0.1227
     50  CA        90.7530  181.5180   -8.8820 C.3    35  TYR35       0.1736
     51  C         90.1670  180.2720   -8.2530 C.2    35  TYR35       0.2595
     52  O         89.9540  180.2190   -7.0750 O.2    35  TYR35      -0.2718
     53  CB        92.1060  181.9040   -8.2220 C.3    35  TYR35       0.0548
     54  CG        93.1350  180.8180   -8.1280 C.ar   35  TYR35      -0.0200
     55  CD1       92.9390  179.6990   -7.3230 C.ar   35  TYR35      -0.0009
     56  CD2       94.3120  180.9130   -8.8170 C.ar   35  TYR35      -0.0009
     57  CE1       93.8960  178.6980   -7.2360 C.ar   35  TYR35       0.0417
     58  CE2       95.2910  179.9310   -8.7230 C.ar   35  TYR35       0.0417
     59  CZ        95.0780  178.8330   -7.9200 C.ar   35  TYR35       0.1957
     60  OH        96.0320  177.8630   -7.8190 O.3    35  TYR35      -0.2866
     61  N         89.9580  179.2410   -9.0470 N.am   36  GLU36      -0.1965
     62  CA        89.4240  177.9710   -8.5270 C.3    36  GLU36       0.1733
     63  C         89.6670  176.7950   -9.5020 C.2    36  GLU36       0.2617
     64  O         88.9040  176.5870  -10.4780 O.2    36  GLU36      -0.2715
     65  CB        87.9420  178.1010   -8.2560 C.3    36  GLU36       0.0429
     66  CG        87.2500  176.7910   -7.9520 C.3    36  GLU36       0.1163
     67  CD        85.7650  177.0010   -7.8560 C.2    36  GLU36       0.3649
     68  OE1       85.2280  176.9560   -6.7130 O.co2  36  GLU36      -0.2457
     69  OE2       85.1520  177.2660   -8.9240 O.co2  36  GLU36      -0.2457
     70  N         90.7090  176.0220   -9.2230 N.am   37  SER37      -0.1950
     71  CA        91.0010  174.8420  -10.0140 C.3    37  SER37       0.1924
     72  C         89.7360  173.9940  -10.3210 C.2    37  SER37       0.2314
     73  O         88.8190  173.8460   -9.5170 O.2    37  SER37      -0.2863
     74  CB        92.0850  173.9720   -9.3250 C.3    37  SER37       0.2116
     75  OG        91.5430  173.1190   -8.3260 O.3    37  SER37      -0.2180
     76  N         89.1550  171.9290   -7.5130 N.3    40  GLU40      -0.1245
     77  CA        88.4750  172.5190   -6.3630 C.3    40  GLU40       0.1567
     78  C         86.9690  172.5490   -6.6230 C.2    40  GLU40       0.2260
     79  O         86.1880  172.1310   -5.7840 O.2    40  GLU40      -0.2867
     80  CB        88.9760  173.9320   -6.0060 C.3    40  GLU40       0.0388
     81  CG        88.1940  174.5290   -4.8390 C.3    40  GLU40       0.1160
     82  CD        88.9530  175.4730   -3.9320 C.2    40  GLU40       0.3649
     83  OE1       88.4580  175.6470   -2.7960 O.co2  40  GLU40      -0.2457
     84  OE2       90.0010  176.0820   -4.3250 O.co2  40  GLU40      -0.2457
     85  N         84.1860  170.2040   -4.3930 N.3    44  LEU44      -0.1245
     86  CA        83.1890  170.9000   -3.6470 C.3    44  LEU44       0.1561
     87  C         81.8130  170.5460   -4.2110 C.2    44  LEU44       0.2260
     88  O         80.8370  170.4150   -3.4650 O.2    44  LEU44      -0.2867
     89  CB        83.4400  172.3930   -3.7040 C.3    44  LEU44       0.0270
     90  CG        84.7710  172.9730   -3.1150 C.3    44  LEU44       0.0019
     91  CD1       84.8010  174.4560   -3.4880 C.3    44  LEU44       0.0001
     92  CD2       84.9920  172.7590   -1.6060 C.3    44  LEU44       0.0001
     93  N         71.5160  174.8600   -6.8710 N.3    56  ARG56      -0.1245
     94  CA        72.3890  175.3210   -7.8760 C.3    56  ARG56       0.1563
     95  C         71.7350  175.1260   -9.2400 C.2    56  ARG56       0.2260
     96  O         71.4520  173.9750   -9.6010 O.2    56  ARG56      -0.2867
     97  CB        73.6470  174.4780   -7.7830 C.3    56  ARG56       0.0307
     98  CG        74.5290  174.7480   -6.5700 C.3    56  ARG56       0.0489
     99  CD        75.7980  175.4340   -7.0470 C.3    56  ARG56       0.2205
    100  NE        76.8060  175.5940   -6.0060 N.pl3  56  ARG56      -0.0865
    101  CZ        78.1260  175.5310   -6.2230 C.cat  56  ARG56       0.5346
    102  NH1       78.9630  175.6810   -5.1760 N.pl3  56  ARG56       0.1354
    103  NH2       78.6070  175.3280   -7.4660 N.pl3  56  ARG56       0.1354
    104  N         71.5140  180.8400   -8.3950 N.3    71  GLU71      -0.1245
    105  CA        71.7430  180.0180   -7.1870 C.3    71  GLU71       0.1567
    106  C         70.9530  180.4990   -5.9950 C.2    71  GLU71       0.2260
    107  O         70.4140  181.6190   -5.9860 O.2    71  GLU71      -0.2867
    108  CB        73.2110  179.9490   -6.7930 C.3    71  GLU71       0.0388
    109  CG        74.1570  179.4320   -7.8920 C.3    71  GLU71       0.1160
    110  CD        75.6130  179.4590   -7.4620 C.2    71  GLU71       0.3649
    111  OE1       76.4600  178.8670   -8.1720 O.co2  71  GLU71      -0.2457
    112  OE2       75.9110  180.0680   -6.4030 O.co2  71  GLU71      -0.2457
    113  N         71.7750  184.7520   -5.8750 N.3    85  GLN85      -0.1245
    114  CA        72.9370  185.2150   -6.6570 C.3    85  GLN85       0.1566
    115  C         72.7670  184.8160   -8.1460 C.2    85  GLN85       0.2260
    116  O         72.1460  183.8120   -8.4790 O.2    85  GLN85      -0.2867
    117  CB        74.1770  184.4590   -6.2490 C.3    85  GLN85       0.0367
    118  CG        74.6960  184.5550   -4.8450 C.3    85  GLN85       0.0905
    119  CD        75.7840  183.5090   -4.6230 C.2    85  GLN85       0.2608
    120  OE1       75.7120  182.4150   -5.1950 O.2    85  GLN85      -0.2717
    121  NE2       76.7780  183.8250   -3.7990 N.am   85  GLN85      -0.0878
@<TRIPOS>BOND
     1     1     2    1
     2     2     3    1
     3     2     5    1
     4     3     4    2
     5     9    10    1
     6     5     6    1
     7     7     6    2
     8    64    63    2
     9     6     8   am
    10    72    71    1
    11    72    73    2
    12    10    13    1
    13    10    11    1
    14    71    74    1
    15    71    70    1
    16    13    14    1
    17    14    15    1
    18    96    95    2
    19    63    70   am
    20    63    62    1
    21    74    75    1
    22    95    94    1
    23    11    12    2
    24    61    62    1
    25    61    51   am
    26    15    16    1
    27    69    67   ar
    28    50    49    1
    29    50    51    1
    30    50    53    1
    31    56    58   ar
    32    56    54   ar
    33    58    59   ar
    34    28    30   ar
    35    28    26   ar
    36    62    65    1
    37    30    29   ar
    38   116   115    2
    39   104   105    1
    40    25    26   ar
    41    25    23   ar
    42    26    24   ar
    43    65    66    1
    44    51    52    2
    45    53    54    1
    46   111   110   ar
    47   115   114    1
    48    54    55   ar
    49    29    27   ar
    50    23    22   ar
    51    24    27   ar
    52    24    22   ar
    53    66    67    1
    54    59    60    1
    55    59    57   ar
    56   109   110    1
    57   109   108    1
    58    94    97    1
    59    94    93    1
    60    67    68   ar
    61    97    98    1
    62    22    21    1
    63    17    18    1
    64    76    77    1
    65   103   101    1
    66   110   112   ar
    67    21    18    1
    68    55    57   ar
    69   105   108    1
    70   105   106    1
    71    99    98    1
    72    99   100    1
    73    43    42    2
    74    42    41    1
    75    18    19    1
    76   114   117    1
    77   114   113    1
    78    78    77    1
    79    78    79    2
    80    77    80    1
    81   117   118    1
    82   101   100    2
    83   101   102    1
    84    34    33    2
    85    80    81    1
    86   106   107    2
    87    41    40    1
    88    41    44    1
    89    19    20    2
    90    33    40   am
    91    33    32    1
    92   120   119    2
    93    45    44    1
    94    45    46    1
    95    35    32    1
    96    35    36    1
    97    47    46   ar
    98   118   119    1
    99    81    82    1
   100    31    32    1
   101   119   121   am
   102    46    48   ar
   103    85    86    1
   104    84    82   ar
   105    36    37    1
   106    87    86    1
   107    87    88    2
   108    82    83   ar
   109    89    86    1
   110    89    90    1
   111    38    37   ar
   112    91    90    1
   113    37    39   ar
   114    90    92    1
