@<TRIPOS>MOLECULE
tmp/4r88B00.pdb
 120 114 0 0 0
SMALL
GASTEIGER

@<TRIPOS>ATOM
      1  N         27.9680   17.7040  -13.3350 N.3    58  HIS58      -0.1241
      2  CA        26.7700   18.1390  -14.0620 C.3    58  HIS58       0.1621
      3  C         26.9660   19.5480  -14.6070 C.2    58  HIS58       0.2264
      4  O         26.5110   20.5100  -13.9910 O.2    58  HIS58      -0.2867
      5  CB        25.5480   18.1230  -13.1380 C.3    58  HIS58       0.0745
      6  CG        25.1290   16.7490  -12.7310 C.ar   58  HIS58       0.0817
      7  ND1       24.1280   16.0570  -13.3780 N.ar   58  HIS58      -0.2268
      8  CD2       25.5970   15.9230  -11.7680 C.ar   58  HIS58       0.1154
      9  CE1       23.9950   14.8640  -12.8300 C.ar   58  HIS58       0.1986
     10  NE2       24.8750   14.7590  -11.8510 N.ar   58  HIS58      -0.2212
     11  N         18.3170   15.4430   -2.2610 N.3    76  LEU76      -0.1245
     12  CA        18.3530   15.0990   -3.6770 C.3    76  LEU76       0.1561
     13  C         17.0250   15.4690   -4.3610 C.2    76  LEU76       0.2260
     14  O         17.0000   16.0500   -5.4510 O.2    76  LEU76      -0.2867
     15  CB        18.6190   13.6030   -3.8520 C.3    76  LEU76       0.0270
     16  CG        18.4980   13.1020   -5.2980 C.3    76  LEU76       0.0019
     17  CD1       19.5720   13.7450   -6.1520 C.3    76  LEU76       0.0001
     18  CD2       18.5810   11.5840   -5.3760 C.3    76  LEU76       0.0001
     19  N         21.7670   11.7650  -19.5270 N.3   149  PHE149     -0.1241
     20  CA        21.2840   11.5140  -18.1760 C.3   149  PHE149      0.1605
     21  C         19.8150   11.8990  -18.0510 C.2   149  PHE149      0.2264
     22  O         19.4640   13.0690  -18.1590 O.2   149  PHE149     -0.2867
     23  CB        22.1370   12.3110  -17.1830 C.3   149  PHE149      0.0534
     24  CG        21.6020   12.3160  -15.7810 C.ar  149  PHE149     -0.0203
     25  CD1       21.3760   11.1260  -15.1070 C.ar  149  PHE149     -0.0042
     26  CD2       21.3360   13.5140  -15.1300 C.ar  149  PHE149     -0.0042
     27  CE1       20.8860   11.1240  -13.7910 C.ar  149  PHE149     -0.0003
     28  CE2       20.8400   13.5270  -13.8160 C.ar  149  PHE149     -0.0003
     29  CZ        20.6230   12.3310  -13.1480 C.ar  149  PHE149     -0.0000
     30  N         17.4160   12.8170  -15.9500 N.3   151  GLN151     -0.1245
     31  CA        17.1990   13.2380  -14.5630 C.3   151  GLN151      0.1566
     32  C         15.8360   12.8400  -14.0010 C.2   151  GLN151      0.2260
     33  O         15.7420   12.3410  -12.8670 O.2   151  GLN151     -0.2867
     34  CB        17.3680   14.7460  -14.4150 C.3   151  GLN151      0.0367
     35  CG        17.0250   15.2530  -13.0260 C.3   151  GLN151      0.0905
     36  CD        18.0640   14.8470  -12.0210 C.2   151  GLN151      0.2608
     37  OE1       19.0460   15.5570  -11.8230 O.2   151  GLN151     -0.2717
     38  NE2       17.8690   13.6920  -11.3870 N.am  151  GLN151     -0.0878
     39  N         18.7490    6.4460  -13.9860 N.3   178  ILE178     -0.1245
     40  CA        18.4730    6.7860  -12.5930 C.3   178  ILE178      0.1561
     41  C         17.3960    5.8490  -11.9930 C.2   178  ILE178      0.2260
     42  O         16.3310    6.2850  -11.5620 O.2   178  ILE178     -0.2867
     43  CB        18.1190    8.3020  -12.4750 C.3   178  ILE178      0.0252
     44  CG1       18.0970    8.7600  -11.0090 C.3   178  ILE178      0.0019
     45  CG2       16.8100    8.6390  -13.2470 C.3   178  ILE178      0.0019
     46  CD1       17.8470   10.2620  -10.8330 C.3   178  ILE178      0.0001
     47  N         23.4750    6.7410  -12.5370 N.3   209  HIS209     -0.1241
     48  CA        23.2430    7.1720  -11.1500 C.3   209  HIS209      0.1621
     49  C         22.4940    6.0580  -10.4900 C.2   209  HIS209      0.2264
     50  O         21.3000    5.8860  -10.7160 O.2   209  HIS209     -0.2867
     51  CB        22.3570    8.4040  -11.0750 C.3   209  HIS209      0.0745
     52  CG        23.0580    9.6720  -11.4300 C.ar  209  HIS209      0.0817
     53  ND1       23.6230    9.8860  -12.6700 N.ar  209  HIS209     -0.2268
     54  CD2       23.2800   10.7980  -10.7130 C.ar  209  HIS209      0.1154
     55  CE1       24.1580   11.0920  -12.7050 C.ar  209  HIS209      0.1986
     56  NE2       23.9660   11.6640  -11.5300 N.ar  209  HIS209     -0.2212
     57  N         21.2820    6.2930   -5.4890 N.3   212  GLU212     -0.1245
     58  CA        21.6810    7.4990   -4.7520 C.3   212  GLU212      0.1567
     59  C         20.5860    7.8720   -3.7710 C.2   212  GLU212      0.2260
     60  O         19.8690    8.8560   -3.9560 O.2   212  GLU212     -0.2867
     61  CB        21.9290    8.6860   -5.6990 C.3   212  GLU212      0.0388
     62  CG        22.5530    9.9010   -4.9770 C.3   212  GLU212      0.1160
     63  CD        22.7410   11.0950   -5.8900 C.2   212  GLU212      0.3649
     64  OE1       23.3590   12.0880   -5.4430 O.co2 212  GLU212     -0.2457
     65  OE2       22.2930   11.0430   -7.0570 O.co2 212  GLU212     -0.2457
     66  N         27.6140    6.9030   -7.5740 N.3   241  HIS241     -0.1241
     67  CA        27.0200    7.0290   -6.2390 C.3   241  HIS241      0.1621
     68  C         26.9500    5.7110   -5.4540 C.2   241  HIS241      0.2264
     69  O         27.7900    5.4720   -4.5870 O.2   241  HIS241     -0.2867
     70  CB        25.6800    7.7730   -6.2680 C.3   241  HIS241      0.0745
     71  CG        25.7680    9.1460   -6.8700 C.ar  241  HIS241      0.0817
     72  ND1       26.4870   10.1720   -6.2880 N.ar  241  HIS241     -0.2268
     73  CD2       25.2360    9.6580   -8.0080 C.ar  241  HIS241      0.1154
     74  CE1       26.3940   11.2550   -7.0420 C.ar  241  HIS241      0.1986
     75  NE2       25.6410   10.9710   -8.0900 N.ar  241  HIS241     -0.2212
     76  N         29.4030   15.6050   -2.0600 N.3   273  GLU273     -0.1245
     77  CA        28.0010   15.7000   -2.4410 C.3   273  GLU273      0.1567
     78  C         27.1630   14.8090   -1.5360 C.2   273  GLU273      0.2260
     79  O         26.1380   15.2320   -1.0140 O.2   273  GLU273     -0.2867
     80  CB        27.7980   15.2820   -3.9090 C.3   273  GLU273      0.0388
     81  CG        26.3910   15.5590   -4.4330 C.3   273  GLU273      0.1160
     82  CD        26.3440   16.8230   -5.2740 C.2   273  GLU273      0.3649
     83  OE1       27.3140   17.6070   -5.2330 O.co2 273  GLU273     -0.2457
     84  OE2       25.3510   17.0270   -5.9970 O.co2 273  GLU273     -0.2457
     85  N         24.0120   15.5300    0.8620 N.3   277  LEU277     -0.1245
     86  CA        22.6710   15.0940    0.4520 C.3   277  LEU277      0.1561
     87  C         22.1380   13.8650    1.1870 C.2   277  LEU277      0.2260
     88  O         20.9230   13.6950    1.3040 O.2   277  LEU277     -0.2867
     89  CB        22.6070   14.8290   -1.0590 C.3   277  LEU277      0.0270
     90  CG        22.8090   15.9910   -2.0420 C.3   277  LEU277      0.0019
     91  CD1       22.7380   15.4620   -3.4660 C.3   277  LEU277      0.0001
     92  CD2       21.7940   17.1200   -1.8280 C.3   277  LEU277      0.0001
     93  N         30.9970   16.0390   -8.6460 N.3   308  ASP308     -0.1225
     94  CA        29.5420   16.0040   -8.9130 C.3   308  ASP308      0.1805
     95  C         28.9110   17.3600   -9.2810 C.2   308  ASP308      0.2598
     96  O         28.3410   17.5180  -10.3620 O.2   308  ASP308     -0.2718
     97  CB        28.7810   15.3540   -7.7350 C.3   308  ASP308      0.1424
     98  CG        27.4160   14.8140   -8.1440 C.2   308  ASP308      0.3668
     99  OD1       26.7050   14.2410   -7.2960 O.co2 308  ASP308     -0.2456
    100  OD2       27.0520   14.9610   -9.3210 O.co2 308  ASP308     -0.2456
    101  N         29.0050   18.3320   -8.3790 N.am  309  SER309     -0.1952
    102  CA        28.3200   19.6090   -8.5570 C.3   309  SER309      0.1924
    103  C         29.2200   20.7920   -8.2490 C.2   309  SER309      0.2314
    104  O         30.0230   20.7400   -7.3250 O.2   309  SER309     -0.2863
    105  CB        27.1150   19.7010   -7.6150 C.3   309  SER309      0.2116
    106  OG        26.1250   18.7290   -7.9030 O.3   309  SER309     -0.2180
    107  N         21.8570   21.2170   -6.1860 N.3   314  TRP314     -0.1241
    108  CA        22.0900   20.1910   -5.1820 C.3   314  TRP314      0.1605
    109  C         23.1840   20.5730   -4.2000 C.2   314  TRP314      0.2264
    110  O         23.2050   20.0870   -3.0780 O.2   314  TRP314     -0.2867
    111  CB        22.4640   18.8800   -5.8780 C.3   314  TRP314      0.0550
    112  CG        21.3150   18.3590   -6.6540 C.ar  314  TRP314      0.0003
    113  CD1       20.2770   17.5990   -6.1760 C.ar  314  TRP314      0.0946
    114  CD2       21.0450   18.5890   -8.0380 C.ar  314  TRP314      0.0152
    115  NE1       19.3860   17.3280   -7.1920 N.ar  314  TRP314     -0.2442
    116  CE2       19.8330   17.9260   -8.3440 C.ar  314  TRP314      0.0810
    117  CE3       21.7150   19.2750   -9.0560 C.ar  314  TRP314      0.0012
    118  CZ2       19.2820   17.9360   -9.6190 C.ar  314  TRP314      0.0191
    119  CZ3       21.1600   19.2820  -10.3270 C.ar  314  TRP314      0.0001
    120  CH2       19.9600   18.6170  -10.5950 C.ar  314  TRP314      0.0015
@<TRIPOS>BOND
     1    19    20    1
     2    20    21    1
     3    20    23    1
     4    22    21    2
     5    23    24    1
     6    30    31    1
     7    24    26   ar
     8    24    25   ar
     9    26    28   ar
    10    25    27   ar
    11     3     2    1
    12     3     4    2
    13    31    34    1
    14    31    32    1
    15    34    35    1
    16     2     1    1
    17     2     5    1
    18    32    33    2
    19    39    40    1
    20    28    29   ar
    21    27    29   ar
    22     7     9   ar
    23     7     6   ar
    24    45    43    1
    25     5     6    1
    26    35    36    1
    27     9    10   ar
    28     6     8   ar
    29    55    53   ar
    30    55    56   ar
    31    53    52   ar
    32    40    43    1
    33    40    41    1
    34    47    48    1
    35    43    44    1
    36    36    37    2
    37    36    38   am
    38    41    42    2
    39    10     8   ar
    40    56    54   ar
    41    52    51    1
    42    52    54   ar
    43    48    51    1
    44    48    49    1
    45    44    46    1
    46    50    49    2
    47   120   119   ar
    48   120   118   ar
    49    96    95    2
    50   119   117   ar
    51   118   116   ar
    52   100    98   ar
    53    95    94    1
    54    95   101   am
    55   117   114   ar
    56    94    93    1
    57    94    97    1
    58   102   101    1
    59   102   103    1
    60   102   105    1
    61   116   114   ar
    62   116   115   ar
    63   103   104    2
    64    98    97    1
    65    98    99   ar
    66    75    73   ar
    67    75    74   ar
    68   114   112   ar
    69    73    71   ar
    70   106   105    1
    71    66    67    1
    72   115   113   ar
    73    65    63   ar
    74    74    72   ar
    75    71    72   ar
    76    71    70    1
    77   112   113   ar
    78   112   111    1
    79    70    67    1
    80    67    68    1
    81   107   108    1
    82    17    16    1
    83    84    82   ar
    84    63    64   ar
    85    63    62    1
    86   111   108    1
    87    61    62    1
    88    61    58    1
    89    57    58    1
    90    68    69    2
    91    14    13    2
    92    18    16    1
    93    16    15    1
    94    82    83   ar
    95    82    81    1
    96   108   109    1
    97    58    59    1
    98    81    80    1
    99    13    12    1
   100   109   110    2
   101    60    59    2
   102    80    77    1
   103    15    12    1
   104    12    11    1
   105    91    90    1
   106    77    76    1
   107    77    78    1
   108    90    92    1
   109    90    89    1
   110    78    79    2
   111    89    86    1
   112    86    85    1
   113    86    87    1
   114    87    88    2
