@<TRIPOS>MOLECULE
tmp/4r88E01.pdb
 81 75 0 0 0
SMALL
GASTEIGER

@<TRIPOS>ATOM
      1  N        -28.7010   -8.7430    5.0610 N.3    96  ARG96      -0.1245
      2  CA       -29.6330   -7.6220    5.0200 C.3    96  ARG96       0.1563
      3  C        -29.9460   -7.0620    6.4080 C.2    96  ARG96       0.2260
      4  O        -29.8780   -5.8560    6.6230 O.2    96  ARG96      -0.2867
      5  CB       -30.9420   -8.0250    4.3190 C.3    96  ARG96       0.0307
      6  CG       -31.9280   -6.8690    4.2110 C.3    96  ARG96       0.0489
      7  CD       -33.2560   -7.2610    3.5560 C.3    96  ARG96       0.2205
      8  NE       -34.2540   -6.2360    3.8360 N.pl3  96  ARG96      -0.0865
      9  CZ       -35.1290   -6.3020    4.8340 C.cat  96  ARG96       0.5346
     10  NH1      -35.1510   -7.3660    5.6280 N.pl3  96  ARG96       0.1354
     11  NH2      -35.9910   -5.3130    5.0300 N.pl3  96  ARG96       0.1354
     12  N        -28.7370   -3.3660    7.8030 N.3   100  LEU100     -0.1231
     13  CA       -29.7270   -2.3250    8.0650 C.3   100  LEU100      0.1693
     14  C        -29.5790   -1.7990    9.4890 C.2   100  LEU100      0.2591
     15  O        -29.7120   -0.5920    9.7320 O.2   100  LEU100     -0.2718
     16  CB       -31.1520   -2.8300    7.8090 C.3   100  LEU100      0.0284
     17  CG       -31.4820   -3.0520    6.3250 C.3   100  LEU100      0.0019
     18  CD1      -32.8770   -3.6170    6.1460 C.3   100  LEU100      0.0001
     19  CD2      -31.3320   -1.7610    5.5460 C.3   100  LEU100      0.0001
     20  N        -29.3050   -2.7000   10.4290 N.am  101  LYS101     -0.1980
     21  CA       -29.1320   -2.2950   11.8200 C.3   101  LYS101      0.1596
     22  C        -27.9300   -1.3410   11.9630 C.2   101  LYS101      0.2287
     23  O        -28.0330   -0.2900   12.5960 O.2   101  LYS101     -0.2864
     24  CB       -29.0240   -3.5120   12.7440 C.3   101  LYS101      0.0298
     25  CG       -28.8920   -3.1400   14.2080 C.3   101  LYS101      0.0038
     26  CD       -28.8780   -4.3640   15.1100 C.3   101  LYS101      0.0206
     27  CE       -28.6890   -3.9610   16.5690 C.3   101  LYS101      0.1093
     28  NZ       -28.6660   -5.1380   17.4850 N.3   101  LYS101     -0.1314
     29  N        -26.5690    0.4350    9.4950 N.3   103  ILE103     -0.1231
     30  CA       -26.9610    1.6600    8.8030 C.3   103  ILE103      0.1692
     31  C        -27.7470    2.6040    9.7360 C.2   103  ILE103      0.2592
     32  O        -27.4990    3.8120    9.7490 O.2   103  ILE103     -0.2718
     33  CB       -27.7260    1.3860    7.4850 C.3   103  ILE103      0.0266
     34  CG1      -26.7620    0.8640    6.4200 C.3   103  ILE103      0.0019
     35  CG2      -28.3840    2.6530    6.9720 C.3   103  ILE103      0.0020
     36  CD1      -27.4340    0.2500    5.2040 C.3   103  ILE103      0.0001
     37  N        -28.6470    2.0360   10.5360 N.am  104  GLY104     -0.1957
     38  CA       -29.3830    2.7730   11.5550 C.3   104  GLY104      0.1869
     39  C        -28.4770    3.5330   12.5090 C.2   104  GLY104      0.2309
     40  O        -28.7320    4.7040   12.8210 O.2   104  GLY104     -0.2863
     41  N        -26.8410    6.3120   10.6150 N.3   107  ARG107     -0.1245
     42  CA       -27.8830    7.3360   10.5330 C.3   107  ARG107      0.1563
     43  C        -27.9970    8.1250   11.8390 C.2   107  ARG107      0.2260
     44  O        -28.1670    9.3510   11.8180 O.2   107  ARG107     -0.2867
     45  CB       -29.2380    6.7030   10.1770 C.3   107  ARG107      0.0307
     46  CG       -30.4430    7.6680   10.1480 C.3   107  ARG107      0.0489
     47  CD       -31.1930    7.7340   11.4940 C.3   107  ARG107      0.2205
     48  NE       -31.3030    6.4220   12.1330 N.pl3 107  ARG107     -0.0865
     49  CZ       -32.3120    5.5750   11.9400 C.cat 107  ARG107      0.5346
     50  NH1      -33.3100    5.9070   11.1390 N.pl3 107  ARG107      0.1354
     51  NH2      -32.3260    4.3990   12.5560 N.pl3 107  ARG107      0.1354
     52  N        -33.0500   -0.0730   -0.9180 N.3   137  GLU137     -0.1231
     53  CA       -33.9530   -0.0800    0.2360 C.3   137  GLU137      0.1699
     54  C        -33.6420    1.0150    1.2560 C.2   137  GLU137      0.2592
     55  O        -34.5450    1.5480    1.8970 O.2   137  GLU137     -0.2718
     56  CB       -33.9470   -1.4590    0.9150 C.3   137  GLU137      0.0402
     57  CG       -34.8110   -1.5450    2.1720 C.3   137  GLU137      0.1161
     58  CD       -34.8730   -2.9450    2.7820 C.2   137  GLU137      0.3649
     59  OE1      -34.0160   -3.7960    2.4580 O.co2 137  GLU137     -0.2457
     60  OE2      -35.7910   -3.1910    3.5970 O.co2 137  GLU137     -0.2457
     61  N        -32.3680    1.3680    1.3960 N.am  138  ALA138     -0.1980
     62  CA       -31.9800    2.2860    2.4540 C.3   138  ALA138      0.1597
     63  C        -31.6830    3.6840    1.9180 C.2   138  ALA138      0.2287
     64  O        -31.1020    4.5150    2.6180 O.2   138  ALA138     -0.2864
     65  CB       -30.7800    1.7290    3.2330 C.3   138  ALA138      0.0319
     66  N        -33.5190    6.1190    1.4900 N.3   140  ASP140     -0.1225
     67  CA       -34.1640    7.1400    2.3160 C.3   140  ASP140      0.1805
     68  C        -33.2580    7.6770    3.4260 C.2   140  ASP140      0.2597
     69  O        -33.5100    8.7530    3.9630 O.2   140  ASP140     -0.2718
     70  CB       -35.4850    6.6190    2.9090 C.3   140  ASP140      0.1424
     71  CG       -35.3280    5.2670    3.6170 C.2   140  ASP140      0.3668
     72  OD1      -34.3880    4.5150    3.2880 O.co2 140  ASP140     -0.2456
     73  OD2      -36.1570    4.9480    4.4970 O.co2 140  ASP140     -0.2456
     74  N        -32.2050    6.9390    3.7700 N.am  141  LEU141     -0.1979
     75  CA       -31.2970    7.3810    4.8350 C.3   141  LEU141      0.1596
     76  C        -29.8800    7.7010    4.3670 C.2   141  LEU141      0.2287
     77  O        -29.2050    8.5760    4.9440 O.2   141  LEU141     -0.2864
     78  CB       -31.2080    6.3160    5.9290 C.3   141  LEU141      0.0297
     79  CG       -32.5170    5.8710    6.5830 C.3   141  LEU141      0.0022
     80  CD1      -32.2010    4.8010    7.5980 C.3   141  LEU141      0.0001
     81  CD2      -33.2320    7.0400    7.2380 C.3   141  LEU141      0.0001
@<TRIPOS>BOND
     1    52    53    1
     2    53    56    1
     3    53    54    1
     4    56    57    1
     5    54    61   am
     6    54    55    2
     7    61    62    1
     8    66    67    1
     9    63    62    1
    10    63    64    2
    11    57    58    1
    12    67    70    1
    13    67    68    1
    14    62    65    1
    15    59    58   ar
    16    58    60   ar
    17    70    71    1
    18    72    71   ar
    19    68    74   am
    20    68    69    2
    21     7     8    1
    22     7     6    1
    23    71    73   ar
    24    74    75    1
    25     8     9    2
    26     6     5    1
    27     5     2    1
    28    76    75    1
    29    76    77    2
    30     9    11    1
    31     9    10    1
    32    75    78    1
    33     2     1    1
    34     2     3    1
    35    36    34    1
    36    19    17    1
    37    78    79    1
    38    18    17    1
    39    17    16    1
    40     3     4    2
    41    34    33    1
    42    79    81    1
    43    79    80    1
    44    35    33    1
    45    33    30    1
    46    12    13    1
    47    16    13    1
    48    13    14    1
    49    30    29    1
    50    30    31    1
    51    14    15    2
    52    14    20   am
    53    31    32    2
    54    31    37   am
    55    46    45    1
    56    46    47    1
    57    45    42    1
    58    20    21    1
    59    42    41    1
    60    42    43    1
    61    37    38    1
    62    50    49    1
    63    47    48    1
    64    38    39    1
    65    44    43    2
    66    21    22    1
    67    21    24    1
    68    49    48    2
    69    49    51    1
    70    22    23    2
    71    39    40    2
    72    24    25    1
    73    25    26    1
    74    26    27    1
    75    27    28    1
