@<TRIPOS>MOLECULE
tmp/4r88B01.pdb
 97 94 0 0 0
SMALL
GASTEIGER

@<TRIPOS>ATOM
      1  N         17.6900    4.5400  -11.9520 N.3   179  PRO179     -0.2102
      2  CA        16.6660    3.5300  -11.6480 C.3   179  PRO179      0.1504
      3  C         15.9740    3.7140  -10.2920 C.2   179  PRO179      0.2575
      4  O         14.7810    3.3920  -10.1890 O.2   179  PRO179     -0.2718
      5  CB        17.4460    2.1970  -11.7080 C.3   179  PRO179      0.0282
      6  CG        18.8830    2.5770  -11.5410 C.3   179  PRO179      0.0208
      7  CD        19.0050    3.9250  -12.2060 C.3   179  PRO179      0.0893
      8  N         16.6840    4.2360   -9.2910 N.am  180  HIS180     -0.1976
      9  CA        16.1060    4.4260   -7.9670 C.3   180  HIS180      0.1656
     10  C         15.0430    5.5190   -7.9850 C.2   180  HIS180      0.2291
     11  O         14.2170    5.6100   -7.0800 O.2   180  HIS180     -0.2864
     12  CB        17.2000    4.7520   -6.9260 C.3   180  HIS180      0.0771
     13  CG        18.0040    5.9670   -7.2710 C.ar  180  HIS180      0.0820
     14  ND1       18.9920    5.9510   -8.2330 N.ar  180  HIS180     -0.2267
     15  CD2       17.9330    7.2430   -6.8210 C.ar  180  HIS180      0.1154
     16  CE1       19.5090    7.1610   -8.3510 C.ar  180  HIS180      0.1986
     17  NE2       18.8830    7.9650   -7.5080 N.ar  180  HIS180     -0.2212
     18  N         12.8890    6.0280  -10.6840 N.3   182  GLU182     -0.1245
     19  CA        11.6900    5.6280  -11.4170 C.3   182  GLU182      0.1567
     20  C         10.5520    5.3830  -10.4080 C.2   182  GLU182      0.2260
     21  O         10.8090    5.0590   -9.2460 O.2   182  GLU182     -0.2867
     22  CB        11.9530    4.3830  -12.2670 C.3   182  GLU182      0.0388
     23  CG        13.1660    4.4950  -13.2020 C.3   182  GLU182      0.1160
     24  CD        12.8950    5.3310  -14.4440 C.2   182  GLU182      0.3649
     25  OE1       13.8440    5.5560  -15.2200 O.co2 182  GLU182     -0.2457
     26  OE2       11.7370    5.7650  -14.6500 O.co2 182  GLU182     -0.2457
     27  N          8.2460    3.1180   -9.7970 N.3   184  THR184     -0.1203
     28  CA         8.0210    1.8060   -9.1820 C.3   184  THR184      0.1994
     29  C          9.2530    0.9500   -9.3390 C.2   184  THR184      0.2617
     30  O         10.0430    1.1660  -10.2510 O.2   184  THR184     -0.2717
     31  CB         6.8880    1.0290   -9.8630 C.3   184  THR184      0.1784
     32  OG1        7.2660    0.7170  -11.2140 O.3   184  THR184     -0.2211
     33  CG2        5.6200    1.8350   -9.8800 C.3   184  THR184      0.0376
     34  N          9.4120   -0.0370   -8.4660 N.am  185  ARG185     -0.1979
     35  CA        10.5530   -0.9450   -8.5720 C.3   185  ARG185      0.1597
     36  C         10.6580   -1.5960   -9.9560 C.2   185  ARG185      0.2287
     37  O         11.7490   -1.7000  -10.5100 O.2   185  ARG185     -0.2864
     38  CB        10.4920   -2.0270   -7.4910 C.3   185  ARG185      0.0334
     39  CG        11.6590   -2.9970   -7.5350 C.3   185  ARG185      0.0492
     40  CD        11.2920   -4.2790   -8.2710 C.3   185  ARG185      0.2205
     41  NE        12.4170   -5.2080   -8.3280 N.pl3 185  ARG185     -0.0865
     42  CZ        12.4470   -6.3060   -9.0760 C.cat 185  ARG185      0.5346
     43  NH1       13.5230   -7.0900   -9.0540 N.pl3 185  ARG185      0.1354
     44  NH2       11.4130   -6.6230   -9.8500 N.pl3 185  ARG185      0.1354
     45  N         20.4500    7.0520   -2.7390 N.3   213  ILE213     -0.1245
     46  CA        19.3550    7.1460   -1.7960 C.3   213  ILE213      0.1561
     47  C         19.7220    6.2520   -0.6120 C.2   213  ILE213      0.2260
     48  O         20.4790    5.2900   -0.7730 O.2   213  ILE213     -0.2867
     49  CB        18.0360    6.6640   -2.4360 C.3   213  ILE213      0.0252
     50  CG1       16.8420    7.0390   -1.5660 C.3   213  ILE213      0.0019
     51  CG2       18.0610    5.1620   -2.6610 C.3   213  ILE213      0.0019
     52  CD1       15.5150    6.7160   -2.2030 C.3   213  ILE213      0.0001
     53  N         17.8230    4.2890    1.1490 N.3   215  ASP215     -0.1239
     54  CA        16.9230    3.1410    1.2930 C.3   215  ASP215      0.1674
     55  C         17.7020    1.8360    1.0980 C.2   215  ASP215      0.2266
     56  O         18.2350    1.6040    0.0130 O.2   215  ASP215     -0.2867
     57  CB        15.8130    3.2690    0.2270 C.3   215  ASP215      0.1410
     58  CG        14.8020    2.1170    0.2630 C.2   215  ASP215      0.3668
     59  OD1       13.9360    2.0420   -0.6440 O.co2 215  ASP215     -0.2456
     60  OD2       14.8830    1.2900    1.1830 O.co2 215  ASP215     -0.2456
     61  N         16.5990   -0.9950    0.6290 N.3   217  GLN217     -0.1231
     62  CA        15.9420   -1.7800   -0.4170 C.3   217  GLN217      0.1698
     63  C         16.3050   -1.3360   -1.8360 C.2   217  GLN217      0.2593
     64  O         15.8690   -1.9590   -2.8030 O.2   217  GLN217     -0.2718
     65  CB        14.4120   -1.7110   -0.2790 C.3   217  GLN217      0.0381
     66  CG        13.8520   -2.4590    0.9310 C.3   217  GLN217      0.0905
     67  CD        12.3320   -2.6380    0.8640 C.2   217  GLN217      0.2608
     68  OE1       11.6420   -2.4770    1.8620 O.2   217  GLN217     -0.2717
     69  NE2       11.8170   -2.9770   -0.3160 N.am  217  GLN217     -0.0878
     70  N         17.0550   -0.2430   -1.9790 N.am  218  SER218     -0.1938
     71  CA        17.4120    0.2210   -3.3260 C.3   218  SER218      0.2055
     72  C         18.5660   -0.6290   -3.8590 C.2   218  SER218      0.2643
     73  O         19.7410   -0.3830   -3.5550 O.2   218  SER218     -0.2714
     74  CB        17.7830    1.7120   -3.3310 C.3   218  SER218      0.2130
     75  OG        17.8030    2.2340   -4.6610 O.3   218  SER218     -0.2179
     76  N         18.2250   -1.6400   -4.6440 N.am  219  ARG219     -0.1963
     77  CA        19.2100   -2.6300   -5.0700 C.3   219  ARG219      0.1729
     78  C         19.2610   -2.7500   -6.5870 C.2   219  ARG219      0.2616
     79  O         19.2820   -3.8520   -7.1280 O.2   219  ARG219     -0.2715
     80  CB        18.8910   -3.9920   -4.4380 C.3   219  ARG219      0.0348
     81  CG        19.0550   -4.0220   -2.9060 C.3   219  ARG219      0.0492
     82  CD        18.5630   -5.3430   -2.3060 C.3   219  ARG219      0.2205
     83  NE        18.8120   -5.4370   -0.8640 N.pl3 219  ARG219     -0.0865
     84  CZ        18.7550   -6.5780   -0.1850 C.cat 219  ARG219      0.5346
     85  NH1       18.9810   -6.6000    1.1250 N.pl3 219  ARG219      0.1354
     86  NH2       18.4590   -7.7000   -0.8290 N.pl3 219  ARG219      0.1354
     87  N         19.2810   -1.6200   -7.2820 N.am  220  PHE220     -0.1974
     88  CA        19.3910   -1.6650   -8.7430 C.3   220  PHE220      0.1639
     89  C         20.8090   -1.9490   -9.2100 C.2   220  PHE220      0.2290
     90  O         21.0190   -2.3880  -10.3440 O.2   220  PHE220     -0.2864
     91  CB        18.8190   -0.4000   -9.3790 C.3   220  PHE220      0.0560
     92  CG        17.3590   -0.2180   -9.0930 C.ar  220  PHE220     -0.0200
     93  CD1       16.9410    0.6090   -8.0640 C.ar  220  PHE220     -0.0042
     94  CD2       16.4070   -0.9340   -9.8080 C.ar  220  PHE220     -0.0042
     95  CE1       15.5980    0.7580   -7.7720 C.ar  220  PHE220     -0.0003
     96  CE2       15.0560   -0.7980   -9.5200 C.ar  220  PHE220     -0.0003
     97  CZ        14.6470    0.0520   -8.5060 C.ar  220  PHE220     -0.0000
@<TRIPOS>BOND
     1    25    24   ar
     2    26    24   ar
     3    24    23    1
     4    23    22    1
     5    22    19    1
     6     7     1    1
     7     7     6    1
     8     1     2    1
     9     5     2    1
    10     5     6    1
    11     2     3    1
    12    19    18    1
    13    19    20    1
    14    32    31    1
    15    37    36    2
    16    20    21    2
    17    90    89    2
    18     3     4    2
    19     3     8   am
    20    30    29    2
    21    36    35    1
    22    33    31    1
    23    31    28    1
    24    44    42    1
    25    94    96   ar
    26    94    92   ar
    27    27    28    1
    28    96    97   ar
    29    91    92    1
    30    91    88    1
    31    29    28    1
    32    29    34   am
    33     8     9    1
    34    89    88    1
    35    92    93   ar
    36    42    43    1
    37    42    41    2
    38    88    87    1
    39    35    34    1
    40    35    38    1
    41    97    95   ar
    42    16    14   ar
    43    16    17   ar
    44    41    40    1
    45    40    39    1
    46    14    13   ar
    47    93    95   ar
    48    10     9    1
    49    10    11    2
    50     9    12    1
    51    39    38    1
    52    17    15   ar
    53    87    78   am
    54    13    12    1
    55    13    15   ar
    56    79    78    2
    57    78    77    1
    58    77    76    1
    59    77    80    1
    60    75    74    1
    61    76    72   am
    62    80    81    1
    63    72    73    2
    64    72    71    1
    65    74    71    1
    66    71    70    1
    67    81    82    1
    68    64    63    2
    69    45    46    1
    70    51    49    1
    71    49    46    1
    72    49    50    1
    73    82    83    1
    74    52    50    1
    75    70    63   am
    76    63    62    1
    77    46    47    1
    78    83    84    2
    79    86    84    1
    80    48    47    2
    81    59    58   ar
    82    62    65    1
    83    62    61    1
    84    69    67   am
    85    65    66    1
    86    84    85    1
    87    56    55    2
    88    57    58    1
    89    57    54    1
    90    58    60   ar
    91    67    66    1
    92    67    68    2
    93    55    54    1
    94    53    54    1
