@<TRIPOS>MOLECULE
tmp/4r8dA01.pdb
 137 130 0 0 0
SMALL
GASTEIGER

@<TRIPOS>ATOM
      1  N          3.3550  -11.4270  -16.6050 N.3    21  TYR21      -0.1241
      2  CA         4.6370  -10.9190  -16.1380 C.3    21  TYR21       0.1605
      3  C          4.4310   -9.8340  -15.0740 C.2    21  TYR21       0.2264
      4  O          3.3970   -9.1590  -15.0450 O.2    21  TYR21      -0.2867
      5  CB         5.4860  -10.3740  -17.2960 C.3    21  TYR21       0.0534
      6  CG         6.7940   -9.7890  -16.8140 C.ar   21  TYR21      -0.0201
      7  CD1        7.9010  -10.6050  -16.5730 C.ar   21  TYR21      -0.0009
      8  CD2        6.9050   -8.4300  -16.5400 C.ar   21  TYR21      -0.0009
      9  CE1        9.0910  -10.0720  -16.1060 C.ar   21  TYR21       0.0417
     10  CE2        8.0810   -7.8900  -16.0680 C.ar   21  TYR21       0.0417
     11  CZ         9.1700   -8.7110  -15.8590 C.ar   21  TYR21       0.1957
     12  OH        10.3300   -8.1610  -15.3910 O.3    21  TYR21      -0.2866
     13  N         15.1160   -3.1860   -6.5660 N.3    33  ASN33      -0.1225
     14  CA        14.8330   -4.3940   -7.3470 C.3    33  ASN33       0.1785
     15  C         14.6150   -4.1610   -8.8450 C.2    33  ASN33       0.2598
     16  O         14.5890   -5.1110   -9.6180 O.2    33  ASN33      -0.2718
     17  CB        13.6440   -5.1450   -6.7570 C.3    33  ASN33       0.1169
     18  CG        12.3090   -4.4850   -7.0510 C.2    33  ASN33       0.2627
     19  OD1       12.1910   -3.2520   -7.1320 O.2    33  ASN33      -0.2716
     20  ND2       11.2800   -5.3140   -7.1940 N.am   33  ASN33      -0.0877
     21  N         14.4410   -2.9120   -9.2540 N.am   34  THR34      -0.1939
     22  CA        14.4580   -2.5960  -10.6800 C.3    34  THR34       0.2028
     23  C         15.5370   -1.5530  -10.8640 C.2    34  THR34       0.2642
     24  O         15.6820   -0.6300  -10.0360 O.2    34  THR34      -0.2714
     25  CB        13.0790   -2.1440  -11.2450 C.3    34  THR34       0.1808
     26  OG1       12.9620   -0.7190  -11.2180 O.3    34  THR34      -0.2208
     27  CG2       11.9290   -2.7520  -10.4540 C.3    34  THR34       0.0379
     28  N         16.2830   -1.6990  -11.9520 N.am   35  ASN35      -0.1971
     29  CA        17.5050   -0.9540  -12.1530 C.3    35  ASN35       0.1688
     30  C         17.2990    0.4970  -12.5830 C.2    35  ASN35       0.2292
     31  O         18.0120    1.0200  -13.4420 O.2    35  ASN35      -0.2864
     32  CB        18.4090   -1.7110  -13.1300 C.3    35  ASN35       0.1181
     33  CG        18.8540   -3.0540  -12.5780 C.2    35  ASN35       0.2629
     34  OD1       19.0950   -3.2100  -11.3650 O.2    35  ASN35      -0.2716
     35  ND2       18.9850   -4.0270  -13.4590 N.am   35  ASN35      -0.0877
     36  N         11.5520   -2.9500  -24.7200 N.3    99  ASN99      -0.1240
     37  CA        10.5610   -4.0140  -24.9280 C.3    99  ASN99       0.1653
     38  C          9.9860   -3.9850  -26.3600 C.2    99  ASN99       0.2266
     39  O          9.9530   -5.0090  -27.0500 O.2    99  ASN99      -0.2867
     40  CB         9.4020   -3.8870  -23.9330 C.3    99  ASN99       0.1155
     41  CG         9.7520   -4.3580  -22.5110 C.2    99  ASN99       0.2627
     42  OD1        9.0410   -4.0220  -21.5560 O.2    99  ASN99      -0.2716
     43  ND2       10.7980   -5.1500  -22.3700 N.am   99  ASN99      -0.0877
     44  N         18.8840  -11.8860  -19.3300 N.3   123  TYR123     -0.1227
     45  CA        17.7530  -10.9940  -19.1110 C.3   123  TYR123      0.1736
     46  C         16.3780  -11.6300  -19.3420 C.2   123  TYR123      0.2596
     47  O         16.0740  -12.1230  -20.4530 O.2   123  TYR123     -0.2718
     48  CB        17.9350   -9.7670  -20.0150 C.3   123  TYR123      0.0548
     49  CG        16.8940   -8.7040  -19.8520 C.ar  123  TYR123     -0.0200
     50  CD1       16.3230   -8.1010  -20.9650 C.ar  123  TYR123     -0.0009
     51  CD2       16.4810   -8.2820  -18.5770 C.ar  123  TYR123     -0.0009
     52  CE1       15.3770   -7.0990  -20.8250 C.ar  123  TYR123      0.0417
     53  CE2       15.5220   -7.2960  -18.4260 C.ar  123  TYR123      0.0417
     54  CZ        14.9630   -6.7110  -19.5530 C.ar  123  TYR123      0.1957
     55  OH        14.0040   -5.7180  -19.4260 O.3   123  TYR123     -0.2866
     56  N         15.5390  -11.5730  -18.2990 N.am  124  SER124     -0.1938
     57  CA        14.2100  -12.2040  -18.2910 C.3   124  SER124      0.2055
     58  C         13.3020  -11.9260  -19.4960 C.2   124  SER124      0.2642
     59  O         12.4850  -12.7660  -19.8500 O.2   124  SER124     -0.2714
     60  CB        13.4380  -11.7350  -17.0780 C.3   124  SER124      0.2130
     61  OG        13.0770  -10.3750  -17.2650 O.3   124  SER124     -0.2179
     62  N         13.3900  -10.7240  -20.0650 N.am  125  MET125     -0.1976
     63  CA        12.4600  -10.3170  -21.1170 C.3   125  MET125      0.1605
     64  C         12.8030  -10.8770  -22.4950 C.2   125  MET125      0.2287
     65  O         11.9360  -10.9190  -23.3640 O.2   125  MET125     -0.2864
     66  CB        12.3610   -8.7870  -21.1990 C.3   125  MET125      0.0413
     67  CG        11.6510   -8.1500  -20.0060 C.3   125  MET125      0.0598
     68  SD         9.9940   -8.7830  -19.7010 S.3   125  MET125     -0.1393
     69  CE         9.1810   -8.4100  -21.2550 C.3   125  MET125      0.0692
     70  N         22.4480   -8.4240  -17.7110 N.3   172  ASN172     -0.1240
     71  CA        21.5310   -8.4060  -16.5920 C.3   172  ASN172      0.1653
     72  C         21.1470   -9.8740  -16.4450 C.2   172  ASN172      0.2266
     73  O         20.6500  -10.4570  -17.4110 O.2   172  ASN172     -0.2867
     74  CB        20.3170   -7.5590  -16.9620 C.3   172  ASN172      0.1155
     75  CG        19.2760   -7.4990  -15.8720 C.2   172  ASN172      0.2627
     76  OD1       19.3540   -8.2060  -14.8740 O.2   172  ASN172     -0.2716
     77  ND2       18.2890   -6.6520  -16.0600 N.am  172  ASN172     -0.0877
     78  N         22.5990   -1.1080  -20.3340 N.3   200  TYR200     -0.1241
     79  CA        23.4980   -0.4620  -19.3660 C.3   200  TYR200      0.1605
     80  C         24.7560    0.1690  -19.9740 C.2   200  TYR200      0.2264
     81  O         25.6860    0.5010  -19.2700 O.2   200  TYR200     -0.2867
     82  CB        23.8110   -1.4380  -18.2130 C.3   200  TYR200      0.0534
     83  CG        22.5270   -1.9620  -17.6180 C.ar  200  TYR200     -0.0201
     84  CD1       21.7610   -1.1710  -16.7700 C.ar  200  TYR200     -0.0009
     85  CD2       22.0430   -3.2170  -17.9570 C.ar  200  TYR200     -0.0009
     86  CE1       20.5660   -1.6230  -16.2530 C.ar  200  TYR200      0.0417
     87  CE2       20.8460   -3.6710  -17.4510 C.ar  200  TYR200      0.0417
     88  CZ        20.1140   -2.8710  -16.5950 C.ar  200  TYR200      0.1957
     89  OH        18.9230   -3.3110  -16.0960 O.3   200  TYR200     -0.2866
     90  N         15.6180    4.2470  -20.0520 N.3   227  SER227     -0.1202
     91  CA        14.9520    3.8480  -18.8190 C.3   227  SER227      0.2020
     92  C         15.8690    3.7570  -17.6040 C.2   227  SER227      0.2618
     93  O         15.3840    3.6930  -16.4790 O.2   227  SER227     -0.2717
     94  CB        14.2740    2.4840  -18.9850 C.3   227  SER227      0.2103
     95  OG        13.2060    2.5410  -19.8990 O.3   227  SER227     -0.2182
     96  N         17.1750    3.7170  -17.8160 N.am  228  LYS228     -0.1979
     97  CA        18.0940    3.3870  -16.7320 C.3   228  LYS228      0.1596
     98  C         18.9570    4.5890  -16.3680 C.2   228  LYS228      0.2287
     99  O         18.6060    5.2970  -15.4430 O.2   228  LYS228     -0.2864
    100  CB        18.9320    2.1540  -17.0950 C.3   228  LYS228      0.0298
    101  CG        18.0880    0.9500  -17.5260 C.3   228  LYS228      0.0038
    102  CD        17.3030    0.3630  -16.3740 C.3   228  LYS228      0.0206
    103  CE        16.1780   -0.5280  -16.8730 C.3   228  LYS228      0.1093
    104  NZ        16.6690   -1.6880  -17.6510 N.3   228  LYS228     -0.1314
    105  N          9.0350    5.6640  -21.2990 N.3   236  ARG236     -0.1245
    106  CA         9.0230    4.4750  -22.1680 C.3   236  ARG236      0.1563
    107  C          9.5850    4.7200  -23.5590 C.2   236  ARG236      0.2260
    108  O          8.8490    4.8140  -24.5420 O.2   236  ARG236     -0.2867
    109  CB         7.6300    3.8850  -22.2590 C.3   236  ARG236      0.0307
    110  CG         6.9510    3.6900  -20.9060 C.3   236  ARG236      0.0489
    111  CD         7.6410    2.6840  -19.9950 C.3   236  ARG236      0.2205
    112  NE         7.9030    1.3970  -20.6440 N.pl3 236  ARG236     -0.0865
    113  CZ         9.1140    0.8840  -20.8740 C.cat 236  ARG236      0.5346
    114  NH1       10.2110    1.5250  -20.4860 N.pl3 236  ARG236      0.1354
    115  NH2        9.2290   -0.2990  -21.4770 N.pl3 236  ARG236      0.1354
    116  N         15.9060   -7.9560   -5.9000 N.3   333  ARG333     -0.1245
    117  CA        15.3230   -8.8890   -6.8900 C.3   333  ARG333      0.1563
    118  C         15.8790  -10.3140   -6.8060 C.2   333  ARG333      0.2260
    119  O         17.0900  -10.5140   -6.7910 O.2   333  ARG333     -0.2867
    120  CB        15.5560   -8.3430   -8.3040 C.3   333  ARG333      0.0307
    121  CG        14.8900   -9.1570   -9.4100 C.3   333  ARG333      0.0489
    122  CD        13.4080   -8.8640   -9.5190 C.3   333  ARG333      0.2205
    123  NE        13.1590   -7.6500  -10.3030 N.pl3 333  ARG333     -0.0865
    124  CZ        11.9520   -7.1970  -10.6500 C.cat 333  ARG333      0.5346
    125  NH1       10.8450   -7.8440  -10.2850 N.pl3 333  ARG333      0.1354
    126  NH2       11.8460   -6.0850  -11.3680 N.pl3 333  ARG333      0.1354
    127  N         19.9120   -9.9280   -6.7200 N.3   342  ARG342     -0.1245
    128  CA        20.4190   -8.7680   -7.4540 C.3   342  ARG342      0.1563
    129  C         19.9390   -7.4780   -6.8000 C.2   342  ARG342      0.2260
    130  O         18.7550   -7.2630   -6.6640 O.2   342  ARG342     -0.2867
    131  CB        19.9950   -8.8190   -8.9340 C.3   342  ARG342      0.0307
    132  CG        20.7090   -7.8020   -9.8300 C.3   342  ARG342      0.0489
    133  CD        19.9420   -7.5490  -11.1320 C.3   342  ARG342      0.2205
    134  NE        18.6900   -6.8500  -10.8680 N.pl3 342  ARG342     -0.0865
    135  CZ        17.6120   -6.8490  -11.6600 C.cat 342  ARG342      0.5346
    136  NH1       17.6020   -7.4980  -12.8200 N.pl3 342  ARG342      0.1354
    137  NH2       16.5210   -6.1700  -11.2900 N.pl3 342  ARG342      0.1354
@<TRIPOS>BOND
     1    39    38    2
     2    38    37    1
     3    37    36    1
     4    37    40    1
     5   108   107    2
     6    40    41    1
     7   107   106    1
     8    65    64    2
     9    41    43   am
    10    41    42    2
    11    64    63    1
    12   109   106    1
    13   109   110    1
    14   106   105    1
    15   115   113    1
    16    69    68    1
    17    66    63    1
    18    66    67    1
    19    63    62    1
    20    50    52   ar
    21    50    49   ar
    22   110   111    1
    23   113   112    2
    24   113   114    1
    25    52    54   ar
    26   112   111    1
    27    47    46    2
    28    78    79    1
    29    62    58   am
    30    90    91    1
    31    48    49    1
    32    48    45    1
    33    67    68    1
    34    80    79    1
    35    80    81    2
    36    95    94    1
    37    49    51   ar
    38    59    58    2
    39    54    55    1
    40    54    53   ar
    41    58    57    1
    42    79    82    1
    43    46    45    1
    44    46    56   am
    45    44    45    1
    46    94    91    1
    47    91    92    1
    48    51    53   ar
    49    56    57    1
    50    57    60    1
    51    82    83    1
    52    85    83   ar
    53    85    87   ar
    54    96    92   am
    55    96    97    1
    56    70    71    1
    57   104   103    1
    58    83    84   ar
    59    92    93    2
    60   101   100    1
    61   101   102    1
    62    87    88   ar
    63    73    72    2
    64     5     6    1
    65     5     2    1
    66    61    60    1
    67   100    97    1
    68    74    71    1
    69    74    75    1
    70   103   102    1
    71     6     7   ar
    72     6     8   ar
    73    84    86   ar
    74    97    98    1
    75     1     2    1
    76    88    86   ar
    77    88    89    1
    78    71    72    1
    79     7     9   ar
    80     8    10   ar
    81    98    99    2
    82     2     3    1
    83     9    11   ar
    84    10    11   ar
    85    77    75   am
    86    75    76    2
    87    11    12    1
    88     3     4    2
    89    35    33   am
    90    31    30    2
    91    32    33    1
    92    32    29    1
    93   136   135    1
    94    30    29    1
    95    33    34    2
    96    29    28    1
    97    28    23   am
    98   135   137    1
    99   135   134    2
   100   126   124    1
   101    25    26    1
   102    25    22    1
   103    25    27    1
   104   133   134    1
   105   133   132    1
   106    23    22    1
   107    23    24    2
   108    22    21    1
   109   124   123    2
   110   124   125    1
   111   123   122    1
   112   132   131    1
   113    16    15    2
   114   122   121    1
   115   121   120    1
   116    21    15   am
   117   131   128    1
   118    15    14    1
   119   120   117    1
   120   128   129    1
   121   128   127    1
   122    14    17    1
   123    14    13    1
   124    20    18   am
   125    19    18    2
   126    18    17    1
   127   117   118    1
   128   117   116    1
   129   118   119    2
   130   129   130    2
