@<TRIPOS>MOLECULE
tmp/4r8dA00.pdb
 124 115 0 0 0
SMALL
GASTEIGER

@<TRIPOS>ATOM
      1  N         16.2830   -1.6990  -11.9520 N.3    35  ASN35      -0.1240
      2  CA        17.5050   -0.9540  -12.1530 C.3    35  ASN35       0.1653
      3  C         17.2990    0.4970  -12.5830 C.2    35  ASN35       0.2266
      4  O         18.0120    1.0200  -13.4420 O.2    35  ASN35      -0.2867
      5  CB        18.4090   -1.7110  -13.1300 C.3    35  ASN35       0.1155
      6  CG        18.8540   -3.0540  -12.5780 C.2    35  ASN35       0.2627
      7  OD1       19.0950   -3.2100  -11.3650 O.2    35  ASN35      -0.2716
      8  ND2       18.9850   -4.0270  -13.4590 N.am   35  ASN35      -0.0877
      9  N          9.8860    1.9830  -25.2400 N.3    97  GLY97      -0.1210
     10  CA        10.7590    1.1130  -24.4510 C.3    97  GLY97       0.1956
     11  C         11.5360    0.1680  -25.3480 C.2    97  GLY97       0.2613
     12  O         11.1730   -0.0490  -26.5080 O.2    97  GLY97      -0.2717
     13  N         12.6190   -0.3740  -24.8070 N.am   98  SER98      -0.1938
     14  CA        13.3550   -1.4760  -25.4300 C.3    98  SER98       0.2055
     15  C         12.4630   -2.6710  -25.6590 C.2    98  SER98       0.2643
     16  O         12.6190   -3.3500  -26.6630 O.2    98  SER98      -0.2714
     17  CB        14.5010   -1.9540  -24.5360 C.3    98  SER98       0.2130
     18  OG        15.5170   -1.0050  -24.4710 O.3    98  SER98      -0.2179
     19  N         11.5520   -2.9500  -24.7200 N.am   99  ASN99      -0.1971
     20  CA        10.5610   -4.0140  -24.9280 C.3    99  ASN99       0.1688
     21  C          9.9860   -3.9850  -26.3600 C.2    99  ASN99       0.2292
     22  O          9.9530   -5.0090  -27.0500 O.2    99  ASN99      -0.2864
     23  CB         9.4020   -3.8870  -23.9330 C.3    99  ASN99       0.1181
     24  CG         9.7520   -4.3580  -22.5110 C.2    99  ASN99       0.2629
     25  OD1        9.0410   -4.0220  -21.5560 O.2    99  ASN99      -0.2716
     26  ND2       10.7980   -5.1500  -22.3700 N.am   99  ASN99      -0.0877
     27  N         12.5810   -4.7050  -29.0940 N.3   102  LEU102     -0.1245
     28  CA        12.8600   -6.1390  -29.1750 C.3   102  LEU102      0.1561
     29  C         11.7320   -6.8580  -29.8590 C.2   102  LEU102      0.2260
     30  O         11.9800   -7.7200  -30.6910 O.2   102  LEU102     -0.2867
     31  CB        13.1000   -6.7450  -27.7750 C.3   102  LEU102      0.0270
     32  CG        14.3070   -6.1470  -27.0410 C.3   102  LEU102      0.0019
     33  CD1       14.4490   -6.6290  -25.6010 C.3   102  LEU102      0.0001
     34  CD2       15.5880   -6.4020  -27.8380 C.3   102  LEU102      0.0001
     35  N         18.8840  -11.8860  -19.3300 N.3   123  TYR123     -0.1241
     36  CA        17.7530  -10.9940  -19.1110 C.3   123  TYR123      0.1605
     37  C         16.3780  -11.6300  -19.3420 C.2   123  TYR123      0.2264
     38  O         16.0740  -12.1230  -20.4530 O.2   123  TYR123     -0.2867
     39  CB        17.9350   -9.7670  -20.0150 C.3   123  TYR123      0.0534
     40  CG        16.8940   -8.7040  -19.8520 C.ar  123  TYR123     -0.0201
     41  CD1       16.3230   -8.1010  -20.9650 C.ar  123  TYR123     -0.0009
     42  CD2       16.4810   -8.2820  -18.5770 C.ar  123  TYR123     -0.0009
     43  CE1       15.3770   -7.0990  -20.8250 C.ar  123  TYR123      0.0417
     44  CE2       15.5220   -7.2960  -18.4260 C.ar  123  TYR123      0.0417
     45  CZ        14.9630   -6.7110  -19.5530 C.ar  123  TYR123      0.1957
     46  OH        14.0040   -5.7180  -19.4260 O.3   123  TYR123     -0.2866
     47  N         23.3880   -9.6980  -23.8990 N.3   168  ALA168     -0.1245
     48  CA        23.1970   -8.5060  -23.0640 C.3   168  ALA168      0.1562
     49  C         24.5360   -8.1190  -22.4360 C.2   168  ALA168      0.2260
     50  O         25.2140   -8.9610  -21.8430 O.2   168  ALA168     -0.2867
     51  CB        22.1430   -8.7520  -22.0080 C.3   168  ALA168      0.0290
     52  N         26.3810   -4.4810  -20.7000 N.3   170  PRO170     -0.2116
     53  CA        26.5010   -5.3390  -19.5330 C.3   170  PRO170      0.1372
     54  C         25.3210   -6.2820  -19.4140 C.2   170  PRO170      0.2244
     55  O         24.1690   -5.8720  -19.5920 O.2   170  PRO170     -0.2868
     56  CB        26.4960   -4.3450  -18.3630 C.3   170  PRO170      0.0268
     57  CG        27.0820   -3.1120  -18.9390 C.3   170  PRO170      0.0207
     58  CD        26.5810   -3.0640  -20.3530 C.3   170  PRO170      0.0892
     59  N         22.4480   -8.4240  -17.7110 N.3   172  ASN172     -0.1240
     60  CA        21.5310   -8.4060  -16.5920 C.3   172  ASN172      0.1653
     61  C         21.1470   -9.8740  -16.4450 C.2   172  ASN172      0.2266
     62  O         20.6500  -10.4570  -17.4110 O.2   172  ASN172     -0.2867
     63  CB        20.3170   -7.5590  -16.9620 C.3   172  ASN172      0.1155
     64  CG        19.2760   -7.4990  -15.8720 C.2   172  ASN172      0.2627
     65  OD1       19.3540   -8.2060  -14.8740 O.2   172  ASN172     -0.2716
     66  ND2       18.2890   -6.6520  -16.0600 N.am  172  ASN172     -0.0877
     67  N         22.0740   -6.1150  -26.5090 N.3   197  ASP197     -0.1239
     68  CA        21.2560   -5.2900  -25.6520 C.3   197  ASP197      0.1674
     69  C         22.1970   -4.5320  -24.7370 C.2   197  ASP197      0.2266
     70  O         22.7740   -5.0960  -23.7940 O.2   197  ASP197     -0.2867
     71  CB        20.2880   -6.1710  -24.8530 C.3   197  ASP197      0.1410
     72  CG        19.2340   -5.3900  -24.1280 C.2   197  ASP197      0.3668
     73  OD1       19.4750   -4.2020  -23.8130 O.co2 197  ASP197     -0.2456
     74  OD2       18.1490   -5.9720  -23.8700 O.co2 197  ASP197     -0.2456
     75  N         21.3790   -1.9730  -22.7480 N.3   199  ALA199     -0.1231
     76  CA        20.5990   -1.2460  -21.7530 C.3   199  ALA199      0.1694
     77  C         21.4600   -0.5190  -20.7140 C.2   199  ALA199      0.2592
     78  O         21.0940    0.5860  -20.2780 O.2   199  ALA199     -0.2718
     79  CB        19.6400   -2.1910  -21.0530 C.3   199  ALA199      0.0304
     80  N         22.5990   -1.1080  -20.3340 N.am  200  TYR200     -0.1976
     81  CA        23.4980   -0.4620  -19.3660 C.3   200  TYR200      0.1639
     82  C         24.7560    0.1690  -19.9740 C.2   200  TYR200      0.2290
     83  O         25.6860    0.5010  -19.2700 O.2   200  TYR200     -0.2864
     84  CB        23.8110   -1.4380  -18.2130 C.3   200  TYR200      0.0560
     85  CG        22.5270   -1.9620  -17.6180 C.ar  200  TYR200     -0.0198
     86  CD1       21.7610   -1.1710  -16.7700 C.ar  200  TYR200     -0.0009
     87  CD2       22.0430   -3.2170  -17.9570 C.ar  200  TYR200     -0.0009
     88  CE1       20.5660   -1.6230  -16.2530 C.ar  200  TYR200      0.0417
     89  CE2       20.8460   -3.6710  -17.4510 C.ar  200  TYR200      0.0417
     90  CZ        20.1140   -2.8710  -16.5950 C.ar  200  TYR200      0.1957
     91  OH        18.9230   -3.3110  -16.0960 O.3   200  TYR200     -0.2866
     92  N         18.4260    2.0040  -24.0340 N.3   225  THR225     -0.1218
     93  CA        17.2080    2.5060  -23.4240 C.3   225  THR225      0.1862
     94  C         17.3890    3.8790  -22.7810 C.2   225  THR225      0.2287
     95  O         18.5030    4.3130  -22.4750 O.2   225  THR225     -0.2866
     96  CB        16.6890    1.5470  -22.3480 C.3   225  THR225      0.1770
     97  OG1       15.4400    2.0390  -21.8450 O.3   225  THR225     -0.2211
     98  CG2       17.6910    1.4270  -21.1960 C.3   225  THR225      0.0375
     99  N         15.6180    4.2470  -20.0520 N.3   227  SER227     -0.1202
    100  CA        14.9520    3.8480  -18.8190 C.3   227  SER227      0.2020
    101  C         15.8690    3.7570  -17.6040 C.2   227  SER227      0.2618
    102  O         15.3840    3.6930  -16.4790 O.2   227  SER227     -0.2717
    103  CB        14.2740    2.4840  -18.9850 C.3   227  SER227      0.2103
    104  OG        13.2060    2.5410  -19.8990 O.3   227  SER227     -0.2182
    105  N         17.1750    3.7170  -17.8160 N.am  228  LYS228     -0.1979
    106  CA        18.0940    3.3870  -16.7320 C.3   228  LYS228      0.1596
    107  C         18.9570    4.5890  -16.3680 C.2   228  LYS228      0.2287
    108  O         18.6060    5.2970  -15.4430 O.2   228  LYS228     -0.2864
    109  CB        18.9320    2.1540  -17.0950 C.3   228  LYS228      0.0298
    110  CG        18.0880    0.9500  -17.5260 C.3   228  LYS228      0.0038
    111  CD        17.3030    0.3630  -16.3740 C.3   228  LYS228      0.0206
    112  CE        16.1780   -0.5280  -16.8730 C.3   228  LYS228      0.1093
    113  NZ        16.6690   -1.6880  -17.6510 N.3   228  LYS228     -0.1314
    114  N          9.0350    5.6640  -21.2990 N.3   236  ARG236     -0.1245
    115  CA         9.0230    4.4750  -22.1680 C.3   236  ARG236      0.1563
    116  C          9.5850    4.7200  -23.5590 C.2   236  ARG236      0.2260
    117  O          8.8490    4.8140  -24.5420 O.2   236  ARG236     -0.2867
    118  CB         7.6300    3.8850  -22.2590 C.3   236  ARG236      0.0307
    119  CG         6.9510    3.6900  -20.9060 C.3   236  ARG236      0.0489
    120  CD         7.6410    2.6840  -19.9950 C.3   236  ARG236      0.2205
    121  NE         7.9030    1.3970  -20.6440 N.pl3 236  ARG236     -0.0865
    122  CZ         9.1140    0.8840  -20.8740 C.cat 236  ARG236      0.5346
    123  NH1       10.2110    1.5250  -20.4860 N.pl3 236  ARG236      0.1354
    124  NH2        9.2290   -0.2990  -21.4770 N.pl3 236  ARG236      0.1354
@<TRIPOS>BOND
     1    30    29    2
     2    29    28    1
     3    28    27    1
     4    28    31    1
     5    34    32    1
     6    31    32    1
     7    22    21    2
     8    32    33    1
     9    16    15    2
    10    67    68    1
    11    12    11    2
    12    21    20    1
    13    15    14    1
    14    15    19   am
    15    68    71    1
    16    68    69    1
    17    14    13    1
    18    14    17    1
    19    11    13   am
    20    11    10    1
    21     9    10    1
    22    20    19    1
    23    20    23    1
    24    71    72    1
    25    69    70    2
    26   117   116    2
    27    17    18    1
    28    72    74   ar
    29    72    73   ar
    30    92    93    1
    31    23    24    1
    32    47    48    1
    33   116   115    1
    34    93    94    1
    35    93    96    1
    36    48    49    1
    37    48    51    1
    38    94    95    2
    39    75    76    1
    40    24    26   am
    41    24    25    2
    42    49    50    2
    43    96    97    1
    44    96    98    1
    45   118   115    1
    46   118   119    1
    47   115   114    1
    48    76    79    1
    49    76    77    1
    50   124   122    1
    51    41    43   ar
    52    41    40   ar
    53   119   120    1
    54   122   121    2
    55   122   123    1
    56    43    45   ar
    57    77    80   am
    58    77    78    2
    59    52    58    1
    60    52    53    1
    61   121   120    1
    62    38    37    2
    63    58    57    1
    64    80    81    1
    65    99   100    1
    66    39    40    1
    67    39    36    1
    68    82    81    1
    69    82    83    2
    70   104   103    1
    71    40    42   ar
    72    55    54    2
    73    45    46    1
    74    45    44   ar
    75    53    54    1
    76    53    56    1
    77    81    84    1
    78    37    36    1
    79    35    36    1
    80   103   100    1
    81    57    56    1
    82   100   101    1
    83    42    44   ar
    84    84    85    1
    85    87    85   ar
    86    87    89   ar
    87   105   101   am
    88   105   106    1
    89    59    60    1
    90   113   112    1
    91    85    86   ar
    92   101   102    2
    93   110   109    1
    94   110   111    1
    95    89    90   ar
    96    62    61    2
    97   109   106    1
    98    63    60    1
    99    63    64    1
   100   112   111    1
   101    86    88   ar
   102   106   107    1
   103    90    88   ar
   104    90    91    1
   105    60    61    1
   106   107   108    2
   107    66    64   am
   108    64    65    2
   109     8     6   am
   110     4     3    2
   111     5     6    1
   112     5     2    1
   113     3     2    1
   114     6     7    2
   115     2     1    1
