@<TRIPOS>MOLECULE
tmp/4r8kF00.pdb
 78 72 0 0 0
SMALL
GASTEIGER

@<TRIPOS>ATOM
      1  N         35.5510  -16.8760   23.9010 N.3    11  GLY11      -0.1210
      2  CA        36.3930  -17.4670   22.8690 C.3    11  GLY11       0.1956
      3  C         37.4250  -18.4700   23.3480 C.2    11  GLY11       0.2612
      4  O         37.7620  -18.5340   24.5110 O.2    11  GLY11      -0.2717
      5  N         37.9520  -19.2100   22.3930 N.am   12  THR12      -0.1952
      6  CA        38.9310  -20.2560   22.6180 C.3    12  THR12       0.1897
      7  C         40.1180  -19.7760   23.4340 C.2    12  THR12       0.2313
      8  O         40.6680  -20.5440   24.2310 O.2    12  THR12      -0.2863
      9  CB        39.4430  -20.7890   21.2550 C.3    12  THR12       0.1794
     10  OG1       38.3350  -21.3240   20.5210 O.3    12  THR12      -0.2208
     11  CG2       40.5050  -21.8620   21.4030 C.3    12  THR12       0.0378
     12  N         39.7690  -20.4570   27.1020 N.3    15  MET15      -0.1245
     13  CA        39.1690  -21.7250   27.5310 C.3    15  MET15       0.1570
     14  C         40.1900  -22.7120   28.1280 C.2    15  MET15       0.2261
     15  O         41.3980  -22.4700   28.1280 O.2    15  MET15      -0.2867
     16  CB        38.4170  -22.3390   26.3440 C.3    15  MET15       0.0387
     17  CG        37.2340  -21.4790   25.9090 C.3    15  MET15       0.0595
     18  SD        36.2610  -22.1230   24.5160 S.3    15  MET15      -0.1393
     19  CE        35.0620  -23.1480   25.3660 C.3    15  MET15       0.0692
     20  N         38.2380  -31.7270   25.0230 N.3    21  VAL21      -0.1231
     21  CA        37.0940  -30.8380   24.7560 C.3    21  VAL21       0.1692
     22  C         37.2670  -29.5190   25.5270 C.2    21  VAL21       0.2591
     23  O         37.7640  -29.5090   26.6680 O.2    21  VAL21      -0.2718
     24  CB        35.7550  -31.5070   25.1400 C.3    21  VAL21       0.0266
     25  CG1       34.6030  -30.5070   25.1050 C.3    21  VAL21       0.0020
     26  CG2       35.4710  -32.6680   24.2030 C.3    21  VAL21       0.0020
     27  N         36.8780  -28.4110   24.8920 N.am   22  LEU22      -0.1980
     28  CA        37.1230  -27.0860   25.4490 C.3    22  LEU22       0.1596
     29  C         35.9410  -26.6210   26.2810 C.2    22  LEU22       0.2287
     30  O         34.7950  -26.7010   25.8310 O.2    22  LEU22      -0.2864
     31  CB        37.4320  -26.0790   24.3350 C.3    22  LEU22       0.0297
     32  CG        38.6400  -26.3510   23.4210 C.3    22  LEU22       0.0022
     33  CD1       38.8620  -25.2240   22.4290 C.3    22  LEU22       0.0001
     34  CD2       39.9070  -26.5760   24.2290 C.3    22  LEU22       0.0001
     35  N         30.7720  -18.0830   23.5450 N.3    77  ASP77      -0.1225
     36  CA        31.2200  -18.5190   22.2340 C.3    77  ASP77       0.1805
     37  C         30.8070  -17.4410   21.2300 C.2    77  ASP77       0.2598
     38  O         29.6710  -16.9580   21.2540 O.2    77  ASP77      -0.2718
     39  CB        30.5390  -19.8380   21.8380 C.3    77  ASP77       0.1424
     40  CG        31.0620  -21.0530   22.6080 C.2    77  ASP77       0.3668
     41  OD1       32.0240  -20.9190   23.4050 O.co2  77  ASP77      -0.2456
     42  OD2       30.5090  -22.1490   22.3710 O.co2  77  ASP77      -0.2456
     43  N         31.6960  -17.0780   20.3180 N.am   78  SER78      -0.1938
     44  CA        31.4110  -15.9770   19.4080 C.3    78  SER78       0.2055
     45  C         30.2740  -16.2730   18.4290 C.2    78  SER78       0.2643
     46  O         29.6550  -15.3350   17.8940 O.2    78  SER78      -0.2714
     47  CB        32.6840  -15.5030   18.6740 C.3    78  SER78       0.2130
     48  OG        33.1070  -16.3930   17.6390 O.3    78  SER78      -0.2179
     49  N         29.9770  -17.5500   18.1900 N.am   79  SER79      -0.1949
     50  CA        28.8510  -17.8970   17.3410 C.3    79  SER79       0.1924
     51  C         27.5100  -17.4820   17.9460 C.2    79  SER79       0.2314
     52  O         26.5100  -17.4240   17.2300 O.2    79  SER79      -0.2863
     53  CB        28.8060  -19.3920   17.0940 C.3    79  SER79       0.2116
     54  OG        28.6190  -20.0470   18.3210 O.3    79  SER79      -0.2180
     55  N         36.0370  -14.5440   20.3050 N.3   108  GLY108     -0.1210
     56  CA        36.1520  -15.7900   19.5430 C.3   108  GLY108      0.1956
     57  C         36.3710  -15.4590   18.0680 C.2   108  GLY108      0.2613
     58  O         35.8930  -14.4430   17.5780 O.2   108  GLY108     -0.2717
     59  N         37.0890  -16.3180   17.3670 N.am  109  THR109     -0.1938
     60  CA        37.3900  -16.0800   15.9590 C.3   109  THR109      0.2028
     61  C         36.1940  -16.2190   15.0290 C.2   109  THR109      0.2642
     62  O         36.1380  -15.5520   13.9930 O.2   109  THR109     -0.2714
     63  CB        38.5320  -16.9810   15.4540 C.3   109  THR109      0.1808
     64  OG1       38.1930  -18.3470   15.6390 O.3   109  THR109     -0.2208
     65  CG2       39.8110  -16.7140   16.2070 C.3   109  THR109      0.0379
     66  N         35.2530  -17.1010   15.3770 N.am  110  ASP110     -0.1971
     67  CA        34.1460  -17.4530   14.4800 C.3   110  ASP110      0.1709
     68  C         33.4230  -16.2200   13.9300 C.2   110  ASP110      0.2293
     69  O         33.1020  -16.1720   12.7560 O.2   110  ASP110     -0.2864
     70  CB        33.1390  -18.3830   15.1780 C.3   110  ASP110      0.1436
     71  CG        33.6440  -19.8340   15.3410 C.2   110  ASP110      0.3671
     72  OD1       34.7260  -20.2020   14.7970 O.co2 110  ASP110     -0.2456
     73  OD2       32.9200  -20.6440   15.9880 O.co2 110  ASP110     -0.2456
     74  N         42.4080  -16.5600   19.3040 N.3   135  ALA135     -0.1245
     75  CA        43.3320  -17.6430   19.0360 C.3   135  ALA135      0.1562
     76  C         42.6250  -18.8990   18.5930 C.2   135  ALA135      0.2260
     77  O         41.5200  -19.1690   19.0050 O.2   135  ALA135     -0.2867
     78  CB        44.1300  -17.9330   20.3020 C.3   135  ALA135      0.0290
@<TRIPOS>BOND
     1    69    68    2
     2    68    67    1
     3    62    61    2
     4    67    70    1
     5    67    66    1
     6    72    71   ar
     7    61    66   am
     8    61    60    1
     9    70    71    1
    10    71    73   ar
    11    63    64    1
    12    63    60    1
    13    63    65    1
    14    60    59    1
    15    53    50    1
    16    53    54    1
    17    52    51    2
    18    50    51    1
    19    50    49    1
    20    59    57   am
    21    58    57    2
    22    48    47    1
    23    46    45    2
    24    57    56    1
    25    49    45   am
    26    45    44    1
    27    76    77    2
    28    76    75    1
    29    47    44    1
    30    75    74    1
    31    75    78    1
    32    44    43    1
    33    56    55    1
    34    43    37   am
    35    10     9    1
    36    37    38    2
    37    37    36    1
    38     9    11    1
    39     9     6    1
    40    39    36    1
    41    39    40    1
    42    36    35    1
    43    42    40   ar
    44     5     6    1
    45     5     3   am
    46    33    32    1
    47    40    41   ar
    48     6     7    1
    49     2     3    1
    50     2     1    1
    51     3     4    2
    52    32    34    1
    53    32    31    1
    54     7     8    2
    55    26    24    1
    56    31    28    1
    57    18    19    1
    58    18    17    1
    59    21    20    1
    60    21    24    1
    61    21    22    1
    62    27    28    1
    63    27    22   am
    64    25    24    1
    65    28    29    1
    66    22    23    2
    67    30    29    2
    68    17    16    1
    69    16    13    1
    70    12    13    1
    71    13    14    1
    72    15    14    2
