@<TRIPOS>MOLECULE
tmp/4r8lA00.pdb
 85 80 0 0 0
SMALL
GASTEIGER

@<TRIPOS>ATOM
      1  N         21.7810   43.4380    5.2650 N.3    11  GLY11      -0.1210
      2  CA        21.1560   43.2670    6.5470 C.3    11  GLY11       0.1956
      3  C         20.0790   44.2880    6.8710 C.2    11  GLY11       0.2612
      4  O         19.9100   45.3000    6.1800 O.2    11  GLY11      -0.2717
      5  N         19.3960   44.0040    7.9810 N.am   12  THR12      -0.1952
      6  CA        18.2070   44.7360    8.4320 C.3    12  THR12       0.1897
      7  C         18.4200   46.2430    8.5600 C.2    12  THR12       0.2313
      8  O         17.5040   47.0200    8.2890 O.2    12  THR12      -0.2863
      9  CB        17.6840   44.1360    9.7650 C.3    12  THR12       0.1794
     10  OG1       17.2330   42.7920    9.5380 O.3    12  THR12      -0.2208
     11  CG2       16.5180   44.9410   10.3710 C.3    12  THR12       0.0378
     12  N         17.5220   47.8960    5.4950 N.3    15  MET15      -0.1245
     13  CA        16.4100   47.2530    4.7730 C.3    15  MET15       0.1570
     14  C         15.1780   48.1450    4.5500 C.2    15  MET15       0.2261
     15  O         15.0070   49.1860    5.2040 O.2    15  MET15      -0.2867
     16  CB        16.0010   45.9210    5.4550 C.3    15  MET15       0.0387
     17  CG        16.9670   44.7600    5.2000 C.3    15  MET15       0.0595
     18  SD        16.3320   43.1050    5.5560 S.3    15  MET15      -0.1393
     19  CE        17.7350   42.0400    5.1220 C.3    15  MET15       0.0692
     20  N         20.9650   39.5940    2.3600 N.3    77  ASP77      -0.1225
     21  CA        20.4700   39.0880    3.6320 C.3    77  ASP77       0.1805
     22  C         21.5830   38.1370    4.1430 C.2    77  ASP77       0.2598
     23  O         22.0290   37.2640    3.4110 O.2    77  ASP77      -0.2718
     24  CB        19.1310   38.3500    3.4280 C.3    77  ASP77       0.1424
     25  CG        18.4220   38.0210    4.7540 C.2    77  ASP77       0.3668
     26  OD1       18.9950   37.2550    5.5970 O.co2  77  ASP77      -0.2456
     27  OD2       17.2770   38.5190    4.9430 O.co2  77  ASP77      -0.2456
     28  N         22.0310   38.3000    5.3810 N.am   78  SER78      -0.1952
     29  CA        23.1670   37.5180    5.8640 C.3    78  SER78       0.1924
     30  C         22.9160   35.9970    5.9200 C.2    78  SER78       0.2314
     31  O         23.8470   35.2190    5.9050 O.2    78  SER78      -0.2863
     32  CB        23.6660   38.0550    7.2030 C.3    78  SER78       0.2116
     33  OG        22.9220   37.5530    8.2960 O.3    78  SER78      -0.2180
     34  N         26.2510   44.6270    8.5660 N.3   107  HIS107     -0.1226
     35  CA        26.0780   43.2090    8.2830 C.3   107  HIS107      0.1752
     36  C         24.7710   42.7180    8.8620 C.2   107  HIS107      0.2597
     37  O         24.3410   43.2190    9.8720 O.2   107  HIS107     -0.2718
     38  CB        27.2380   42.4810    8.9540 C.3   107  HIS107      0.0759
     39  CG        27.5070   41.1080    8.4290 C.ar  107  HIS107      0.0818
     40  ND1       26.7060   40.0270    8.7160 N.ar  107  HIS107     -0.2268
     41  CD2       28.5290   40.6330    7.6770 C.ar  107  HIS107      0.1154
     42  CE1       27.2080   38.9490    8.1420 C.ar  107  HIS107      0.1986
     43  NE2       28.3130   39.2930    7.5040 N.ar  107  HIS107     -0.2212
     44  N         24.1310   41.7510    8.2190 N.am  108  GLY108     -0.1942
     45  CA        22.9420   41.1290    8.7810 C.3   108  GLY108      0.2014
     46  C         23.3090   40.3690   10.0250 C.2   108  GLY108      0.2640
     47  O         24.4540   39.9540   10.2070 O.2   108  GLY108     -0.2714
     48  N         22.3700   40.2700   10.9500 N.am  109  THR109     -0.1936
     49  CA        22.6780   39.6790   12.2390 C.3   109  THR109      0.2028
     50  C         22.6270   38.1650   12.1890 C.2   109  THR109      0.2642
     51  O         23.2390   37.5270   13.0270 O.2   109  THR109     -0.2714
     52  CB        21.6950   40.1310   13.3370 C.3   109  THR109      0.1808
     53  OG1       20.3830   39.6830   12.9920 O.3   109  THR109     -0.2208
     54  CG2       21.6870   41.6320   13.5070 C.3   109  THR109      0.0379
     55  N         21.8810   37.5980   11.2500 N.am  110  ASP110     -0.1971
     56  CA        21.6660   36.1580   11.2340 C.3   110  ASP110      0.1709
     57  C         22.9630   35.3350   11.2090 C.2   110  ASP110      0.2293
     58  O         23.0280   34.3020   11.8630 O.2   110  ASP110     -0.2864
     59  CB        20.7840   35.7270   10.0610 C.3   110  ASP110      0.1436
     60  CG        19.2890   36.0510   10.2620 C.2   110  ASP110      0.3671
     61  OD1       18.8430   36.3190   11.4050 O.co2 110  ASP110     -0.2456
     62  OD2       18.5600   36.0220    9.2330 O.co2 110  ASP110     -0.2456
     63  N         21.4840   45.7020   13.0840 N.3   135  ALA135     -0.1231
     64  CA        20.3260   46.1140   13.8680 C.3   135  ALA135      0.1694
     65  C         19.1610   45.1630   13.6870 C.2   135  ALA135      0.2591
     66  O         19.0160   44.5460   12.6400 O.2   135  ALA135     -0.2718
     67  CB        19.9180   47.5050   13.4450 C.3   135  ALA135      0.0304
     68  N         18.3400   45.0470   14.7240 N.am  136  GLN136     -0.1979
     69  CA        17.0950   44.2860   14.6510 C.3   136  GLN136      0.1601
     70  C         15.9900   45.1000   13.9560 C.2   136  GLN136      0.2287
     71  O         14.9660   44.5370   13.5970 O.2   136  GLN136     -0.2864
     72  CB        16.6390   43.8660   16.0570 C.3   136  GLN136      0.0394
     73  CG        17.6570   43.0240   16.8490 C.3   136  GLN136      0.0908
     74  CD        17.5660   41.5110   16.5680 C.2   136  GLN136      0.2608
     75  OE1       17.7210   41.0650   15.4300 O.2   136  GLN136     -0.2717
     76  NE2       17.3340   40.7210   17.6210 N.am  136  GLN136     -0.0878
     77  N         24.7970   34.7000   18.5940 N.3   181  LYS181     -0.1245
     78  CA        23.4800   35.3050   18.6490 C.3   181  LYS181      0.1561
     79  C         22.5570   34.5080   19.5550 C.2   181  LYS181      0.2260
     80  O         22.3030   33.3450   19.3070 O.2   181  LYS181     -0.2867
     81  CB        22.8590   35.3760   17.2630 C.3   181  LYS181      0.0271
     82  CG        21.5930   36.2180   17.2390 C.3   181  LYS181      0.0035
     83  CD        21.1410   36.5240   15.8300 C.3   181  LYS181      0.0206
     84  CE        19.9320   37.4430   15.8590 C.3   181  LYS181      0.1093
     85  NZ        19.3820   37.6930   14.5010 N.3   181  LYS181     -0.1314
@<TRIPOS>BOND
     1    20    21    1
     2    23    22    2
     3    24    21    1
     4    24    25    1
     5    21    22    1
     6    22    28   am
     7    14    13    1
     8    14    15    2
     9    25    27   ar
    10    25    26   ar
    11    13    16    1
    12    13    12    1
    13    19    18    1
    14    17    16    1
    15    17    18    1
    16     1     2    1
    17    28    29    1
    18    29    30    1
    19    29    32    1
    20    31    30    2
    21     4     3    2
    22     2     3    1
    23     3     5   am
    24    32    33    1
    25    43    41   ar
    26    43    42   ar
    27    41    39   ar
    28     5     6    1
    29    42    40   ar
    30    44    45    1
    31    44    36   am
    32    35    34    1
    33    35    36    1
    34    35    38    1
    35     8     7    2
    36    39    40   ar
    37    39    38    1
    38     6     7    1
    39     6     9    1
    40    45    46    1
    41    36    37    2
    42    62    60   ar
    43    10     9    1
    44     9    11    1
    45    46    47    2
    46    46    48   am
    47    59    60    1
    48    59    56    1
    49    60    61   ar
    50    48    49    1
    51    57    56    1
    52    57    58    2
    53    56    55    1
    54    55    50   am
    55    50    49    1
    56    50    51    2
    57    49    52    1
    58    66    65    2
    59    53    52    1
    60    63    64    1
    61    52    54    1
    62    67    64    1
    63    71    70    2
    64    65    64    1
    65    65    68   am
    66    70    69    1
    67    85    84    1
    68    69    68    1
    69    69    72    1
    70    75    74    2
    71    83    84    1
    72    83    82    1
    73    72    73    1
    74    74    73    1
    75    74    76   am
    76    82    81    1
    77    81    78    1
    78    77    78    1
    79    78    79    1
    80    80    79    2
