@<TRIPOS>MOLECULE
tmp/4r8mB01.pdb
 182 179 0 0 0
SMALL
GASTEIGER

@<TRIPOS>ATOM
      1  N         54.8980   35.3760   71.8990 N.3    40  ILE40      -0.1245
      2  CA        53.8010   34.5680   71.4000 C.3    40  ILE40       0.1561
      3  C         53.3790   35.1760   70.0720 C.2    40  ILE40       0.2260
      4  O         52.7900   36.2480   70.0640 O.2    40  ILE40      -0.2867
      5  CB        52.6280   34.5820   72.3940 C.3    40  ILE40       0.0252
      6  CG1       53.0690   33.9490   73.7140 C.3    40  ILE40       0.0019
      7  CG2       51.4140   33.8660   71.8170 C.3    40  ILE40       0.0019
      8  CD1       52.1010   34.1710   74.8430 C.3    40  ILE40       0.0001
      9  N         48.9600   34.6470   64.7760 N.3    43  PHE43      -0.1241
     10  CA        48.6920   33.7730   63.6320 C.3    43  PHE43       0.1605
     11  C         47.9630   34.5330   62.5160 C.2    43  PHE43       0.2264
     12  O         46.7910   34.2960   62.2440 O.2    43  PHE43      -0.2867
     13  CB        47.9040   32.5470   64.0950 C.3    43  PHE43       0.0534
     14  CG        48.5600   31.8200   65.2310 C.ar   43  PHE43      -0.0203
     15  CD1       49.6560   30.9960   64.9990 C.ar   43  PHE43      -0.0042
     16  CD2       48.1080   31.9810   66.5400 C.ar   43  PHE43      -0.0042
     17  CE1       50.2770   30.3310   66.0450 C.ar   43  PHE43      -0.0003
     18  CE2       48.7250   31.3210   67.5900 C.ar   43  PHE43      -0.0003
     19  CZ        49.8130   30.4960   67.3430 C.ar   43  PHE43      -0.0000
     20  N         43.8590   25.0810   62.6750 N.3    62  PHE62      -0.1241
     21  CA        43.0530   25.5630   63.8120 C.3    62  PHE62       0.1605
     22  C         41.5630   25.3440   63.6250 C.2    62  PHE62       0.2264
     23  O         40.7490   25.9730   64.3200 O.2    62  PHE62      -0.2867
     24  CB        43.3210   27.0490   64.0890 C.3    62  PHE62       0.0534
     25  CG        44.7640   27.3620   64.3530 C.ar   62  PHE62      -0.0203
     26  CD1       45.5040   26.6090   65.2550 C.ar   62  PHE62      -0.0042
     27  CD2       45.3880   28.4080   63.6990 C.ar   62  PHE62      -0.0042
     28  CE1       46.8330   26.8820   65.4800 C.ar   62  PHE62      -0.0003
     29  CE2       46.7250   28.6890   63.9290 C.ar   62  PHE62      -0.0003
     30  CZ        47.4420   27.9300   64.8250 C.ar   62  PHE62      -0.0000
     31  N         48.7980   20.4220   64.5760 N.3    74  PHE74      -0.1241
     32  CA        48.5760   21.3430   65.7010 C.3    74  PHE74       0.1605
     33  C         49.5900   21.1200   66.8310 C.2    74  PHE74       0.2264
     34  O         50.1820   22.0700   67.3390 O.2    74  PHE74      -0.2867
     35  CB        47.1470   21.2330   66.2550 C.3    74  PHE74       0.0534
     36  CG        46.9460   22.0260   67.5150 C.ar   74  PHE74      -0.0203
     37  CD1       46.5770   23.3660   67.4500 C.ar   74  PHE74      -0.0042
     38  CD2       47.1820   21.4560   68.7550 C.ar   74  PHE74      -0.0042
     39  CE1       46.4290   24.1150   68.6090 C.ar   74  PHE74      -0.0003
     40  CE2       47.0330   22.2010   69.9160 C.ar   74  PHE74      -0.0003
     41  CZ        46.6440   23.5290   69.8390 C.ar   74  PHE74      -0.0000
     42  N         53.1370   22.2410   65.7990 N.3    77  LEU77      -0.1231
     43  CA        53.2230   23.6960   65.9500 C.3    77  LEU77       0.1693
     44  C         53.3520   24.0800   67.4230 C.2    77  LEU77       0.2591
     45  O         54.1800   24.9180   67.7760 O.2    77  LEU77      -0.2718
     46  CB        52.0110   24.3950   65.3370 C.3    77  LEU77       0.0284
     47  CG        52.0760   25.9360   65.3370 C.3    77  LEU77       0.0019
     48  CD1       51.3780   26.5280   64.1250 C.3    77  LEU77       0.0001
     49  CD2       51.4880   26.5440   66.6090 C.3    77  LEU77       0.0001
     50  N         52.5390   23.4600   68.2790 N.am   78  ALA78      -0.1980
     51  CA        52.5620   23.7540   69.7140 C.3    78  ALA78       0.1597
     52  C         53.9690   23.6050   70.2510 C.2    78  ALA78       0.2287
     53  O         54.4330   24.4580   70.9950 O.2    78  ALA78      -0.2864
     54  CB        51.6070   22.8560   70.4870 C.3    78  ALA78       0.0319
     55  N         56.2420   26.5380   69.0930 N.3    81  LEU81      -0.1231
     56  CA        55.8610   27.8660   69.5830 C.3    81  LEU81       0.1693
     57  C         55.6250   27.9660   71.0890 C.2    81  LEU81       0.2592
     58  O         55.3620   29.0570   71.5940 O.2    81  LEU81      -0.2718
     59  CB        54.6130   28.3620   68.8500 C.3    81  LEU81       0.0284
     60  CG        54.6890   28.4070   67.3160 C.3    81  LEU81       0.0019
     61  CD1       53.5130   29.2030   66.7660 C.3    81  LEU81       0.0001
     62  CD2       56.0000   28.9940   66.7990 C.3    81  LEU81       0.0001
     63  N         55.7270   26.8500   71.8070 N.am   82  TYR82      -0.1963
     64  CA        55.4790   26.8540   73.2480 C.3    82  TYR82       0.1756
     65  C         56.5510   27.6880   73.9680 C.2    82  TYR82       0.2461
     66  O         57.7340   27.3550   73.8850 O.2    82  TYR82      -0.2730
     67  CB        55.4650   25.4280   73.8000 C.3    82  TYR82       0.0574
     68  CG        54.8940   25.3280   75.1930 C.ar   82  TYR82      -0.0198
     69  CD1       55.6930   25.5550   76.3140 C.ar   82  TYR82      -0.0009
     70  CD2       53.5540   25.0140   75.3910 C.ar   82  TYR82      -0.0009
     71  CE1       55.1690   25.4670   77.5930 C.ar   82  TYR82       0.0417
     72  CE2       53.0180   24.9210   76.6660 C.ar   82  TYR82       0.0417
     73  CZ        53.8280   25.1450   77.7640 C.ar   82  TYR82       0.1957
     74  OH        53.3020   25.0480   79.0300 O.3    82  TYR82      -0.2866
     75  N         56.1420   28.7770   74.6610 N.am   83  PRO83      -0.2727
     76  CA        57.0620   29.6850   75.3740 C.3    83  PRO83       0.1402
     77  C         57.9630   29.0190   76.4260 C.2    83  PRO83       0.2269
     78  O         57.5600   28.0370   77.0600 O.2    83  PRO83      -0.2865
     79  CB        56.1120   30.6510   76.0910 C.3    83  PRO83       0.0296
     80  CG        54.8680   30.6490   75.2740 C.3    83  PRO83       0.0237
     81  CD        54.7470   29.2580   74.7250 C.3    83  PRO83       0.0939
     82  N         56.1290   32.4690   80.7650 N.3    86  PHE86      -0.1241
     83  CA        54.9360   33.2880   80.5700 C.3    86  PHE86       0.1605
     84  C         55.0350   34.5730   81.3800 C.2    86  PHE86       0.2264
     85  O         54.6950   34.6060   82.5750 O.2    86  PHE86      -0.2867
     86  CB        53.6910   32.4780   80.9510 C.3    86  PHE86       0.0534
     87  CG        53.3880   31.3580   79.9940 C.ar   86  PHE86      -0.0203
     88  CD1       54.1360   30.1820   80.0200 C.ar   86  PHE86      -0.0042
     89  CD2       52.3610   31.4800   79.0610 C.ar   86  PHE86      -0.0042
     90  CE1       53.8630   29.1490   79.1360 C.ar   86  PHE86      -0.0003
     91  CE2       52.0780   30.4450   78.1750 C.ar   86  PHE86      -0.0003
     92  CZ        52.8310   29.2780   78.2140 C.ar   86  PHE86      -0.0000
     93  N         40.7380   37.4110   73.2890 N.3   110  GLN110     -0.1245
     94  CA        40.7920   36.4020   72.2330 C.3   110  GLN110      0.1566
     95  C         41.9840   35.4720   72.3530 C.2   110  GLN110      0.2260
     96  O         42.1010   34.5460   71.5570 O.2   110  GLN110     -0.2867
     97  CB        40.9370   37.0690   70.8760 C.3   110  GLN110      0.0367
     98  CG        39.7010   37.7700   70.4060 C.3   110  GLN110      0.0905
     99  CD        39.9840   38.6000   69.1780 C.2   110  GLN110      0.2608
    100  OE1       40.2280   38.0830   68.0980 O.2   110  GLN110     -0.2717
    101  NE2       39.9700   39.8960   69.3540 N.am  110  GLN110     -0.0878
    102  N         44.8110   32.8250   74.1880 N.3   112  ILE112     -0.1231
    103  CA        44.7270   31.5230   74.8310 C.3   112  ILE112      0.1692
    104  C         45.8700   31.3300   75.8360 C.2   112  ILE112      0.2592
    105  O         45.9720   30.2930   76.4780 O.2   112  ILE112     -0.2718
    106  CB        44.8000   30.4310   73.7590 C.3   112  ILE112      0.0266
    107  CG1       46.1180   30.5390   72.9830 C.3   112  ILE112      0.0019
    108  CG2       43.6110   30.5540   72.8060 C.3   112  ILE112      0.0020
    109  CD1       46.7690   29.2040   72.7580 C.3   112  ILE112      0.0001
    110  N         46.6920   32.3610   75.9920 N.am  113  ASP113     -0.1974
    111  CA        48.0090   32.2380   76.6270 C.3   113  ASP113      0.1709
    112  C         47.9970   32.3690   78.1480 C.2   113  ASP113      0.2293
    113  O         49.0150   32.1210   78.7850 O.2   113  ASP113     -0.2864
    114  CB        48.9810   33.2680   76.0180 C.3   113  ASP113      0.1436
    115  CG        48.4120   34.7110   75.9880 C.2   113  ASP113      0.3671
    116  OD1       47.8510   35.1810   77.0050 O.co2 113  ASP113     -0.2456
    117  OD2       48.5610   35.3810   74.9380 O.co2 113  ASP113     -0.2456
    118  N         38.0560   32.6220   73.7740 N.3   130  HIS130     -0.1241
    119  CA        38.5070   31.5100   72.9670 C.3   130  HIS130      0.1621
    120  C         39.1750   30.4500   73.8230 C.2   130  HIS130      0.2264
    121  O         39.9680   29.6490   73.3330 O.2   130  HIS130     -0.2867
    122  CB        39.4270   31.9900   71.8450 C.3   130  HIS130      0.0745
    123  CG        38.7480   32.8810   70.8520 C.ar  130  HIS130      0.0817
    124  ND1       39.4440   33.7480   70.0440 N.ar  130  HIS130     -0.2268
    125  CD2       37.4400   33.0500   70.5430 C.ar  130  HIS130      0.1154
    126  CE1       38.6000   34.4090   69.2710 C.ar  130  HIS130      0.1986
    127  NE2       37.3760   34.0040   69.5540 N.ar  130  HIS130     -0.2212
    128  N         44.9030   27.6150   77.0020 N.3   133  PHE133     -0.1241
    129  CA        45.7970   26.4740   76.8970 C.3   133  PHE133      0.1605
    130  C         46.0750   25.8330   78.2460 C.2   133  PHE133      0.2264
    131  O         46.6410   24.7520   78.2940 O.2   133  PHE133     -0.2867
    132  CB        47.1300   26.9200   76.2760 C.3   133  PHE133      0.0534
    133  CG        47.7440   25.8890   75.4090 C.ar  133  PHE133     -0.0203
    134  CD1       47.3590   25.7720   74.0880 C.ar  133  PHE133     -0.0042
    135  CD2       48.6860   25.0140   75.9150 C.ar  133  PHE133     -0.0042
    136  CE1       47.9170   24.8060   73.2750 C.ar  133  PHE133     -0.0003
    137  CE2       49.2510   24.0460   75.1090 C.ar  133  PHE133     -0.0003
    138  CZ        48.8610   23.9400   73.7860 C.ar  133  PHE133     -0.0000
    139  N         40.9990   25.3420   74.3000 N.3   175  ILE175     -0.1231
    140  CA        40.8730   26.4940   73.4430 C.3   175  ILE175      0.1692
    141  C         39.6890   26.2460   72.5420 C.2   175  ILE175      0.2592
    142  O         39.3150   25.1040   72.2860 O.2   175  ILE175     -0.2718
    143  CB        42.1630   26.7760   72.6390 C.3   175  ILE175      0.0266
    144  CG1       42.4280   25.6830   71.6080 C.3   175  ILE175      0.0019
    145  CG2       43.3330   26.9190   73.6020 C.3   175  ILE175      0.0020
    146  CD1       43.8630   25.6570   71.1110 C.3   175  ILE175      0.0001
    147  N         39.0870   27.3220   72.0840 N.am  176  VAL176     -0.1966
    148  CA        38.0190   27.2200   71.1150 C.3   176  VAL176      0.1727
    149  C         38.6610   27.2340   69.7420 C.2   176  VAL176      0.2616
    150  O         39.2060   28.2690   69.2940 O.2   176  VAL176     -0.2715
    151  CB        37.0380   28.4050   71.2170 C.3   176  VAL176      0.0290
    152  CG1       35.9830   28.3140   70.1330 C.3   176  VAL176      0.0023
    153  CG2       36.3960   28.4520   72.5870 C.3   176  VAL176      0.0023
    154  N         38.5550   26.1080   69.0520 N.am  177  PHE177     -0.1960
    155  CA        38.9610   26.0380   67.6520 C.3   177  PHE177      0.1771
    156  C         37.9190   26.6810   66.7630 C.2   177  PHE177      0.2619
    157  O         36.7390   26.7240   67.1030 O.2   177  PHE177     -0.2715
    158  CB        39.1390   24.5840   67.1990 C.3   177  PHE177      0.0574
    159  CG        40.4420   23.9450   67.6460 C.ar  177  PHE177     -0.0200
    160  CD1       40.6920   23.6980   68.9810 C.ar  177  PHE177     -0.0042
    161  CD2       41.3860   23.5300   66.7110 C.ar  177  PHE177     -0.0042
    162  CE1       41.8680   23.0780   69.3820 C.ar  177  PHE177     -0.0003
    163  CE2       42.5590   22.9020   67.1040 C.ar  177  PHE177     -0.0003
    164  CZ        42.8020   22.6750   68.4400 C.ar  177  PHE177     -0.0000
    165  N         38.3600   27.1710   65.6120 N.am  178  PHE178     -0.1974
    166  CA        37.4470   27.5690   64.5540 C.3   178  PHE178      0.1639
    167  C         36.4940   26.4070   64.2650 C.2   178  PHE178      0.2290
    168  O         36.9150   25.2610   64.2130 O.2   178  PHE178     -0.2864
    169  CB        38.2220   27.9870   63.2980 C.3   178  PHE178      0.0560
    170  CG        38.9700   29.2750   63.4620 C.ar  178  PHE178     -0.0200
    171  CD1       38.3220   30.4950   63.3020 C.ar  178  PHE178     -0.0042
    172  CD2       40.3190   29.2800   63.7990 C.ar  178  PHE178     -0.0042
    173  CE1       39.0030   31.6880   63.4660 C.ar  178  PHE178     -0.0003
    174  CE2       41.0090   30.4720   63.9620 C.ar  178  PHE178     -0.0003
    175  CZ        40.3530   31.6760   63.7950 C.ar  178  PHE178     -0.0000
    176  N         37.8300   38.0040   63.7420 N.3   209  VAL209     -0.1245
    177  CA        37.3030   36.7320   64.1880 C.3   209  VAL209      0.1561
    178  C         35.9470   36.9660   64.8200 C.2   209  VAL209      0.2260
    179  O         35.8160   37.8120   65.6880 O.2   209  VAL209     -0.2867
    180  CB        38.2480   36.0520   65.1900 C.3   209  VAL209      0.0252
    181  CG1       37.6950   34.6860   65.5820 C.3   209  VAL209      0.0019
    182  CG2       39.6400   35.9100   64.5820 C.3   209  VAL209      0.0019
@<TRIPOS>BOND
     1    12    11    2
     2    11    10    1
     3    20    21    1
     4   169   170    1
     5   169   166    1
     6   171   170   ar
     7   171   173   ar
     8   170   172   ar
     9   173   175   ar
    10    22    21    1
    11    22    23    2
    12    10    13    1
    13    10     9    1
    14    27    29   ar
    15    27    25   ar
    16   176   177    1
    17   175   174   ar
    18   172   174   ar
    19    21    24    1
    20    29    30   ar
    21    24    25    1
    22    13    14    1
    23    48    47    1
    24   177   178    1
    25   177   180    1
    26   168   167    2
    27   167   166    1
    28    25    26   ar
    29   166   165    1
    30    31    32    1
    31   182   180    1
    32   178   179    2
    33    30    28   ar
    34    15    14   ar
    35    15    17   ar
    36   180   181    1
    37    14    16   ar
    38    26    28   ar
    39    47    46    1
    40    47    49    1
    41    46    43    1
    42   165   156   am
    43    32    35    1
    44    32    33    1
    45    42    43    1
    46    43    44    1
    47    17    19   ar
    48    35    36    1
    49    16    18   ar
    50   161   163   ar
    51   161   159   ar
    52   156   157    2
    53   156   155    1
    54    61    60    1
    55    62    60    1
    56    33    34    2
    57   163   164   ar
    58   158   159    1
    59   158   155    1
    60    60    59    1
    61    19    18   ar
    62    44    45    2
    63    44    50   am
    64    37    36   ar
    65    37    39   ar
    66    36    38   ar
    67   159   160   ar
    68   155   154    1
    69   100    99    2
    70    50    51    1
    71   164   162   ar
    72    39    41   ar
    73    38    40   ar
    74    59    56    1
    75   160   162   ar
    76   154   149   am
    77    55    56    1
    78    99   101   am
    79    99    98    1
    80   126   127   ar
    81   126   124   ar
    82   150   149    2
    83   127   125   ar
    84    56    57    1
    85    51    52    1
    86    51    54    1
    87   149   148    1
    88    41    40   ar
    89   124   123   ar
    90     4     3    2
    91     3     2    1
    92   152   151    1
    93    52    53    2
    94    98    97    1
    95   125   123   ar
    96   123   122    1
    97    97    94    1
    98    57    58    2
    99    57    63   am
   100   146   144    1
   101   148   151    1
   102   148   147    1
   103   151   153    1
   104     2     1    1
   105     2     5    1
   106    96    95    2
   107   144   143    1
   108    63    64    1
   109     7     5    1
   110   122   119    1
   111   147   141   am
   112    94    95    1
   113    94    93    1
   114   142   141    2
   115     5     6    1
   116   141   140    1
   117   143   140    1
   118   143   145    1
   119   109   107    1
   120   108   106    1
   121   119   118    1
   122   119   120    1
   123   107   106    1
   124    64    67    1
   125    64    65    1
   126   136   138   ar
   127   136   134   ar
   128   121   120    2
   129   140   139    1
   130     6     8    1
   131   106   103    1
   132   138   137   ar
   133    67    68    1
   134    66    65    2
   135    65    75   am
   136   134   133   ar
   137   102   103    1
   138    75    81    1
   139    75    76    1
   140    81    80    1
   141   103   104    1
   142   117   115   ar
   143   137   135   ar
   144    68    70   ar
   145    68    69   ar
   146    80    79    1
   147    76    79    1
   148    76    77    1
   149    70    72   ar
   150   133   135   ar
   151   133   132    1
   152   104   110   am
   153   104   105    2
   154   115   114    1
   155   115   116   ar
   156   110   111    1
   157   114   111    1
   158   132   129    1
   159    69    71   ar
   160    77    78    2
   161   111   112    1
   162    72    73   ar
   163   129   128    1
   164   129   130    1
   165    71    73   ar
   166    73    74    1
   167   112   113    2
   168    91    92   ar
   169    91    89   ar
   170    92    90   ar
   171   130   131    2
   172    89    87   ar
   173    90    88   ar
   174    87    88   ar
   175    87    86    1
   176    83    82    1
   177    83    86    1
   178    83    84    1
   179    84    85    2
