@<TRIPOS>MOLECULE
tmp/4r8sB00.pdb
 168 163 0 0 0
SMALL
GASTEIGER

@<TRIPOS>ATOM
      1  N        -19.8490  -25.5840   11.2220 N.3    50  SER50      -0.1217
      2  CA       -18.4260  -25.6490   10.9580 C.3    50  SER50       0.1889
      3  C        -17.6650  -25.6860   12.2770 C.2    50  SER50       0.2288
      4  O        -18.2610  -25.4930   13.3210 O.2    50  SER50      -0.2866
      5  CB       -18.0010  -24.4080   10.1870 C.3    50  SER50       0.2089
      6  OG       -18.0210  -23.2600   11.0220 O.3    50  SER50      -0.2183
      7  N        -16.0410  -23.2380   13.2650 N.3    52  GLY52      -0.1225
      8  CA       -15.9870  -21.8530   13.6930 C.3    52  GLY52       0.1811
      9  C        -16.7120  -21.5520   14.9880 C.2    52  GLY52       0.2280
     10  O        -16.3340  -20.6160   15.6880 O.2    52  GLY52      -0.2866
     11  N        -21.4290  -10.0590   11.3590 N.3    73  ASP73      -0.1239
     12  CA       -20.4960  -11.1170   11.1080 C.3    73  ASP73       0.1674
     13  C        -20.0670  -11.0130    9.6450 C.2    73  ASP73       0.2266
     14  O        -20.8100  -11.4080    8.7560 O.2    73  ASP73      -0.2867
     15  CB       -21.1600  -12.4540   11.4380 C.3    73  ASP73       0.1410
     16  CG       -20.2990  -13.6720   11.2380 C.2    73  ASP73       0.3668
     17  OD1      -19.0750  -13.5030   11.0370 O.co2  73  ASP73      -0.2456
     18  OD2      -20.8450  -14.7820   11.2770 O.co2  73  ASP73      -0.2456
     19  N        -17.9450  -11.9690    6.5220 N.3    75  GLY75      -0.1210
     20  CA       -17.4100  -13.2080    5.9700 C.3    75  GLY75       0.1956
     21  C        -17.9920  -14.3270    6.8150 C.2    75  GLY75       0.2612
     22  O        -17.2530  -15.0500    7.5050 O.2    75  GLY75      -0.2717
     23  N        -19.3470  -14.4590    6.8250 N.am   76  CYS76      -0.1956
     24  CA       -19.9500  -15.4920    7.7140 C.3    76  CYS76       0.1843
     25  C        -19.7960  -16.9430    7.2320 C.2    76  CYS76       0.2626
     26  O        -19.9390  -17.8730    8.0430 O.2    76  CYS76      -0.2714
     27  CB       -21.4120  -15.1800    8.0160 C.3    76  CYS76       0.0997
     28  SG       -22.5110  -15.2380    6.5630 S.3    76  CYS76      -0.0797
     29  N        -19.5230  -17.1400    5.9370 N.am   77  GLY77      -0.1940
     30  CA       -19.4160  -18.4830    5.3740 C.3    77  GLY77       0.2014
     31  C        -20.6930  -19.2770    5.6130 C.2    77  GLY77       0.2639
     32  O        -21.8040  -18.7380    5.4380 O.2    77  GLY77      -0.2714
     33  N        -20.5370  -20.5300    6.0610 N.am   78  ARG78      -0.1963
     34  CA       -21.6430  -21.4270    6.4300 C.3    78  ARG78       0.1729
     35  C        -22.4790  -20.8770    7.6220 C.2    78  ARG78       0.2617
     36  O        -23.6650  -21.2170    7.7330 O.2    78  ARG78      -0.2715
     37  CB       -21.1290  -22.8440    6.7310 C.3    78  ARG78       0.0348
     38  CG       -20.6120  -23.5800    5.4870 C.3    78  ARG78       0.0492
     39  CD       -19.7750  -24.7820    5.8630 C.3    78  ARG78       0.2205
     40  NE       -18.3760  -24.3960    6.0220 N.pl3  78  ARG78      -0.0865
     41  CZ       -17.4520  -25.1300    6.6300 C.cat  78  ARG78       0.5346
     42  NH1      -16.2030  -24.6930    6.7170 N.pl3  78  ARG78       0.1354
     43  NH2      -17.7710  -26.3050    7.1660 N.pl3  78  ARG78       0.1354
     44  N        -21.8700  -19.9930    8.4320 N.am   79  GLY79      -0.1940
     45  CA       -22.5130  -19.3020    9.5530 C.3    79  GLY79       0.2014
     46  C        -22.1460  -19.7550   10.9560 C.2    79  GLY79       0.2639
     47  O        -22.8690  -19.4150   11.8930 O.2    79  GLY79      -0.2714
     48  N        -21.0060  -20.4260   11.1300 N.am   80  GLY80      -0.1939
     49  CA       -20.5770  -20.9190   12.4510 C.3    80  GLY80       0.2014
     50  C        -20.5470  -19.8620   13.5480 C.2    80  GLY80       0.2638
     51  O        -20.9840  -20.1250   14.6720 O.2    80  GLY80      -0.2714
     52  N        -20.0130  -18.6720   13.2610 N.am   81  TRP81      -0.1973
     53  CA       -19.9860  -17.5970   14.2550 C.3    81  TRP81       0.1640
     54  C        -21.3600  -17.0360   14.5500 C.2    81  TRP81       0.2290
     55  O        -21.6740  -16.7000   15.6890 O.2    81  TRP81      -0.2864
     56  CB       -19.0260  -16.4710   13.8470 C.3    81  TRP81       0.0576
     57  CG       -17.5590  -16.7980   13.9940 C.ar   81  TRP81       0.0006
     58  CD1      -16.9980  -18.0410   14.1040 C.ar   81  TRP81       0.0946
     59  CD2      -16.4630  -15.8650   13.9170 C.ar   81  TRP81       0.0152
     60  NE1      -15.6240  -17.9360   14.1720 N.ar   81  TRP81      -0.2442
     61  CE2      -15.2710  -16.6070   14.0810 C.ar   81  TRP81       0.0810
     62  CE3      -16.3810  -14.4640   13.8220 C.ar   81  TRP81       0.0012
     63  CZ2      -14.0030  -15.9880   14.0980 C.ar   81  TRP81       0.0191
     64  CZ3      -15.1370  -13.8490   13.8780 C.ar   81  TRP81       0.0001
     65  CH2      -13.9610  -14.6070   13.9940 C.ar   81  TRP81       0.0015
     66  N        -21.6880  -12.8980    3.4420 N.3    98  THR98      -0.1203
     67  CA       -20.6620  -13.7190    2.8410 C.3    98  THR98       0.1994
     68  C        -20.7390  -13.6250    1.3280 C.2    98  THR98       0.2618
     69  O        -21.8120  -13.4280    0.7720 O.2    98  THR98      -0.2717
     70  CB       -20.6480  -15.1620    3.4050 C.3    98  THR98       0.1784
     71  OG1      -19.3230  -15.7000    3.4340 O.3    98  THR98      -0.2211
     72  CG2      -21.6110  -16.1080    2.6900 C.3    98  THR98       0.0376
     73  N        -19.5990  -13.8440    0.6840 N.am   99  LYS99      -0.1965
     74  CA       -19.5190  -13.7420   -0.7740 C.3    99  LYS99       0.1728
     75  C        -20.2690  -14.8750   -1.4990 C.2    99  LYS99       0.2616
     76  O        -21.0100  -14.5980   -2.4500 O.2    99  LYS99      -0.2715
     77  CB       -18.0400  -13.7140   -1.1690 C.3    99  LYS99       0.0311
     78  CG       -17.6080  -12.3580   -1.6860 C.3    99  LYS99       0.0038
     79  CD       -16.9950  -12.4560   -3.0790 C.3    99  LYS99       0.0206
     80  CE       -15.4940  -12.6560   -3.0760 C.3    99  LYS99       0.1093
     81  NZ       -15.0770  -13.8910   -2.3620 N.3    99  LYS99      -0.1314
     82  N        -20.0230  -16.1190   -1.1040 N.am  100  GLY100     -0.1955
     83  CA       -20.6130  -17.2890   -1.7460 C.3   100  GLY100      0.1869
     84  C        -20.1380  -17.3930   -3.1860 C.2   100  GLY100      0.2309
     85  O        -19.2110  -16.6900   -3.5800 O.2   100  GLY100     -0.2863
     86  N        -16.4510  -20.5170   -2.7930 N.3   104  HIS104     -0.1226
     87  CA       -16.8420  -19.9160   -1.5170 C.3   104  HIS104      0.1752
     88  C        -18.0150  -20.6140   -0.8370 C.2   104  HIS104      0.2595
     89  O        -18.9780  -21.0170   -1.4970 O.2   104  HIS104     -0.2718
     90  CB       -17.1270  -18.4280   -1.6670 C.3   104  HIS104      0.0759
     91  CG       -15.9100  -17.6500   -2.0260 C.ar  104  HIS104      0.0818
     92  ND1      -14.9240  -17.4060   -1.0990 N.ar  104  HIS104     -0.2268
     93  CD2      -15.5210  -17.1590   -3.2250 C.ar  104  HIS104      0.1154
     94  CE1      -13.9770  -16.7560   -1.7460 C.ar  104  HIS104      0.1986
     95  NE2      -14.2930  -16.5810   -3.0290 N.ar  104  HIS104     -0.2212
     96  N        -17.9120  -20.7480    0.5020 N.am  105  GLU105     -0.1979
     97  CA       -18.9390  -21.3830    1.3230 C.3   105  GLU105      0.1602
     98  C        -20.2750  -20.6340    1.2610 C.2   105  GLU105      0.2287
     99  O        -20.3100  -19.4100    1.3790 O.2   105  GLU105     -0.2864
    100  CB       -18.4700  -21.5030    2.7880 C.3   105  GLU105      0.0415
    101  CG       -17.3860  -22.5490    3.0200 C.3   105  GLU105      0.1163
    102  CD       -15.9420  -22.1360    2.7830 C.2   105  GLU105      0.3649
    103  OE1      -15.6830  -20.9350    2.5390 O.co2 105  GLU105     -0.2457
    104  OE2      -15.0580  -23.0160    2.8980 O.co2 105  GLU105     -0.2457
    105  N        -22.6920  -11.2670   -1.0210 N.3   124  LYS124     -0.1231
    106  CA       -22.3360   -9.9870   -0.4440 C.3   124  LYS124      0.1693
    107  C        -20.8380   -9.8760   -0.1950 C.2   124  LYS124      0.2592
    108  O        -20.3280  -10.3970    0.7990 O.2   124  LYS124     -0.2718
    109  CB       -23.1020   -9.7820    0.8810 C.3   124  LYS124      0.0285
    110  CG       -24.5670   -9.3870    0.7120 C.3   124  LYS124      0.0035
    111  CD       -24.6990   -7.9370    0.2620 C.3   124  LYS124      0.0206
    112  CE       -25.9950   -7.2970    0.6780 C.3   124  LYS124      0.1093
    113  NZ       -27.0930   -7.6060   -0.2670 N.3   124  LYS124     -0.1314
    114  N        -20.1380   -9.1890   -1.0840 N.am  125  ASP125     -0.1960
    115  CA       -18.7040   -8.9330   -0.9580 C.3   125  ASP125      0.1840
    116  C        -18.5900   -7.7680    0.0240 C.2   125  ASP125      0.2622
    117  O        -18.8990   -6.6600   -0.3340 O.2   125  ASP125     -0.2715
    118  CB       -18.1000   -8.5570   -2.3380 C.3   125  ASP125      0.1450
    119  CG       -16.5860   -8.3510   -2.3570 C.2   125  ASP125      0.3671
    120  OD1      -15.9960   -8.1280   -1.2730 O.co2 125  ASP125     -0.2456
    121  OD2      -15.9970   -8.3810   -3.4590 O.co2 125  ASP125     -0.2456
    122  N        -18.1010   -8.0290    1.2710 N.am  126  VAL126     -0.1963
    123  CA       -18.0480   -6.9810    2.3070 C.3   126  VAL126      0.1727
    124  C        -17.1350   -5.7820    2.0070 C.2   126  VAL126      0.2616
    125  O        -17.2960   -4.7330    2.6340 O.2   126  VAL126     -0.2715
    126  CB       -17.6980   -7.6130    3.6870 C.3   126  VAL126      0.0290
    127  CG1      -18.6420   -8.7730    4.0060 C.3   126  VAL126      0.0023
    128  CG2      -16.2400   -8.0560    3.7470 C.3   126  VAL126      0.0023
    129  N        -16.2290   -5.8950    1.0220 N.am  127  PHE127     -0.1974
    130  CA       -15.4350   -4.7330    0.6030 C.3   127  PHE127      0.1639
    131  C        -16.3330   -3.6770   -0.0460 C.2   127  PHE127      0.2290
    132  O        -15.9680   -2.5000   -0.0970 O.2   127  PHE127     -0.2864
    133  CB       -14.2690   -5.1360   -0.3290 C.3   127  PHE127      0.0560
    134  CG       -13.2730   -6.0010    0.4110 C.ar  127  PHE127     -0.0200
    135  CD1      -12.5250   -5.4850    1.4590 C.ar  127  PHE127     -0.0042
    136  CD2      -13.0280   -7.3100    0.0100 C.ar  127  PHE127     -0.0042
    137  CE1      -11.6220   -6.2970    2.1650 C.ar  127  PHE127     -0.0003
    138  CE2      -12.1030   -8.1100    0.6970 C.ar  127  PHE127     -0.0003
    139  CZ       -11.4080   -7.5980    1.7660 C.ar  127  PHE127     -0.0000
    140  N        -14.0240  -12.7160    9.9520 N.3   140  ASP140     -0.1225
    141  CA       -13.1440  -13.8680    9.8930 C.3   140  ASP140      0.1805
    142  C        -12.5760  -14.0810    8.4870 C.2   140  ASP140      0.2598
    143  O        -12.2360  -15.2120    8.1240 O.2   140  ASP140     -0.2718
    144  CB       -13.9260  -15.1100   10.3800 C.3   140  ASP140      0.1424
    145  CG       -13.0530  -16.2780   10.7740 C.2   140  ASP140      0.3668
    146  OD1      -11.9350  -16.0350   11.2550 O.co2 140  ASP140     -0.2456
    147  OD2      -13.4760  -17.4440   10.5590 O.co2 140  ASP140     -0.2456
    148  N        -12.4170  -12.9990    7.7270 N.am  141  ILE141     -0.1966
    149  CA       -11.9070  -13.0710    6.3620 C.3   141  ILE141      0.1727
    150  C        -10.4030  -13.0810    6.2920 C.2   141  ILE141      0.2616
    151  O         -9.7510  -12.2910    6.9820 O.2   141  ILE141     -0.2715
    152  CB       -12.4870  -11.9060    5.5500 C.3   141  ILE141      0.0290
    153  CG1      -14.0000  -12.0950    5.3930 C.3   141  ILE141      0.0022
    154  CG2      -11.7720  -11.7660    4.1710 C.3   141  ILE141      0.0023
    155  CD1      -14.8070  -10.8680    5.0140 C.3   141  ILE141      0.0001
    156  N         -9.8730  -13.9200    5.3960 N.am  142  GLY142     -0.1955
    157  CA        -8.4360  -13.9880    5.1310 C.3   142  GLY142      0.1869
    158  C         -8.0320  -15.2750    4.4460 C.2   142  GLY142      0.2309
    159  O         -8.0170  -16.3360    5.0620 O.2   142  GLY142     -0.2863
    160  N        -10.1570  -11.4140   12.3660 N.3   174  LYS174     -0.1245
    161  CA        -9.0330  -12.2460   11.9440 C.3   174  LYS174      0.1561
    162  C         -7.9600  -11.4030   11.2660 C.2   174  LYS174      0.2260
    163  O         -8.2590  -10.6170   10.3690 O.2   174  LYS174     -0.2867
    164  CB        -9.4640  -13.3700   10.9960 C.3   174  LYS174      0.0271
    165  CG        -8.3710  -14.4320   10.8110 C.3   174  LYS174      0.0035
    166  CD        -8.8290  -15.6020    9.9660 C.3   174  LYS174      0.0206
    167  CE        -8.5450  -15.3820    8.4900 C.3   174  LYS174      0.1093
    168  NZ        -9.1590  -16.4610    7.6810 N.3   174  LYS174     -0.1314
@<TRIPOS>BOND
     1    85    84    2
     2   121   119   ar
     3    93    95   ar
     4    93    91   ar
     5    84    83    1
     6    79    80    1
     7    79    78    1
     8    80    81    1
     9    95    94   ar
    10    86    87    1
    11    76    75    2
    12   119   118    1
    13   119   120   ar
    14   118   115    1
    15    91    90    1
    16    91    92   ar
    17    94    92   ar
    18    83    82    1
    19    78    77    1
    20    90    87    1
    21    87    88    1
    22    75    82   am
    23    75    74    1
    24    89    88    2
    25    77    74    1
    26   114   115    1
    27   114   107   am
    28   105   106    1
    29   115   116    1
    30    88    96   am
    31    74    73    1
    32   106   107    1
    33   106   109    1
    34   117   116    2
    35   133   134    1
    36   133   130    1
    37   113   112    1
    38   107   108    2
    39   132   131    2
    40   131   130    1
    41   136   134   ar
    42   136   138   ar
    43   116   122   am
    44   111   112    1
    45   111   110    1
    46   134   135   ar
    47    96    97    1
    48   130   129    1
    49    73    68   am
    50   138   139   ar
    51   110   109    1
    52    69    68    2
    53   129   124   am
    54    98    97    1
    55    98    99    2
    56   122   123    1
    57    97   100    1
    58    68    67    1
    59   135   137   ar
    60   139   137   ar
    61   124   123    1
    62   124   125    2
    63   123   126    1
    64   103   102   ar
    65    72    70    1
    66   102   104   ar
    67   102   101    1
    68   100   101    1
    69    67    70    1
    70    67    66    1
    71    70    71    1
    72   126   128    1
    73   126   127    1
    74   154   152    1
    75   158   159    2
    76   158   157    1
    77   155   153    1
    78   157   156    1
    79    30    31    1
    80    30    29    1
    81   153   152    1
    82   156   150   am
    83    32    31    2
    84    38    39    1
    85    38    37    1
    86   152   149    1
    87    31    33   am
    88    39    40    1
    89    29    25   am
    90    20    19    1
    91    20    21    1
    92    40    41    2
    93    33    34    1
    94   150   149    1
    95   150   151    2
    96   149   148    1
    97    34    37    1
    98    34    35    1
    99    28    27    1
   100    41    42    1
   101    41    43    1
   102    21    23   am
   103    21    22    2
   104    23    24    1
   105    25    24    1
   106    25    26    2
   107    35    36    2
   108    35    44   am
   109   168   167    1
   110    24    27    1
   111   148   142   am
   112   143   142    2
   113    44    45    1
   114   142   141    1
   115   167   166    1
   116    14    13    2
   117    45    46    1
   118    13    12    1
   119   141   140    1
   120   141   144    1
   121   166   165    1
   122     5     2    1
   123     5     6    1
   124   163   162    2
   125   144   145    1
   126   147   145   ar
   127   145   146   ar
   128   165   164    1
   129    46    48   am
   130    46    47    2
   131     2     1    1
   132     2     3    1
   133   164   161    1
   134    17    16   ar
   135    12    11    1
   136    12    15    1
   137    48    49    1
   138    16    18   ar
   139    16    15    1
   140   162   161    1
   141   161   160    1
   142     3     4    2
   143    49    50    1
   144    52    50   am
   145    52    53    1
   146     7     8    1
   147    50    51    2
   148     8     9    1
   149    62    64   ar
   150    62    59   ar
   151    56    57    1
   152    56    53    1
   153    64    65   ar
   154    59    57   ar
   155    59    61   ar
   156    57    58   ar
   157    65    63   ar
   158    61    63   ar
   159    61    60   ar
   160    58    60   ar
   161    53    54    1
   162    54    55    2
   163     9    10    2
