@<TRIPOS>MOLECULE
tmp/4r8vA00.pdb
 125 119 0 0 0
SMALL
GASTEIGER

@<TRIPOS>ATOM
      1  N         10.7110   12.5480   18.8280 N.3    83  LEU83      -0.1245
      2  CA        12.0260   12.6000   18.2030 C.3    83  LEU83       0.1561
      3  C         12.6940   13.9680   18.3830 C.2    83  LEU83       0.2260
      4  O         12.4850   14.8820   17.5810 O.2    83  LEU83      -0.2867
      5  CB        11.9330   12.2420   16.7120 C.3    83  LEU83       0.0270
      6  CG        11.6420   10.7910   16.3040 C.3    83  LEU83       0.0019
      7  CD1       10.2030   10.4190   16.5390 C.3    83  LEU83       0.0001
      8  CD2       12.0230   10.5570   14.8390 C.3    83  LEU83       0.0001
      9  N         16.8720   13.5890   16.2350 N.3    86  CYS86      -0.1235
     10  CA        17.2660   12.2760   15.7560 C.3    86  CYS86       0.1677
     11  C         18.1970   12.4160   14.5550 C.2    86  CYS86       0.2270
     12  O         17.8070   12.9790   13.5370 O.2    86  CYS86      -0.2867
     13  CB        16.0270   11.4670   15.3770 C.3    86  CYS86       0.0956
     14  SG        16.4200    9.7680   14.9760 S.3    86  CYS86      -0.0801
     15  N         19.5170    9.8770   12.9460 N.3    88  GLN88      -0.1231
     16  CA        19.4170    8.6420   12.1730 C.3    88  GLN88       0.1698
     17  C         18.1280    8.6410   11.3440 C.2    88  GLN88       0.2592
     18  O         17.1270    9.2450   11.7380 O.2    88  GLN88      -0.2718
     19  CB        19.4330    7.4210   13.1050 C.3    88  GLN88       0.0381
     20  CG        20.5620    7.3940   14.1430 C.3    88  GLN88       0.0905
     21  CD        20.5630    6.1100   14.9780 C.2    88  GLN88       0.2608
     22  OE1       19.6560    5.8750   15.7870 O.2    88  GLN88      -0.2717
     23  NE2       21.5710    5.2730   14.7740 N.am   88  GLN88      -0.0878
     24  N         18.1600    7.9740   10.1940 N.am   89  PHE89      -0.1962
     25  CA        16.9560    7.7640    9.4000 C.3    89  PHE89       0.1771
     26  C         16.0750    6.7100   10.0690 C.2    89  PHE89       0.2619
     27  O         16.5060    5.5740   10.2790 O.2    89  PHE89      -0.2715
     28  CB        17.3350    7.3110    7.9910 C.3    89  PHE89       0.0574
     29  CG        16.1540    7.0680    7.0870 C.ar   89  PHE89      -0.0200
     30  CD1       15.7060    8.0670    6.2250 C.ar   89  PHE89      -0.0042
     31  CD2       15.5020    5.8360    7.0800 C.ar   89  PHE89      -0.0042
     32  CE1       14.6200    7.8470    5.3790 C.ar   89  PHE89      -0.0003
     33  CE2       14.4190    5.6050    6.2380 C.ar   89  PHE89      -0.0003
     34  CZ        13.9750    6.6130    5.3880 C.ar   89  PHE89      -0.0000
     35  N         14.8400    7.0860   10.3900 N.am   90  ILE90      -0.1977
     36  CA        13.8890    6.1890   11.0310 C.3    90  ILE90       0.1596
     37  C         12.8480    5.7420   10.0110 C.2    90  ILE90       0.2287
     38  O         12.1520    6.5770    9.4360 O.2    90  ILE90      -0.2864
     39  CB        13.1560    6.8850   12.2000 C.3    90  ILE90       0.0276
     40  CG1       14.1540    7.5630   13.1470 C.3    90  ILE90       0.0022
     41  CG2       12.2620    5.8950   12.9450 C.3    90  ILE90       0.0022
     42  CD1       15.1530    6.6050   13.7890 C.3    90  ILE90       0.0001
     43  N          9.5420    4.3520    8.0690 N.3    92  MET92      -0.1245
     44  CA         8.1420    4.7410    8.2470 C.3    92  MET92       0.1570
     45  C          7.3400    3.6800    8.9970 C.2    92  MET92       0.2261
     46  O          6.2700    3.9660    9.5410 O.2    92  MET92      -0.2867
     47  CB         7.4850    5.0740    6.9000 C.3    92  MET92       0.0387
     48  CG         7.9570    6.3940    6.2900 C.3    92  MET92       0.0595
     49  SD         7.8070    7.7750    7.4460 S.3    92  MET92      -0.1393
     50  CE         6.0190    7.8350    7.6510 C.3    92  MET92       0.0692
     51  N          7.9700    5.0020   12.4440 N.3    95  ILE95      -0.1245
     52  CA         7.2930    6.2980   12.5120 C.3    95  ILE95       0.1561
     53  C          5.7770    6.1400   12.6650 C.2    95  ILE95       0.2260
     54  O          5.1700    6.7840   13.5220 O.2    95  ILE95      -0.2867
     55  CB         7.5850    7.1610   11.2540 C.3    95  ILE95       0.0252
     56  CG1        9.0480    7.6120   11.2250 C.3    95  ILE95       0.0019
     57  CG2        6.6580    8.3690   11.2120 C.3    95  ILE95       0.0019
     58  CD1        9.4140    8.5910   12.3460 C.3    95  ILE95       0.0001
     59  N          8.1290   15.3550   15.8930 N.3   104  ILE104     -0.1245
     60  CA         9.5300   15.6870   15.7080 C.3   104  ILE104      0.1561
     61  C          9.7420   17.1410   16.0980 C.2   104  ILE104      0.2260
     62  O          8.9370   17.9980   15.7410 O.2   104  ILE104     -0.2867
     63  CB         9.9430   15.5060   14.2200 C.3   104  ILE104      0.0252
     64  CG1        9.7890   14.0400   13.7830 C.3   104  ILE104      0.0019
     65  CG2       11.3750   15.9840   13.9910 C.3   104  ILE104      0.0019
     66  CD1       10.3630   13.7410   12.3950 C.3   104  ILE104      0.0001
     67  N          6.1500   18.9910   14.7860 N.3   135  PHE135     -0.1241
     68  CA         5.3110   18.5390   13.6870 C.3   135  PHE135      0.1605
     69  C          5.1600   17.0290   13.7040 C.2   135  PHE135      0.2264
     70  O          5.9840   16.3160   14.2970 O.2   135  PHE135     -0.2867
     71  CB         5.8500   19.0400   12.3330 C.3   135  PHE135      0.0534
     72  CG         7.1220   18.3580   11.8680 C.ar  135  PHE135     -0.0203
     73  CD1        8.3740   18.8060   12.2860 C.ar  135  PHE135     -0.0042
     74  CD2        7.0660   17.3010   10.9730 C.ar  135  PHE135     -0.0042
     75  CE1        9.5470   18.1810   11.8290 C.ar  135  PHE135     -0.0003
     76  CE2        8.2230   16.6750   10.5240 C.ar  135  PHE135     -0.0003
     77  CZ         9.4650   17.1200   10.9530 C.ar  135  PHE135     -0.0000
     78  N          5.5040   13.6250   12.0290 N.3   137  ALA137     -0.1231
     79  CA         6.3140   13.0340   10.9690 C.3   137  ALA137      0.1694
     80  C          5.4650   12.3880    9.8690 C.2   137  ALA137      0.2592
     81  O          4.5700   11.5760   10.1570 O.2   137  ALA137     -0.2718
     82  CB         7.2570   12.0110   11.5590 C.3   137  ALA137      0.0304
     83  N          5.7440   12.7530    8.6140 N.am  138  ASP138     -0.1960
     84  CA         5.2770   11.9530    7.4860 C.3   138  ASP138      0.1840
     85  C          6.5140   11.4580    6.7310 C.2   138  ASP138      0.2622
     86  O          7.6280   11.5880    7.2310 O.2   138  ASP138     -0.2715
     87  CB         4.2620   12.7070    6.6000 C.3   138  ASP138      0.1450
     88  CG         4.8540   13.9520    5.9000 C.2   138  ASP138      0.3671
     89  OD1        4.0530   14.7570    5.3680 O.co2 138  ASP138     -0.2456
     90  OD2        6.0960   14.1290    5.8580 O.co2 138  ASP138     -0.2456
     91  N          6.3390   10.9130    5.5380 N.am  139  ASP139     -0.1957
     92  CA         7.4560   10.2880    4.8430 C.3   139  ASP139      0.1840
     93  C          8.4570   11.2680    4.2260 C.2   139  ASP139      0.2623
     94  O          9.5230   10.8540    3.7760 O.2   139  ASP139     -0.2715
     95  CB         6.9190    9.3590    3.7630 C.3   139  ASP139      0.1450
     96  CG         6.1530   10.1080    2.7070 C.2   139  ASP139      0.3671
     97  OD1        5.0880   10.6700    3.0410 O.co2 139  ASP139     -0.2456
     98  OD2        6.6290   10.1570    1.5560 O.co2 139  ASP139     -0.2456
     99  N          8.1240   12.5550    4.1940 N.am  140  GLY140     -0.1940
    100  CA         9.0150   13.5470    3.6020 C.3   140  GLY140      0.2014
    101  C         10.0410   14.0940    4.5810 C.2   140  GLY140      0.2639
    102  O         10.1600   13.5980    5.6980 O.2   140  GLY140     -0.2714
    103  N         10.7910   15.1110    4.1660 N.am  141  LEU141     -0.1963
    104  CA        11.8200   15.6940    5.0210 C.3   141  LEU141      0.1728
    105  C         11.3000   16.9550    5.6820 C.2   141  LEU141      0.2616
    106  O         11.2330   18.0050    5.0440 O.2   141  LEU141     -0.2715
    107  CB        13.0870   16.0050    4.2080 C.3   141  LEU141      0.0311
    108  CG        14.2360   16.7260    4.9350 C.3   141  LEU141      0.0022
    109  CD1       14.6840   15.9490    6.1810 C.3   141  LEU141      0.0001
    110  CD2       15.4270   16.9790    4.0060 C.3   141  LEU141      0.0001
    111  N         10.9150   16.8540    6.9550 N.am  142  ASP142     -0.1957
    112  CA        10.4040   18.0060    7.7030 C.3   142  ASP142      0.1840
    113  C          9.2220   18.6570    6.9810 C.2   142  ASP142      0.2622
    114  O          9.0900   19.8860    6.9400 O.2   142  ASP142     -0.2715
    115  CB        11.5170   19.0300    7.9440 C.3   142  ASP142      0.1450
    116  CG        12.7290   18.4300    8.6440 C.2   142  ASP142      0.3671
    117  OD1       12.5650   17.4880    9.4500 O.co2 142  ASP142     -0.2456
    118  OD2       13.8510   18.9080    8.3920 O.co2 142  ASP142     -0.2456
    119  N          8.3720   17.8110    6.4100 N.am  143  THR143     -0.1951
    120  CA         7.2420   18.2470    5.6020 C.3   143  THR143      0.1897
    121  C          5.9200   17.9870    6.2940 C.2   143  THR143      0.2313
    122  O          4.8690   18.3740    5.7860 O.2   143  THR143     -0.2863
    123  CB         7.1940   17.4570    4.2910 C.3   143  THR143      0.1794
    124  OG1        7.4660   16.0780    4.5760 O.3   143  THR143     -0.2208
    125  CG2        8.2210   17.9960    3.2780 C.3   143  THR143      0.0378
@<TRIPOS>BOND
     1    98    96   ar
     2    96    97   ar
     3    96    95    1
     4   125   123    1
     5   100    99    1
     6   100   101    1
     7    95    92    1
     8    94    93    2
     9   110   108    1
    10   103   101   am
    11   103   104    1
    12    99    93   am
    13   107   108    1
    14   107   104    1
    15    93    92    1
    16   123   124    1
    17   123   120    1
    18   101   102    2
    19    92    91    1
    20   108   109    1
    21   104   105    1
    22   106   105    2
    23    89    88   ar
    24    32    34   ar
    25    32    30   ar
    26    34    33   ar
    27    91    85   am
    28   120   121    1
    29   120   119    1
    30   105   111   am
    31   122   121    2
    32    90    88   ar
    33    88    87    1
    34    30    29   ar
    35    33    31   ar
    36    48    47    1
    37    48    49    1
    38   119   113   am
    39    87    84    1
    40    85    86    2
    41    85    84    1
    42    47    44    1
    43   114   113    2
    44   111   112    1
    45   113   112    1
    46    31    29   ar
    47    29    28    1
    48    49    50    1
    49    84    83    1
    50   112   115    1
    51   115   116    1
    52    28    25    1
    53    43    44    1
    54    44    45    1
    55   118   116   ar
    56    83    80   am
    57   116   117   ar
    58    45    46    2
    59    25    26    1
    60    25    24    1
    61    38    37    2
    62    80    81    2
    63    80    79    1
    64    37    36    1
    65    26    27    2
    66    26    35   am
    67    24    17   am
    68    35    36    1
    69    76    77   ar
    70    76    74   ar
    71    77    75   ar
    72    79    82    1
    73    79    78    1
    74    74    72   ar
    75    36    39    1
    76    57    55    1
    77    56    55    1
    78    56    58    1
    79    55    52    1
    80    17    18    2
    81    17    16    1
    82    75    73   ar
    83    72    73   ar
    84    72    71    1
    85    16    15    1
    86    16    19    1
    87    39    41    1
    88    39    40    1
    89    71    68    1
    90    66    64    1
    91    51    52    1
    92    52    53    1
    93    53    54    2
    94    19    20    1
    95    40    42    1
    96    12    11    2
    97    68    69    1
    98    68    67    1
    99    69    70    2
   100    64    63    1
   101    65    63    1
   102    20    21    1
   103    63    60    1
   104    11    10    1
   105    23    21   am
   106     8     6    1
   107    14    13    1
   108    21    22    2
   109    13    10    1
   110    60    59    1
   111    60    61    1
   112    62    61    2
   113    10     9    1
   114     6     7    1
   115     6     5    1
   116     5     2    1
   117     4     3    2
   118     2     3    1
   119     2     1    1
