@<TRIPOS>MOLECULE
tmp/4r8yB01.pdb
 222 214 0 0 0
SMALL
GASTEIGER

@<TRIPOS>ATOM
      1  N          7.4400   37.1510   57.7970 N.3    15  SER15      -0.1202
      2  CA         8.4560   36.4110   58.5680 C.3    15  SER15       0.2020
      3  C          9.0590   35.2030   57.8710 C.2    15  SER15       0.2619
      4  O         10.2670   34.9970   57.9690 O.2    15  SER15      -0.2717
      5  CB         7.9060   35.9890   59.9240 C.3    15  SER15       0.2103
      6  OG         6.7870   35.1420   59.7310 O.3    15  SER15      -0.2182
      7  N          8.2270   34.4340   57.1700 N.am   16  GLY16      -0.1942
      8  CA         8.6630   33.2210   56.4910 C.3    16  GLY16       0.2014
      9  C          9.5950   33.4210   55.3090 C.2    16  GLY16       0.2639
     10  O         10.4030   32.5360   55.0230 O.2    16  GLY16      -0.2714
     11  N          9.5090   34.5850   54.6360 N.am   17  GLN17      -0.1963
     12  CA        10.3030   34.8470   53.4320 C.3    17  GLN17       0.1733
     13  C         11.2260   36.0680   53.5210 C.2    17  GLN17       0.2616
     14  O         12.0570   36.2700   52.6470 O.2    17  GLN17      -0.2715
     15  CB         9.3790   34.9490   52.2120 C.3    17  GLN17       0.0408
     16  CG         8.6910   33.6120   51.8750 C.3    17  GLN17       0.0908
     17  CD         8.0690   33.6220   50.5020 C.2    17  GLN17       0.2608
     18  OE1        7.4410   34.6070   50.0690 O.2    17  GLN17      -0.2717
     19  NE2        8.2190   32.5070   49.8030 N.am   17  GLN17      -0.0878
     20  N         11.0590   36.8530   54.5750 N.am   18  GLY18      -0.1955
     21  CA        11.8350   38.0370   54.8840 C.3    18  GLY18       0.1869
     22  C         11.1650   39.3520   54.5650 C.2    18  GLY18       0.2309
     23  O         10.2590   39.4300   53.7230 O.2    18  GLY18      -0.2863
     24  N         16.5560   42.2450   51.0710 N.3    35  LEU35      -0.1245
     25  CA        16.2760   41.7300   52.4130 C.3    35  LEU35       0.1561
     26  C         16.9900   42.5360   53.5110 C.2    35  LEU35       0.2260
     27  O         18.2100   42.6810   53.4880 O.2    35  LEU35      -0.2867
     28  CB        16.7110   40.2410   52.4900 C.3    35  LEU35       0.0270
     29  CG        16.5050   39.5360   53.8440 C.3    35  LEU35       0.0019
     30  CD1       15.0140   39.1990   54.0420 C.3    35  LEU35       0.0001
     31  CD2       17.3680   38.2480   53.9350 C.3    35  LEU35       0.0001
     32  N         18.6090   42.4460   56.7450 N.3    37  ASP37      -0.1239
     33  CA        19.2470   41.3710   57.5010 C.3    37  ASP37       0.1674
     34  C         20.1630   41.8590   58.6220 C.2    37  ASP37       0.2266
     35  O         21.3410   42.1180   58.3790 O.2    37  ASP37      -0.2867
     36  CB        20.0070   40.4420   56.5210 C.3    37  ASP37       0.1410
     37  CG        20.5260   39.1500   57.1290 C.2    37  ASP37       0.3668
     38  OD1       20.2130   38.8700   58.3140 O.co2  37  ASP37      -0.2456
     39  OD2       21.2780   38.4470   56.4510 O.co2  37  ASP37      -0.2456
     40  N         21.3710   39.9520   60.8360 N.3    39  GLY39      -0.1210
     41  CA        22.2040   38.8010   61.1950 C.3    39  GLY39       0.1956
     42  C         23.3950   38.5430   60.2860 C.2    39  GLY39       0.2612
     43  O         23.9920   37.4590   60.3230 O.2    39  GLY39      -0.2717
     44  N         23.7460   39.5280   59.4430 N.am   40  SER40      -0.1952
     45  CA        24.9130   39.3970   58.5540 C.3    40  SER40       0.1924
     46  C         25.4420   40.7980   58.2370 C.2    40  SER40       0.2314
     47  O         24.8310   41.7850   58.6640 O.2    40  SER40      -0.2863
     48  CB        24.5730   38.6180   57.2880 C.3    40  SER40       0.2116
     49  OG        23.7660   39.4040   56.4340 O.3    40  SER40      -0.2180
     50  N         30.7980   32.3040   50.5740 N.3    74  VAL74      -0.1231
     51  CA        30.1410   32.3090   51.8810 C.3    74  VAL74       0.1678
     52  C         29.2890   31.0380   52.1120 C.2    74  VAL74       0.2434
     53  O         28.0740   31.0900   51.9320 O.2    74  VAL74      -0.2733
     54  CB        29.3420   33.6190   52.1240 C.3    74  VAL74       0.0265
     55  CG1       28.7520   33.6750   53.5460 C.3    74  VAL74       0.0020
     56  CG2       30.2240   34.8380   51.8780 C.3    74  VAL74       0.0020
     57  N         29.9050   29.9070   52.5240 N.am   75  PRO75      -0.2718
     58  CA        29.0910   28.7120   52.8340 C.3    75  PRO75       0.1535
     59  C         28.5760   28.8420   54.2720 C.2    75  PRO75       0.2598
     60  O         29.3140   29.2780   55.1580 O.2    75  PRO75      -0.2715
     61  CB        30.0880   27.5420   52.7020 C.3    75  PRO75       0.0310
     62  CG        31.4210   28.1400   52.9790 C.3    75  PRO75       0.0237
     63  CD        31.3500   29.6500   52.7220 C.3    75  PRO75       0.0939
     64  N         27.3090   28.5290   54.4900 N.am   76  TYR76      -0.1974
     65  CA        26.7130   28.5690   55.8300 C.3    76  TYR76       0.1639
     66  C         25.8970   27.2540   56.0000 C.2    76  TYR76       0.2290
     67  O         25.7620   26.5310   55.0250 O.2    76  TYR76      -0.2864
     68  CB        25.9870   29.9170   56.1380 C.3    76  TYR76       0.0560
     69  CG        24.9600   30.3410   55.1110 C.ar   76  TYR76      -0.0198
     70  CD1       25.3240   31.1040   53.9990 C.ar   76  TYR76      -0.0009
     71  CD2       23.6180   30.0010   55.2580 C.ar   76  TYR76      -0.0009
     72  CE1       24.3870   31.4560   53.0290 C.ar   76  TYR76       0.0417
     73  CE2       22.6720   30.3660   54.3070 C.ar   76  TYR76       0.0417
     74  CZ        23.0620   31.0850   53.1900 C.ar   76  TYR76       0.1957
     75  OH        22.1260   31.3900   52.2350 O.3    76  TYR76      -0.2866
     76  N         22.7640   26.1790   56.3210 N.3    78  GLN78      -0.1245
     77  CA        21.5530   26.0470   55.5240 C.3    78  GLN78       0.1566
     78  C         21.6230   26.5320   54.0550 C.2    78  GLN78       0.2260
     79  O         20.6050   26.4930   53.3590 O.2    78  GLN78      -0.2867
     80  CB        20.4070   26.7610   56.2550 C.3    78  GLN78       0.0367
     81  CG        19.9970   26.1670   57.6010 C.3    78  GLN78       0.0905
     82  CD        19.5820   24.7230   57.4890 C.2    78  GLN78       0.2608
     83  OE1       18.7190   24.4030   56.6480 O.2    78  GLN78      -0.2717
     84  NE2       20.2290   23.8460   58.1910 N.am   78  GLN78      -0.0878
     85  N         26.3870   31.3600   49.3500 N.3    81  TRP81      -0.1241
     86  CA        26.3730   32.3970   48.3240 C.3    81  TRP81       0.1605
     87  C         27.8060   32.6560   47.9180 C.2    81  TRP81       0.2264
     88  O         28.7110   32.5260   48.7410 O.2    81  TRP81      -0.2867
     89  CB        25.5620   33.6530   48.6870 C.3    81  TRP81       0.0550
     90  CG        26.1450   34.5450   49.7440 C.ar   81  TRP81       0.0003
     91  CD1       25.7260   34.6490   51.0360 C.ar   81  TRP81       0.0946
     92  CD2       27.0710   35.6300   49.5360 C.ar   81  TRP81       0.0152
     93  NE1       26.4230   35.6440   51.6820 N.ar   81  TRP81      -0.2442
     94  CE2       27.2200   36.2950   50.7740 C.ar   81  TRP81       0.0810
     95  CE3       27.8160   36.0830   48.4260 C.ar   81  TRP81       0.0012
     96  CZ2       28.0880   37.3850   50.9440 C.ar   81  TRP81       0.0191
     97  CZ3       28.6810   37.1520   48.5950 C.ar   81  TRP81       0.0001
     98  CH2       28.8090   37.7990   49.8370 C.ar   81  TRP81       0.0015
     99  N         20.2330   27.5790   47.9770 N.3   112  LYS112     -0.1231
    100  CA        19.1720   27.8380   48.9620 C.3   112  LYS112      0.1693
    101  C         19.2850   29.2450   49.5630 C.2   112  LYS112      0.2592
    102  O         19.0980   29.4240   50.7750 O.2   112  LYS112     -0.2718
    103  CB        19.1900   26.7610   50.0850 C.3   112  LYS112      0.0285
    104  CG        18.8850   25.3340   49.6020 C.3   112  LYS112      0.0035
    105  CD        18.8600   24.3170   50.7550 C.3   112  LYS112      0.0206
    106  CE        20.2290   23.8370   51.2080 C.3   112  LYS112      0.1093
    107  NZ        20.8570   22.9110   50.2280 N.3   112  LYS112     -0.1314
    108  N         19.6370   30.2350   48.7230 N.am  113  PHE113     -0.1976
    109  CA        19.8080   31.6160   49.1660 C.3   113  PHE113      0.1639
    110  C         18.5930   32.3910   48.7480 C.2   113  PHE113      0.2290
    111  O         17.8990   32.9590   49.6000 O.2   113  PHE113     -0.2864
    112  CB        21.0860   32.2220   48.5590 C.3   113  PHE113      0.0560
    113  CG        21.3620   33.6540   48.9480 C.ar  113  PHE113     -0.0200
    114  CD1       22.0450   33.9520   50.1210 C.ar  113  PHE113     -0.0042
    115  CD2       20.9690   34.7060   48.1220 C.ar  113  PHE113     -0.0042
    116  CE1       22.3680   35.2720   50.4420 C.ar  113  PHE113     -0.0003
    117  CE2       21.2680   36.0310   48.4650 C.ar  113  PHE113     -0.0003
    118  CZ        21.9860   36.2990   49.6060 C.ar  113  PHE113     -0.0000
    119  N         14.7650   32.8270   47.4550 N.3   115  ILE115     -0.1245
    120  CA        13.5160   32.1260   47.7890 C.3   115  ILE115      0.1561
    121  C         12.5100   32.4310   46.6980 C.2   115  ILE115      0.2260
    122  O         12.2830   33.6020   46.3840 O.2   115  ILE115     -0.2867
    123  CB        12.9410   32.5910   49.1580 C.3   115  ILE115      0.0252
    124  CG1       13.9330   32.4080   50.3170 C.3   115  ILE115      0.0019
    125  CG2       11.5790   31.9160   49.4740 C.3   115  ILE115      0.0019
    126  CD1       13.4920   33.2700   51.4790 C.3   115  ILE115      0.0001
    127  N         12.5830   39.5540   46.7190 N.3   120  TRP120     -0.1241
    128  CA        13.8570   40.2640   46.9390 C.3   120  TRP120      0.1605
    129  C         14.9740   39.6260   46.1220 C.2   120  TRP120      0.2264
    130  O         14.9450   38.4260   45.8390 O.2   120  TRP120     -0.2867
    131  CB        14.2410   40.4740   48.4160 C.3   120  TRP120      0.0550
    132  CG        14.1880   39.2510   49.2810 C.ar  120  TRP120      0.0003
    133  CD1       13.1850   38.9070   50.1430 C.ar  120  TRP120      0.0946
    134  CD2       15.2300   38.2770   49.4690 C.ar  120  TRP120      0.0152
    135  NE1       13.5260   37.7760   50.8380 N.ar  120  TRP120     -0.2442
    136  CE2       14.7690   37.3560   50.4370 C.ar  120  TRP120      0.0810
    137  CE3       16.4910   38.0610   48.8720 C.ar  120  TRP120      0.0012
    138  CZ2       15.5270   36.2550   50.8440 C.ar  120  TRP120      0.0191
    139  CZ3       17.2490   36.9920   49.2970 C.ar  120  TRP120      0.0001
    140  CH2       16.7610   36.0850   50.2540 C.ar  120  TRP120      0.0015
    141  N         20.5880   40.9360   49.6350 N.3   123  ILE123     -0.1245
    142  CA        20.4690   41.0940   51.0850 C.3   123  ILE123      0.1561
    143  C         21.2890   42.2770   51.5630 C.2   123  ILE123      0.2260
    144  O         22.3550   42.5500   51.0060 O.2   123  ILE123     -0.2867
    145  CB        20.7810   39.7820   51.8950 C.3   123  ILE123      0.0252
    146  CG1       22.2880   39.4350   51.9020 C.3   123  ILE123      0.0019
    147  CG2       19.9310   38.5890   51.3800 C.3   123  ILE123      0.0019
    148  CD1       22.6540   38.1500   52.8800 C.3   123  ILE123      0.0001
    149  N         31.9750   40.3120   61.2470 N.3   131  ILE131     -0.1245
    150  CA        31.4190   39.1340   60.5720 C.3   131  ILE131      0.1561
    151  C         31.2030   39.3470   59.0480 C.2   131  ILE131      0.2260
    152  O         30.5790   38.5030   58.3760 O.2   131  ILE131     -0.2867
    153  CB        30.1450   38.6170   61.2850 C.3   131  ILE131      0.0252
    154  CG1       29.0150   39.6850   61.2840 C.3   131  ILE131      0.0019
    155  CG2       30.4940   38.1590   62.7280 C.3   131  ILE131      0.0019
    156  CD1       27.5670   39.1280   61.5490 C.3   131  ILE131      0.0001
    157  N         32.2440   39.2170   55.1740 N.3   133  ARG133     -0.1245
    158  CA        33.0620   38.2730   54.4040 C.3   133  ARG133      0.1563
    159  C         33.7080   39.0120   53.2190 C.2   133  ARG133      0.2260
    160  O         33.0640   39.8910   52.6480 O.2   133  ARG133     -0.2867
    161  CB        32.2560   37.0450   53.9400 C.3   133  ARG133      0.0307
    162  CG        31.6190   36.2660   55.1160 C.3   133  ARG133      0.0489
    163  CD        32.7240   35.7370   56.0360 C.3   133  ARG133      0.2205
    164  NE        32.2520   34.7330   56.9750 N.pl3 133  ARG133     -0.0865
    165  CZ        32.1120   33.4470   56.6890 C.cat 133  ARG133      0.5346
    166  NH1       32.3900   32.9940   55.4680 N.pl3 133  ARG133      0.1354
    167  NH2       31.6720   32.6030   57.6120 N.pl3 133  ARG133      0.1354
    168  N         27.6530   40.2400   65.6270 N.3   203  TYR203     -0.1241
    169  CA        26.2270   40.1200   65.4080 C.3   203  TYR203      0.1605
    170  C         25.6640   41.1930   66.3690 C.2   203  TYR203      0.2264
    171  O         26.4340   41.7860   67.1340 O.2   203  TYR203     -0.2867
    172  CB        25.7330   38.7450   65.9120 C.3   203  TYR203      0.0534
    173  CG        26.2330   37.5880   65.0950 C.ar  203  TYR203     -0.0201
    174  CD1       25.5810   37.2010   63.9270 C.ar  203  TYR203     -0.0009
    175  CD2       27.4000   36.9150   65.4440 C.ar  203  TYR203     -0.0009
    176  CE1       26.0770   36.1690   63.1290 C.ar  203  TYR203      0.0417
    177  CE2       27.8850   35.8630   64.6710 C.ar  203  TYR203      0.0417
    178  CZ        27.2250   35.5010   63.5120 C.ar  203  TYR203      0.1957
    179  OH        27.7320   34.4870   62.7500 O.3   203  TYR203     -0.2866
    180  N         18.0560   38.8930   64.9920 N.3   233  ASP233     -0.1225
    181  CA        18.2360   38.6170   63.5670 C.3   233  ASP233      0.1805
    182  C         16.9640   38.6490   62.7350 C.2   233  ASP233      0.2598
    183  O         16.2250   37.6750   62.7130 O.2   233  ASP233     -0.2718
    184  CB        18.9520   37.2580   63.3930 C.3   233  ASP233      0.1424
    185  CG        19.3090   36.9100   61.9460 C.2   233  ASP233      0.3668
    186  OD1       19.2060   37.7950   61.0830 O.co2 233  ASP233     -0.2456
    187  OD2       19.6550   35.7450   61.6850 O.co2 233  ASP233     -0.2456
    188  N         16.7610   39.7420   61.9820 N.am  234  SER234     -0.1938
    189  CA        15.6260   39.8990   61.0660 C.3   234  SER234      0.2055
    190  C         15.7230   38.9070   59.8690 C.2   234  SER234      0.2644
    191  O         14.7220   38.6710   59.2080 O.2   234  SER234     -0.2714
    192  CB        15.5450   41.3430   60.5710 C.3   234  SER234      0.2130
    193  OG        16.7150   41.7000   59.8520 O.3   234  SER234     -0.2179
    194  N         16.9160   38.3440   59.6240 N.am  235  GLY235     -0.1939
    195  CA        17.1820   37.3720   58.5580 C.3   235  GLY235      0.2014
    196  C         16.9190   35.9220   58.9320 C.2   235  GLY235      0.2640
    197  O         17.2900   35.0090   58.1850 O.2   235  GLY235     -0.2714
    198  N         16.2710   35.6920   60.0960 N.am  236  THR236     -0.1936
    199  CA        15.8550   34.3560   60.5790 C.3   236  THR236      0.2028
    200  C         14.3610   34.4770   60.8660 C.2   236  THR236      0.2642
    201  O         13.9340   35.4740   61.4610 O.2   236  THR236     -0.2714
    202  CB        16.6080   33.9680   61.8790 C.3   236  THR236      0.1808
    203  OG1       17.9640   33.6790   61.5570 O.3   236  THR236     -0.2208
    204  CG2       15.9810   32.7540   62.6090 C.3   236  THR236      0.0379
    205  N         13.5780   33.4790   60.4580 N.am  237  THR237     -0.1950
    206  CA        12.1250   33.5190   60.7030 C.3   237  THR237      0.1897
    207  C         11.8040   33.3060   62.1920 C.2   237  THR237      0.2313
    208  O         11.0820   34.0990   62.7870 O.2   237  THR237     -0.2863
    209  CB        11.4140   32.4230   59.8810 C.3   237  THR237      0.1794
    210  OG1       11.6080   32.6860   58.4930 O.3   237  THR237     -0.2208
    211  CG2        9.9060   32.3300   60.1970 C.3   237  THR237      0.0378
    212  N         14.8070   30.9000   67.6380 N.3   240  ARG240     -0.1245
    213  CA        15.6230   29.6740   67.6940 C.3   240  ARG240      0.1563
    214  C         16.2810   29.5980   69.0630 C.2   240  ARG240      0.2260
    215  O         16.7660   30.6030   69.5610 O.2   240  ARG240     -0.2867
    216  CB        16.6690   29.6360   66.5560 C.3   240  ARG240      0.0307
    217  CG        16.0070   29.6910   65.1560 C.3   240  ARG240      0.0489
    218  CD        17.0050   29.5200   64.0310 C.3   240  ARG240      0.2205
    219  NE        17.5270   28.1500   63.9880 N.pl3 240  ARG240     -0.0865
    220  CZ        18.8040   27.8270   63.8100 C.cat 240  ARG240      0.5346
    221  NH1       19.1780   26.5580   63.8250 N.pl3 240  ARG240      0.1354
    222  NH2       19.7190   28.7750   63.6250 N.pl3 240  ARG240      0.1354
@<TRIPOS>BOND
     1   130   129    2
     2   129   128    1
     3   122   121    2
     4   121   120    1
     5   127   128    1
     6   128   131    1
     7   119   120    1
     8   120   123    1
     9    87    86    1
    10    87    88    2
    11    99   100    1
    12   115   117   ar
    13   115   113   ar
    14    86    89    1
    15    86    85    1
    16   131   132    1
    17    95    97   ar
    18    95    92   ar
    19   117   118   ar
    20   112   113    1
    21   112   109    1
    22    97    98   ar
    23    89    90    1
    24   108   109    1
    25   108   101   am
    26   110   109    1
    27   110   111    2
    28   137   139   ar
    29   137   134   ar
    30   113   114   ar
    31   100   101    1
    32   100   103    1
    33   123   125    1
    34   123   124    1
    35   132   134   ar
    36   132   133   ar
    37   139   140   ar
    38   134   136   ar
    39    92    90   ar
    40    92    94   ar
    41   101   102    2
    42   104   103    1
    43   104   105    1
    44   118   116   ar
    45   141   142    1
    46    90    91   ar
    47    19    17   am
    48    98    96   ar
    49    18    17    2
    50   114   116   ar
    51   133   135   ar
    52   107   106    1
    53   140   138   ar
    54   124   126    1
    55   136   135   ar
    56   136   138   ar
    57    17    16    1
    58    50    51    1
    59   105   106    1
    60    94    96   ar
    61    94    93   ar
    62   144   143    2
    63    91    93   ar
    64    24    25    1
    65   142   143    1
    66   142   145    1
    67   147   145    1
    68    16    15    1
    69    56    54    1
    70    51    52    1
    71    51    54    1
    72   145   146    1
    73   146   148    1
    74    53    52    2
    75    52    57   am
    76    54    55    1
    77    15    12    1
    78    75    74    1
    79    25    28    1
    80    25    26    1
    81    28    29    1
    82    57    63    1
    83    57    58    1
    84    14    13    2
    85   160   159    2
    86    61    58    1
    87    61    62    1
    88    63    62    1
    89    58    59    1
    90    72    74   ar
    91    72    70   ar
    92    74    73   ar
    93   159   158    1
    94    79    78    2
    95    12    13    1
    96    12    11    1
    97    27    26    2
    98    13    20   am
    99    23    22    2
   100    29    31    1
   101    29    30    1
   102   161   158    1
   103   161   162    1
   104    70    69   ar
   105    78    77    1
   106    59    64   am
   107    59    60    2
   108    73    71   ar
   109   158   157    1
   110    64    65    1
   111    22    21    1
   112    20    21    1
   113    11     9   am
   114    10     9    2
   115    67    66    2
   116    69    71   ar
   117    69    68    1
   118   162   163    1
   119     9     8    1
   120   166   165    1
   121    77    80    1
   122    77    76    1
   123    65    66    1
   124    65    68    1
   125   163   164    1
   126    80    81    1
   127    49    48    1
   128    39    37   ar
   129     8     7    1
   130    36    37    1
   131    36    33    1
   132    83    82    2
   133   165   164    2
   134   165   167    1
   135    32    33    1
   136    37    38   ar
   137     7     3   am
   138    48    45    1
   139    82    81    1
   140    82    84   am
   141    33    34    1
   142     1     2    1
   143     3     4    2
   144     3     2    1
   145   197   196    2
   146    46    45    1
   147    46    47    2
   148   152   151    2
   149    35    34    2
   150   210   209    1
   151    45    44    1
   152   195   196    1
   153   195   194    1
   154     2     5    1
   155   196   198   am
   156   151   150    1
   157   191   190    2
   158    44    42   am
   159   194   190   am
   160     6     5    1
   161   193   192    1
   162   190   189    1
   163   209   211    1
   164   209   206    1
   165   198   199    1
   166    42    43    2
   167    42    41    1
   168   205   206    1
   169   205   200   am
   170   192   189    1
   171   150   149    1
   172   150   153    1
   173   199   200    1
   174   199   202    1
   175   206   207    1
   176    40    41    1
   177   200   201    2
   178   189   188    1
   179   186   185   ar
   180   154   153    1
   181   154   156    1
   182   153   155    1
   183   203   202    1
   184   187   185   ar
   185   202   204    1
   186   185   184    1
   187   188   182   am
   188   207   208    2
   189   183   182    2
   190   182   181    1
   191   179   178    1
   192   176   178   ar
   193   176   174   ar
   194   184   181    1
   195   178   177   ar
   196   181   180    1
   197   222   220    1
   198   220   221    1
   199   220   219    2
   200   174   173   ar
   201   219   218    1
   202   218   217    1
   203   177   175   ar
   204   173   175   ar
   205   173   172    1
   206   217   216    1
   207   169   168    1
   208   169   172    1
   209   169   170    1
   210   170   171    2
   211   216   213    1
   212   212   213    1
   213   213   214    1
   214   214   215    2
