@<TRIPOS>MOLECULE
tmp/4r91B01.pdb
 220 213 0 0 0
SMALL
GASTEIGER

@<TRIPOS>ATOM
      1  N          7.4370   37.1520   57.6680 N.3    14  SER14      -0.1202
      2  CA         8.4880   36.4520   58.4200 C.3    14  SER14       0.2020
      3  C          9.1000   35.2330   57.7310 C.2    14  SER14       0.2619
      4  O         10.3050   35.0220   57.8530 O.2    14  SER14      -0.2717
      5  CB         7.9710   36.0490   59.7990 C.3    14  SER14       0.2103
      6  OG         6.8990   35.1320   59.6460 O.3    14  SER14      -0.2182
      7  N          8.2850   34.4710   56.9980 N.am   15  GLY15      -0.1942
      8  CA         8.7510   33.2480   56.3570 C.3    15  GLY15       0.2014
      9  C          9.6370   33.4690   55.1500 C.2    15  GLY15       0.2639
     10  O         10.4290   32.5840   54.8070 O.2    15  GLY15      -0.2714
     11  N          9.5070   34.6460   54.4950 N.am   16  GLN16      -0.1963
     12  CA        10.2700   34.9130   53.2710 C.3    16  GLN16       0.1733
     13  C         11.1640   36.1280   53.3560 C.2    16  GLN16       0.2616
     14  O         11.9790   36.3250   52.4570 O.2    16  GLN16      -0.2715
     15  CB         9.3280   35.0350   52.0710 C.3    16  GLN16       0.0408
     16  CG         8.6160   33.7070   51.7600 C.3    16  GLN16       0.0908
     17  CD         7.8820   33.7410   50.4480 C.2    16  GLN16       0.2608
     18  OE1        7.3280   34.7690   50.0250 O.2    16  GLN16      -0.2717
     19  NE2        7.8540   32.5960   49.7900 N.am   16  GLN16      -0.0878
     20  N         11.0560   36.8790   54.4410 N.am   17  GLY17      -0.1955
     21  CA        11.8510   38.0640   54.6940 C.3    17  GLY17       0.1869
     22  C         11.1660   39.3760   54.3920 C.2    17  GLY17       0.2309
     23  O         10.2780   39.4650   53.5270 O.2    17  GLY17      -0.2863
     24  N         16.5590   42.2580   50.9490 N.3    34  LEU34      -0.1245
     25  CA        16.2360   41.7490   52.2790 C.3    34  LEU34       0.1561
     26  C         16.9590   42.5570   53.3760 C.2    34  LEU34       0.2260
     27  O         18.1780   42.7420   53.3180 O.2    34  LEU34      -0.2867
     28  CB        16.7130   40.2790   52.3440 C.3    34  LEU34       0.0270
     29  CG        16.5350   39.6400   53.7260 C.3    34  LEU34       0.0019
     30  CD1       15.0760   39.2250   53.9270 C.3    34  LEU34       0.0001
     31  CD2       17.3880   38.3750   53.8770 C.3    34  LEU34       0.0001
     32  N         18.6370   42.4500   56.6630 N.3    36  ASP36      -0.1239
     33  CA        19.2510   41.3380   57.4080 C.3    36  ASP36       0.1674
     34  C         20.1470   41.8270   58.5260 C.2    36  ASP36       0.2266
     35  O         21.3160   42.1180   58.2940 O.2    36  ASP36      -0.2867
     36  CB        20.0170   40.4210   56.4410 C.3    36  ASP36       0.1410
     37  CG        20.5690   39.1750   57.0960 C.2    36  ASP36       0.3668
     38  OD1       20.2020   38.9040   58.2770 O.co2  36  ASP36      -0.2456
     39  OD2       21.3300   38.4390   56.4160 O.co2  36  ASP36      -0.2456
     40  N         21.3520   40.0210   60.7210 N.3    38  GLY38      -0.1210
     41  CA        22.1960   38.8920   61.1180 C.3    38  GLY38       0.1956
     42  C         23.4070   38.6470   60.2370 C.2    38  GLY38       0.2612
     43  O         24.0110   37.5760   60.3250 O.2    38  GLY38      -0.2717
     44  N         23.7540   39.6070   59.3390 N.am   39  SER39      -0.1952
     45  CA        24.9360   39.4460   58.4790 C.3    39  SER39       0.1924
     46  C         25.4620   40.8350   58.1770 C.2    39  SER39       0.2314
     47  O         24.8110   41.8160   58.5400 O.2    39  SER39      -0.2863
     48  CB        24.6150   38.6730   57.2090 C.3    39  SER39       0.2116
     49  OG        23.7600   39.4230   56.3690 O.3    39  SER39      -0.2180
     50  N         30.6560   32.3610   50.6870 N.3    73  VAL73      -0.1231
     51  CA        30.0210   32.3600   51.9930 C.3    73  VAL73       0.1678
     52  C         29.1110   31.1550   52.2280 C.2    73  VAL73       0.2434
     53  O         27.9310   31.1940   51.8960 O.2    73  VAL73      -0.2733
     54  CB        29.2830   33.6820   52.3110 C.3    73  VAL73       0.0265
     55  CG1       28.7330   33.6840   53.7630 C.3    73  VAL73       0.0020
     56  CG2       30.1960   34.8860   52.0750 C.3    73  VAL73       0.0020
     57  N         29.6510   30.0550   52.7880 N.am   74  PRO74      -0.2718
     58  CA        28.7600   28.9520   53.1970 C.3    74  PRO74       0.1535
     59  C         28.1050   29.3750   54.5340 C.2    74  PRO74       0.2599
     60  O         28.7760   29.9920   55.3710 O.2    74  PRO74      -0.2715
     61  CB        29.7090   27.7500   53.3180 C.3    74  PRO74       0.0310
     62  CG        31.0950   28.3310   53.4970 C.3    74  PRO74       0.0237
     63  CD        31.0560   29.8220   53.1870 C.3    74  PRO74       0.0939
     64  N         26.7860   29.1730   54.7060 N.am   75  TYR75      -0.1960
     65  CA        26.0650   29.5790   55.9340 C.3    75  TYR75       0.1771
     66  C         25.1200   28.4570   56.3940 C.2    75  TYR75       0.2620
     67  O         25.2110   27.3380   55.8680 O.2    75  TYR75      -0.2715
     68  CB        25.3220   30.9360   55.7600 C.3    75  TYR75       0.0574
     69  CG        24.3470   31.0110   54.6020 C.ar   75  TYR75      -0.0198
     70  CD1       23.0370   30.5520   54.7330 C.ar   75  TYR75      -0.0009
     71  CD2       24.7460   31.5000   53.3580 C.ar   75  TYR75      -0.0009
     72  CE1       22.1390   30.6140   53.6730 C.ar   75  TYR75       0.0417
     73  CE2       23.8520   31.5870   52.2990 C.ar   75  TYR75       0.0417
     74  CZ        22.5540   31.1330   52.4530 C.ar   75  TYR75       0.1957
     75  OH        21.7050   31.1670   51.3840 O.3    75  TYR75      -0.2866
     76  N         24.2430   28.7460   57.3840 N.am   76  THR76      -0.1951
     77  CA        23.2700   27.7780   57.9060 C.3    76  THR76       0.1897
     78  C         22.2330   27.4890   56.8390 C.2    76  THR76       0.2313
     79  O         21.3860   28.3380   56.5090 O.2    76  THR76      -0.2863
     80  CB        22.6370   28.2270   59.2490 C.3    76  THR76       0.1794
     81  OG1       23.6640   28.4000   60.2300 O.3    76  THR76      -0.2208
     82  CG2       21.6070   27.2200   59.7760 C.3    76  THR76       0.0378
     83  N         26.3770   31.2970   49.3550 N.3    80  TRP80      -0.1241
     84  CA        26.3730   32.3310   48.3050 C.3    80  TRP80       0.1605
     85  C         27.7940   32.5930   47.8910 C.2    80  TRP80       0.2264
     86  O         28.7040   32.5090   48.7190 O.2    80  TRP80      -0.2867
     87  CB        25.5650   33.5930   48.6240 C.3    80  TRP80       0.0550
     88  CG        26.1170   34.5130   49.6740 C.ar   80  TRP80       0.0003
     89  CD1       25.7210   34.5940   50.9810 C.ar   80  TRP80       0.0946
     90  CD2       27.0400   35.5930   49.4670 C.ar   80  TRP80       0.0152
     91  NE1       26.3660   35.6310   51.6090 N.ar   80  TRP80      -0.2442
     92  CE2       27.1850   36.2640   50.7010 C.ar   80  TRP80       0.0810
     93  CE3       27.7530   36.0670   48.3490 C.ar   80  TRP80       0.0012
     94  CZ2       28.0320   37.3660   50.8620 C.ar   80  TRP80       0.0191
     95  CZ3       28.6050   37.1450   48.5160 C.ar   80  TRP80       0.0001
     96  CH2       28.7560   37.7740   49.7610 C.ar   80  TRP80       0.0015
     97  N         20.1300   27.7730   48.0540 N.3   111  LYS111     -0.1231
     98  CA        19.1010   28.1070   49.0620 C.3   111  LYS111      0.1693
     99  C         19.2870   29.5380   49.6140 C.2   111  LYS111      0.2592
    100  O         19.2740   29.7760   50.8310 O.2   111  LYS111     -0.2718
    101  CB        19.0660   27.0520   50.1990 C.3   111  LYS111      0.0285
    102  CG        18.7510   25.6470   49.6860 C.3   111  LYS111      0.0035
    103  CD        18.5640   24.6220   50.8200 C.3   111  LYS111      0.0206
    104  CE        19.8500   24.1150   51.4310 C.3   111  LYS111      0.1093
    105  NZ        20.7550   23.4840   50.4300 N.3   111  LYS111     -0.1314
    106  N         19.5700   30.4660   48.7040 N.am  112  PHE112     -0.1976
    107  CA        19.7290   31.8700   49.0470 C.3   112  PHE112      0.1639
    108  C         18.4610   32.6000   48.6130 C.2   112  PHE112      0.2290
    109  O         17.7120   33.1140   49.4700 O.2   112  PHE112     -0.2864
    110  CB        20.9950   32.4440   48.3790 C.3   112  PHE112      0.0560
    111  CG        21.2780   33.8900   48.7060 C.ar  112  PHE112     -0.0200
    112  CD1       22.1440   34.2310   49.7450 C.ar  112  PHE112     -0.0042
    113  CD2       20.7690   34.9070   47.9140 C.ar  112  PHE112     -0.0042
    114  CE1       22.4620   35.5680   50.0030 C.ar  112  PHE112     -0.0003
    115  CE2       21.0370   36.2520   48.2240 C.ar  112  PHE112     -0.0003
    116  CZ        21.9080   36.5650   49.2380 C.ar  112  PHE112     -0.0000
    117  N         14.6380   33.0220   47.3750 N.3   114  ILE114     -0.1245
    118  CA        13.3860   32.3740   47.7660 C.3   114  ILE114      0.1561
    119  C         12.3580   32.6630   46.6910 C.2   114  ILE114      0.2260
    120  O         12.1220   33.8200   46.3770 O.2   114  ILE114     -0.2867
    121  CB        12.9260   32.8540   49.1670 C.3   114  ILE114      0.0252
    122  CG1       13.9680   32.4780   50.2610 C.3   114  ILE114      0.0019
    123  CG2       11.5500   32.2750   49.5110 C.3   114  ILE114      0.0019
    124  CD1       13.6510   33.1290   51.6960 C.3   114  ILE114      0.0001
    125  N         12.4910   39.6870   46.5090 N.3   119  TRP119     -0.1241
    126  CA        13.7560   40.3830   46.7350 C.3   119  TRP119      0.1605
    127  C         14.8760   39.7180   45.9510 C.2   119  TRP119      0.2264
    128  O         14.7960   38.5280   45.6350 O.2   119  TRP119     -0.2867
    129  CB        14.1250   40.6140   48.2090 C.3   119  TRP119      0.0550
    130  CG        14.0680   39.4040   49.0970 C.ar  119  TRP119      0.0003
    131  CD1       13.0650   39.0960   49.9760 C.ar  119  TRP119      0.0946
    132  CD2       15.0990   38.4220   49.3030 C.ar  119  TRP119      0.0152
    133  NE1       13.3820   37.9520   50.6740 N.ar  119  TRP119     -0.2442
    134  CE2       14.6230   37.5130   50.2780 C.ar  119  TRP119      0.0810
    135  CE3       16.3520   38.1810   48.7120 C.ar  119  TRP119      0.0012
    136  CZ2       15.3700   36.3990   50.6920 C.ar  119  TRP119      0.0191
    137  CZ3       17.1090   37.1030   49.1470 C.ar  119  TRP119      0.0001
    138  CH2       16.6110   36.2090   50.1070 C.ar  119  TRP119      0.0015
    139  N         20.5320   40.9330   49.5450 N.3   122  ILE122     -0.1245
    140  CA        20.4400   41.1170   50.9980 C.3   122  ILE122      0.1561
    141  C         21.2710   42.2970   51.4670 C.2   122  ILE122      0.2260
    142  O         22.3420   42.5550   50.9000 O.2   122  ILE122     -0.2867
    143  CB        20.7780   39.8270   51.8090 C.3   122  ILE122      0.0252
    144  CG1       22.2850   39.5030   51.7780 C.3   122  ILE122      0.0019
    145  CG2       19.9260   38.6450   51.2880 C.3   122  ILE122      0.0019
    146  CD1       22.5960   38.2600   52.7500 C.3   122  ILE122      0.0001
    147  N         31.9340   40.4010   61.2000 N.3   130  ILE130     -0.1245
    148  CA        31.4060   39.2250   60.5220 C.3   130  ILE130      0.1561
    149  C         31.1860   39.4420   59.0010 C.2   130  ILE130      0.2260
    150  O         30.5420   38.6070   58.3530 O.2   130  ILE130     -0.2867
    151  CB        30.1410   38.6740   61.2160 C.3   130  ILE130      0.0252
    152  CG1       29.0090   39.7240   61.1980 C.3   130  ILE130      0.0019
    153  CG2       30.4710   38.1740   62.6620 C.3   130  ILE130      0.0019
    154  CD1       27.6570   39.1330   61.6010 C.3   130  ILE130      0.0001
    155  N         32.2810   39.2780   55.1200 N.3   132  ARG132     -0.1245
    156  CA        33.0820   38.3070   54.3740 C.3   132  ARG132      0.1563
    157  C         33.6990   39.0030   53.1500 C.2   132  ARG132      0.2260
    158  O         33.0490   39.8540   52.5520 O.2   132  ARG132     -0.2867
    159  CB        32.2770   37.0800   53.9620 C.3   132  ARG132      0.0307
    160  CG        31.7450   36.2980   55.1830 C.3   132  ARG132      0.0489
    161  CD        32.8940   35.7780   56.0570 C.3   132  ARG132      0.2205
    162  NE        32.4260   34.8460   57.0850 N.pl3 132  ARG132     -0.0865
    163  CZ        32.1580   33.5610   56.8710 C.cat 132  ARG132      0.5346
    164  NH1       32.2780   33.0420   55.6530 N.pl3 132  ARG132      0.1354
    165  NH2       31.7390   32.7910   57.8660 N.pl3 132  ARG132      0.1354
    166  N         27.6910   40.3160   65.5290 N.3   202  TYR202     -0.1241
    167  CA        26.2510   40.1880   65.3300 C.3   202  TYR202      0.1605
    168  C         25.7000   41.2680   66.2910 C.2   202  TYR202      0.2264
    169  O         26.4680   41.8710   67.0790 O.2   202  TYR202     -0.2867
    170  CB        25.7540   38.8350   65.8800 C.3   202  TYR202      0.0534
    171  CG        26.2490   37.6550   65.1000 C.ar  202  TYR202     -0.0201
    172  CD1       25.5850   37.2280   63.9480 C.ar  202  TYR202     -0.0009
    173  CD2       27.4110   36.9920   65.4730 C.ar  202  TYR202     -0.0009
    174  CE1       26.0840   36.1860   63.1720 C.ar  202  TYR202      0.0417
    175  CE2       27.9070   35.9320   64.7180 C.ar  202  TYR202      0.0417
    176  CZ        27.2350   35.5280   63.5750 C.ar  202  TYR202      0.1957
    177  OH        27.7600   34.5070   62.8220 O.3   202  TYR202     -0.2866
    178  N         18.0530   38.9030   64.8870 N.3   232  ASP232     -0.1225
    179  CA        18.2800   38.6530   63.4610 C.3   232  ASP232      0.1805
    180  C         17.0170   38.6760   62.6210 C.2   232  ASP232      0.2598
    181  O         16.2850   37.6840   62.5670 O.2   232  ASP232     -0.2718
    182  CB        18.9820   37.2880   63.3090 C.3   232  ASP232      0.1424
    183  CG        19.3560   36.9420   61.8650 C.2   232  ASP232      0.3668
    184  OD1       19.2250   37.8310   60.9840 O.co2 232  ASP232     -0.2456
    185  OD2       19.7130   35.7590   61.6000 O.co2 232  ASP232     -0.2456
    186  N         16.8100   39.7900   61.8710 N.am  233  SER233     -0.1938
    187  CA        15.6570   39.8930   60.9760 C.3   233  SER233      0.2055
    188  C         15.7160   38.9120   59.7810 C.2   233  SER233      0.2644
    189  O         14.6910   38.7180   59.1270 O.2   233  SER233     -0.2714
    190  CB        15.5150   41.3270   60.4670 C.3   233  SER233      0.2130
    191  OG        16.6990   41.7010   59.7500 O.3   233  SER233     -0.2179
    192  N         16.9010   38.3370   59.4890 N.am  234  GLY234     -0.1939
    193  CA        17.1230   37.3930   58.3900 C.3   234  GLY234      0.2014
    194  C         16.8810   35.9350   58.7300 C.2   234  GLY234      0.2640
    195  O         17.1560   35.0380   57.9220 O.2   234  GLY234     -0.2714
    196  N         16.3320   35.6940   59.9450 N.am  235  THR235     -0.1936
    197  CA        15.9110   34.3550   60.4120 C.3   235  THR235      0.2028
    198  C         14.4190   34.4750   60.6920 C.2   235  THR235      0.2642
    199  O         13.9830   35.4660   61.2900 O.2   235  THR235     -0.2714
    200  CB        16.6640   33.9690   61.7100 C.3   235  THR235      0.1808
    201  OG1       18.0170   33.6730   61.3780 O.3   235  THR235     -0.2208
    202  CG2       16.0550   32.7560   62.4050 C.3   235  THR235      0.0379
    203  N         13.6370   33.4420   60.3250 N.am  236  THR236     -0.1950
    204  CA        12.1960   33.4930   60.5860 C.3   236  THR236      0.1897
    205  C         11.8620   33.2720   62.0670 C.2   236  THR236      0.2313
    206  O         11.1460   34.0700   62.6870 O.2   236  THR236     -0.2863
    207  CB        11.4910   32.4130   59.7520 C.3   236  THR236      0.1794
    208  OG1       11.7150   32.6830   58.3670 O.3   236  THR236     -0.2208
    209  CG2        9.9880   32.3130   60.0440 C.3   236  THR236      0.0378
    210  N         14.8440   30.8950   67.5450 N.3   239  ARG239     -0.1245
    211  CA        15.6480   29.6600   67.6220 C.3   239  ARG239      0.1563
    212  C         16.3180   29.6290   68.9910 C.2   239  ARG239      0.2260
    213  O         16.8310   30.6420   69.4670 O.2   239  ARG239     -0.2867
    214  CB        16.6670   29.5720   66.4670 C.3   239  ARG239      0.0307
    215  CG        15.9790   29.7030   65.0850 C.3   239  ARG239      0.0489
    216  CD        16.9530   29.5300   63.9360 C.3   239  ARG239      0.2205
    217  NE        17.5040   28.1800   63.9280 N.pl3 239  ARG239     -0.0865
    218  CZ        18.7800   27.8740   63.7100 C.cat 239  ARG239      0.5346
    219  NH1       19.1840   26.6110   63.7790 N.pl3 239  ARG239      0.1354
    220  NH2       19.6730   28.8360   63.4590 N.pl3 239  ARG239      0.1354
@<TRIPOS>BOND
     1   128   127    2
     2   127   126    1
     3   120   119    2
     4   125   126    1
     5   119   118    1
     6   126   129    1
     7   117   118    1
     8   118   121    1
     9    85    84    1
    10    85    86    2
    11   113   115   ar
    12   113   111   ar
    13    97    98    1
    14   129   130    1
    15   115   116   ar
    16    84    87    1
    17    84    83    1
    18    93    95   ar
    19    93    90   ar
    20   110   111    1
    21   110   107    1
    22    95    96   ar
    23   108   107    1
    24   108   109    2
    25    87    88    1
    26   106   107    1
    27   106    99   am
    28   111   112   ar
    29   135   137   ar
    30   135   132   ar
    31    98    99    1
    32    98   101    1
    33   130   132   ar
    34   130   131   ar
    35   137   138   ar
    36   121   123    1
    37   121   122    1
    38   116   114   ar
    39   132   134   ar
    40    90    88   ar
    41    90    92   ar
    42   139   140    1
    43    99   100    2
    44    88    89   ar
    45   102   101    1
    46   102   103    1
    47   112   114   ar
    48    96    94   ar
    49    19    17   am
    50   131   133   ar
    51    18    17    2
    52   138   136   ar
    53   122   124    1
    54   134   133   ar
    55   134   136   ar
    56   105   104    1
    57    17    16    1
    58    50    51    1
    59    92    94   ar
    60    92    91   ar
    61   103   104    1
    62   142   141    2
    63    24    25    1
    64    89    91   ar
    65   140   141    1
    66   140   143    1
    67   145   143    1
    68    75    74    1
    69    16    15    1
    70   144   143    1
    71   144   146    1
    72    53    52    2
    73    51    52    1
    74    51    54    1
    75    15    12    1
    76    56    54    1
    77    52    57   am
    78    25    28    1
    79    25    26    1
    80    73    74   ar
    81    73    71   ar
    82    54    55    1
    83    28    29    1
    84    74    72   ar
    85    14    13    2
    86   158   157    2
    87    57    63    1
    88    57    58    1
    89   157   156    1
    90    63    62    1
    91    58    61    1
    92    58    59    1
    93    12    13    1
    94    12    11    1
    95    61    62    1
    96    27    26    2
    97    13    20   am
    98    71    69   ar
    99    23    22    2
   100    72    70   ar
   101    29    31    1
   102    29    30    1
   103   159   156    1
   104   159   160    1
   105   156   155    1
   106    22    21    1
   107    20    21    1
   108    11     9   am
   109    59    64   am
   110    59    60    2
   111    69    70   ar
   112    69    68    1
   113    64    65    1
   114    10     9    2
   115     9     8    1
   116   160   161    1
   117   164   163    1
   118    68    65    1
   119    67    66    2
   120    65    66    1
   121   161   162    1
   122     8     7    1
   123    49    48    1
   124    66    76   am
   125    39    37   ar
   126    36    37    1
   127    36    33    1
   128    79    78    2
   129    32    33    1
   130    78    77    1
   131   163   162    2
   132   163   165    1
   133     7     3   am
   134    37    38   ar
   135    48    45    1
   136    76    77    1
   137    33    34    1
   138     1     2    1
   139     3     4    2
   140     3     2    1
   141    77    80    1
   142   195   194    2
   143    46    45    1
   144    46    47    2
   145    35    34    2
   146   150   149    2
   147   208   207    1
   148   193   194    1
   149   193   192    1
   150     2     5    1
   151    45    44    1
   152   194   196   am
   153   149   148    1
   154   189   188    2
   155    80    82    1
   156    80    81    1
   157    44    42   am
   158   192   188   am
   159     6     5    1
   160   191   190    1
   161   207   209    1
   162   207   204    1
   163   188   187    1
   164   196   197    1
   165    42    43    2
   166    42    41    1
   167   203   204    1
   168   203   198   am
   169   197   198    1
   170   197   200    1
   171   190   187    1
   172   148   147    1
   173   148   151    1
   174   204   205    1
   175   198   199    2
   176    40    41    1
   177   187   186    1
   178   184   183   ar
   179   152   151    1
   180   152   154    1
   181   151   153    1
   182   201   200    1
   183   185   183   ar
   184   200   202    1
   185   183   182    1
   186   186   180   am
   187   205   206    2
   188   181   180    2
   189   180   179    1
   190   177   176    1
   191   174   176   ar
   192   174   172   ar
   193   182   179    1
   194   220   218    1
   195   179   178    1
   196   176   175   ar
   197   218   219    1
   198   218   217    2
   199   217   216    1
   200   216   215    1
   201   172   171   ar
   202   175   173   ar
   203   215   214    1
   204   171   173   ar
   205   171   170    1
   206   167   166    1
   207   167   170    1
   208   167   168    1
   209   168   169    2
   210   214   211    1
   211   210   211    1
   212   211   212    1
   213   212   213    2
