@<TRIPOS>MOLECULE
tmp/4r92A00.pdb
 197 192 0 0 0
SMALL
GASTEIGER

@<TRIPOS>ATOM
      1  N         26.7200    2.8560   16.9260 N.3    35  LEU35      -0.1245
      2  CA        27.1100    3.3490   18.2580 C.3    35  LEU35       0.1561
      3  C         26.3070    2.6360   19.3420 C.2    35  LEU35       0.2260
      4  O         25.0920    2.5220   19.2310 O.2    35  LEU35      -0.2867
      5  CB        26.8640    4.8690   18.3300 C.3    35  LEU35       0.0270
      6  CG        27.2710    5.5490   19.6450 C.3    35  LEU35       0.0019
      7  CD1       27.9210    6.8870   19.3990 C.3    35  LEU35       0.0001
      8  CD2       26.0890    5.7200   20.5160 C.3    35  LEU35       0.0001
      9  N         24.4830    2.7910   22.6160 N.3    37  ASP37      -0.1239
     10  CA        23.8710    3.8850   23.3960 C.3    37  ASP37       0.1674
     11  C         22.9670    3.3940   24.5110 C.2    37  ASP37       0.2266
     12  O         21.7840    3.1100   24.2930 O.2    37  ASP37      -0.2867
     13  CB        23.1010    4.8370   22.4330 C.3    37  ASP37       0.1410
     14  CG        22.6220    6.1220   23.0710 C.2    37  ASP37       0.3668
     15  OD1       23.0100    6.3950   24.2670 O.co2  37  ASP37      -0.2456
     16  OD2       21.8840    6.8690   22.3940 O.co2  37  ASP37      -0.2456
     17  N         21.8190    5.2330   26.7170 N.3    39  GLY39      -0.1210
     18  CA        21.0040    6.3940   27.0690 C.3    39  GLY39       0.1956
     19  C         19.7780    6.6370   26.2090 C.2    39  GLY39       0.2612
     20  O         19.1760    7.7110   26.2870 O.2    39  GLY39      -0.2717
     21  N         19.4410    5.6810   25.3200 N.am   40  SER40      -0.1952
     22  CA        18.2620    5.8080   24.4510 C.3    40  SER40       0.1924
     23  C         17.7520    4.4120   24.1430 C.2    40  SER40       0.2314
     24  O         18.4010    3.4330   24.5430 O.2    40  SER40      -0.2863
     25  CB        18.5770    6.5790   23.1800 C.3    40  SER40       0.2116
     26  OG        19.4430    5.8580   22.3290 O.3    40  SER40      -0.2180
     27  N         28.5950   13.1820    6.3970 N.3    52  PHE52      -0.1241
     28  CA        29.4530   12.4310    7.3310 C.3    52  PHE52       0.1605
     29  C         29.3580   10.9000    7.1940 C.2    52  PHE52       0.2264
     30  O         30.0090   10.1830    7.9550 O.2    52  PHE52      -0.2867
     31  CB        29.1760   12.8310    8.7970 C.3    52  PHE52       0.0534
     32  CG        29.2760   14.2970    9.1760 C.ar   52  PHE52      -0.0203
     33  CD1       29.9530   15.2040    8.3630 C.ar   52  PHE52      -0.0042
     34  CD2       28.7190   14.7600   10.3590 C.ar   52  PHE52      -0.0042
     35  CE1       30.0340   16.5570    8.7130 C.ar   52  PHE52      -0.0003
     36  CE2       28.8080   16.1080   10.7110 C.ar   52  PHE52      -0.0003
     37  CZ        29.4670   16.9970    9.8880 C.ar   52  PHE52      -0.0000
     38  N         12.4710   12.8530   16.5800 N.3    74  VAL74      -0.1231
     39  CA        13.1400   12.7430   17.8720 C.3    74  VAL74       0.1678
     40  C         14.0400   13.9460   18.1770 C.2    74  VAL74       0.2434
     41  O         15.2510   13.8960   17.9470 O.2    74  VAL74      -0.2733
     42  CB        13.8960   11.3840   18.0100 C.3    74  VAL74       0.0265
     43  CG1       14.4900   11.2050   19.4130 C.3    74  VAL74       0.0020
     44  CG2       12.9670   10.2150   17.6770 C.3    74  VAL74       0.0020
     45  N         13.4580   15.0320   18.7220 N.am   75  PRO75      -0.2718
     46  CA        14.3010   16.1590   19.1460 C.3    75  PRO75       0.1535
     47  C         14.9380   15.8310   20.4990 C.2    75  PRO75       0.2598
     48  O         14.3470   15.1140   21.3180 O.2    75  PRO75      -0.2715
     49  CB        13.3030   17.3300   19.2670 C.3    75  PRO75       0.0310
     50  CG        11.9880   16.6950   19.5610 C.3    75  PRO75       0.0237
     51  CD        12.0290   15.2610   19.0410 C.3    75  PRO75       0.0939
     52  N         16.1500   16.3220   20.7180 N.am   76  TYR76      -0.1974
     53  CA        16.8710   16.1910   21.9920 C.3    76  TYR76       0.1639
     54  C         17.6210   17.5200   22.1830 C.2    76  TYR76       0.2290
     55  O         17.5450   18.3840   21.3010 O.2    76  TYR76      -0.2864
     56  CB        17.7820   14.9250   22.0770 C.3    76  TYR76       0.0560
     57  CG        18.6910   14.7400   20.8880 C.ar   76  TYR76      -0.0198
     58  CD1       19.9390   15.3540   20.8380 C.ar   76  TYR76      -0.0009
     59  CD2       18.2850   13.9930   19.7860 C.ar   76  TYR76      -0.0009
     60  CE1       20.7660   15.2200   19.7280 C.ar   76  TYR76       0.0417
     61  CE2       19.0950   13.8680   18.6640 C.ar   76  TYR76       0.0417
     62  CZ        20.3250   14.5000   18.6320 C.ar   76  TYR76       0.1957
     63  OH        21.0990   14.4090   17.5180 O.3    76  TYR76      -0.2866
     64  N         20.8970   18.6750   22.1520 N.3    78  GLN78      -0.1245
     65  CA        21.8860   19.0260   21.1280 C.3    78  GLN78       0.1566
     66  C         21.3500   19.1320   19.6820 C.2    78  GLN78       0.2260
     67  O         21.9320   19.8590   18.8800 O.2    78  GLN78      -0.2867
     68  CB        23.0810   18.0520   21.1790 C.3    78  GLN78       0.0367
     69  CG        24.1690   18.3860   20.2550 C.3    78  GLN78       0.0905
     70  CD        25.4320   17.5860   20.3530 C.2    78  GLN78       0.2608
     71  OE1       25.5700   16.7020   21.2330 O.2    78  GLN78      -0.2717
     72  NE2       26.2870   17.8370   19.4420 N.am   78  GLN78      -0.0878
     73  N         16.8580   13.8360   15.3190 N.3    81  TRP81      -0.1241
     74  CA        16.8660   12.8260   14.2580 C.3    81  TRP81       0.1605
     75  C         15.4330   12.5330   13.8920 C.2    81  TRP81       0.2264
     76  O         14.5730   12.5100   14.7640 O.2    81  TRP81      -0.2867
     77  CB        17.6890   11.5580   14.5800 C.3    81  TRP81       0.0550
     78  CG        17.1530   10.6300   15.6280 C.ar   81  TRP81       0.0003
     79  CD1       17.5600   10.5480   16.9290 C.ar   81  TRP81       0.0946
     80  CD2       16.2420    9.5420   15.4250 C.ar   81  TRP81       0.0152
     81  NE1       16.9260    9.5120   17.5620 N.ar   81  TRP81      -0.2442
     82  CE2       16.1050    8.8750   16.6640 C.ar   81  TRP81       0.0810
     83  CE3       15.4850    9.0960   14.3250 C.ar   81  TRP81       0.0012
     84  CZ2       15.2640    7.7660   16.8320 C.ar   81  TRP81       0.0191
     85  CZ3       14.6170    8.0270   14.5050 C.ar   81  TRP81       0.0001
     86  CH2       14.4880    7.3930   15.7470 C.ar   81  TRP81       0.0015
     87  N         22.9280   17.7050   14.1520 N.3   112  LYS112     -0.1231
     88  CA        23.8290   17.4370   15.2860 C.3   112  LYS112      0.1693
     89  C         23.5660   16.0350   15.8620 C.2   112  LYS112      0.2592
     90  O         23.3610   15.8490   17.0610 O.2   112  LYS112     -0.2718
     91  CB        23.7580   18.5720   16.3310 C.3   112  LYS112      0.0285
     92  CG        24.3400   19.8910   15.7800 C.3   112  LYS112      0.0035
     93  CD        24.2540   21.0560   16.7650 C.3   112  LYS112      0.0206
     94  CE        23.0260   21.9280   16.5770 C.3   112  LYS112      0.1093
     95  NZ        23.0440   22.6720   15.2860 N.3   112  LYS112     -0.1314
     96  N         23.5220   15.0450   14.9500 N.am  113  PHE113     -0.1962
     97  CA        23.3120   13.6530   15.3250 C.3   113  PHE113      0.1771
     98  C         24.5700   12.8810   14.9550 C.2   113  PHE113      0.2620
     99  O         25.2800   12.3860   15.8480 O.2   113  PHE113     -0.2715
    100  CB        22.0330   13.0880   14.6520 C.3   113  PHE113      0.0574
    101  CG        21.7530   11.6570   15.0410 C.ar  113  PHE113     -0.0200
    102  CD1       21.1980   11.3520   16.2800 C.ar  113  PHE113     -0.0042
    103  CD2       22.1090   10.6110   14.1990 C.ar  113  PHE113     -0.0042
    104  CE1       20.9760   10.0260   16.6580 C.ar  113  PHE113     -0.0003
    105  CE2       21.8870    9.2800   14.5780 C.ar  113  PHE113     -0.0003
    106  CZ        21.2990    9.0010   15.7880 C.ar  113  PHE113     -0.0000
    107  N         24.8840   12.8170   13.6460 N.am  114  PHE114     -0.1960
    108  CA        26.0950   12.1550   13.1750 C.3   114  PHE114      0.1771
    109  C         27.3230   12.9900   13.5320 C.2   114  PHE114      0.2619
    110  O         27.2270   14.2130   13.6650 O.2   114  PHE114     -0.2715
    111  CB        26.0300   11.8690   11.6670 C.3   114  PHE114      0.0574
    112  CG        24.8690   10.9630   11.3010 C.ar  114  PHE114     -0.0200
    113  CD1       24.8400    9.6390   11.7240 C.ar  114  PHE114     -0.0042
    114  CD2       23.7840   11.4520   10.5740 C.ar  114  PHE114     -0.0042
    115  CE1       23.7570    8.8060   11.3970 C.ar  114  PHE114     -0.0003
    116  CE2       22.6970   10.6170   10.2570 C.ar  114  PHE114     -0.0003
    117  CZ        22.6900    9.3070   10.6760 C.ar  114  PHE114     -0.0000
    118  N         28.4620   12.3180   13.7000 N.am  115  ILE115     -0.1977
    119  CA        29.7270   12.9630   14.0760 C.3   115  ILE115      0.1596
    120  C         30.7260   12.7260   12.9680 C.2   115  ILE115      0.2287
    121  O         31.0120   11.5760   12.6280 O.2   115  ILE115     -0.2864
    122  CB        30.2470   12.4620   15.4610 C.3   115  ILE115      0.0276
    123  CG1       29.2340   12.7730   16.6030 C.3   115  ILE115      0.0022
    124  CG2       31.6480   13.0690   15.7720 C.3   115  ILE115      0.0022
    125  CD1       29.5130   12.1450   17.9640 C.3   115  ILE115      0.0001
    126  N         30.7170    5.5870   12.5280 N.3   120  TRP120     -0.1241
    127  CA        29.4330    4.9060   12.7760 C.3   120  TRP120      0.1605
    128  C         28.3210    5.5660   11.9730 C.2   120  TRP120      0.2264
    129  O         28.4040    6.7670   11.6750 O.2   120  TRP120     -0.2867
    130  CB        29.0710    4.7260   14.2630 C.3   120  TRP120      0.0550
    131  CG        29.0780    5.9860   15.0720 C.ar  120  TRP120      0.0003
    132  CD1       30.0780    6.4070   15.9000 C.ar  120  TRP120      0.0946
    133  CD2       28.0080    6.9320   15.2200 C.ar  120  TRP120      0.0152
    134  NE1       29.7220    7.5840   16.5080 N.ar  120  TRP120     -0.2442
    135  CE2       28.4520    7.9250   16.1200 C.ar  120  TRP120      0.0810
    136  CE3       26.7290    7.0660   14.6430 C.ar  120  TRP120      0.0012
    137  CZ2       27.6640    9.0370   16.4650 C.ar  120  TRP120      0.0191
    138  CZ3       25.9330    8.1370   15.0230 C.ar  120  TRP120      0.0001
    139  CH2       26.4140    9.1300   15.8900 C.ar  120  TRP120      0.0015
    140  N         22.7230    4.2440   15.6080 N.3   123  ILE123     -0.1245
    141  CA        22.8310    4.0280   17.0650 C.3   123  ILE123      0.1561
    142  C         21.9700    2.8840   17.5010 C.2   123  ILE123      0.2260
    143  O         20.8950    2.6490   16.9180 O.2   123  ILE123     -0.2867
    144  CB        22.5460    5.3160   17.9040 C.3   123  ILE123      0.0252
    145  CG1       21.0280    5.6950   17.9100 C.3   123  ILE123      0.0019
    146  CG2       23.4260    6.4840   17.4250 C.3   123  ILE123      0.0019
    147  CD1       20.6750    6.9110   18.8690 C.3   123  ILE123      0.0001
    148  N         11.2460    4.9500   27.1150 N.3   131  ILE131     -0.1245
    149  CA        11.8060    6.1130   26.4300 C.3   131  ILE131      0.1561
    150  C         12.0250    5.8670   24.9230 C.2   131  ILE131      0.2260
    151  O         12.6760    6.6840   24.2490 O.2   131  ILE131     -0.2867
    152  CB        13.0770    6.6330   27.1470 C.3   131  ILE131      0.0252
    153  CG1       14.1800    5.5560   27.1680 C.3   131  ILE131      0.0019
    154  CG2       12.7260    7.1220   28.5730 C.3   131  ILE131      0.0019
    155  CD1       15.5540    6.0950   27.5220 C.3   131  ILE131      0.0001
    156  N         10.9130    5.9780   21.0480 N.3   133  ARG133     -0.1245
    157  CA        10.1270    6.9460   20.2850 C.3   133  ARG133      0.1563
    158  C          9.5190    6.2200   19.0870 C.2   133  ARG133      0.2260
    159  O         10.1760    5.3480   18.5210 O.2   133  ARG133     -0.2867
    160  CB        11.0030    8.1230   19.8280 C.3   133  ARG133      0.0307
    161  CG        11.5480    8.9890   20.9910 C.3   133  ARG133      0.0489
    162  CD        10.4270    9.7510   21.6720 C.3   133  ARG133      0.2205
    163  NE        10.8170   10.3760   22.9350 N.pl3 133  ARG133     -0.0865
    164  CZ        11.1290   11.6590   23.0770 C.cat 133  ARG133      0.5346
    165  NH1       11.4360   12.1440   24.2730 N.pl3 133  ARG133      0.1354
    166  NH2       11.1420   12.4700   22.0200 N.pl3 133  ARG133      0.1354
    167  N         15.5110    4.9470   31.5670 N.3   203  TYR203     -0.1241
    168  CA        16.9450    5.0550   31.3470 C.3   203  TYR203      0.1605
    169  C         17.4790    4.0030   32.2980 C.2   203  TYR203      0.2264
    170  O         16.7030    3.4200   33.0690 O.2   203  TYR203     -0.2867
    171  CB        17.4580    6.4360   31.8360 C.3   203  TYR203      0.0534
    172  CG        16.9560    7.5900   31.0220 C.ar  203  TYR203     -0.0201
    173  CD1       17.6370    8.0150   29.8790 C.ar  203  TYR203     -0.0009
    174  CD2       15.8120    8.2910   31.4000 C.ar  203  TYR203     -0.0009
    175  CE1       17.1460    9.0620   29.0980 C.ar  203  TYR203      0.0417
    176  CE2       15.3260    9.3460   30.6360 C.ar  203  TYR203      0.0417
    177  CZ        15.9950    9.7280   29.4870 C.ar  203  TYR203      0.1957
    178  OH        15.5160   10.7760   28.7450 O.3   203  TYR203     -0.2866
    179  N         25.0860    6.3270   30.8990 N.3   233  ASP233     -0.1239
    180  CA        24.8880    6.6150   29.4800 C.3   233  ASP233      0.1674
    181  C         26.1640    6.5840   28.6210 C.2   233  ASP233      0.2266
    182  O         26.9120    7.5740   28.5590 O.2   233  ASP233     -0.2867
    183  CB        24.1560    7.9780   29.3170 C.3   233  ASP233      0.1410
    184  CG        23.8260    8.3530   27.8630 C.2   233  ASP233      0.3668
    185  OD1       23.9700    7.4750   26.9610 O.co2 233  ASP233     -0.2456
    186  OD2       23.4310    9.5180   27.6210 O.co2 233  ASP233     -0.2456
    187  N         26.2660    6.9510   25.4820 N.3   235  GLY235     -0.1210
    188  CA        26.0550    7.9060   24.3960 C.3   235  GLY235      0.1956
    189  C         26.3500    9.3560   24.7700 C.2   235  GLY235      0.2612
    190  O         26.1470   10.2550   23.9570 O.2   235  GLY235     -0.2717
    191  N         26.8300    9.5810   26.0250 N.am  236  THR236     -0.1952
    192  CA        27.2860   10.8850   26.5320 C.3   236  THR236      0.1897
    193  C         28.7850   10.7200   26.8120 C.2   236  THR236      0.2313
    194  O         29.2020    9.6920   27.3480 O.2   236  THR236     -0.2863
    195  CB        26.5560   11.2450   27.8540 C.3   236  THR236      0.1794
    196  OG1       25.1940   11.5640   27.5590 O.3   236  THR236     -0.2208
    197  CG2       27.2010   12.4380   28.5780 C.3   236  THR236      0.0378
@<TRIPOS>BOND
     1    27    28    1
     2    29    28    1
     3    29    30    2
     4    28    31    1
     5    33    35   ar
     6    33    32   ar
     7    35    37   ar
     8    31    32    1
     9    32    34   ar
    10    37    36   ar
    11   116   114   ar
    12   116   117   ar
    13    34    36   ar
    14   114   112   ar
    15   117   115   ar
    16   112   111    1
    17   112   113   ar
    18   115   113   ar
    19   111   108    1
    20   129   128    2
    21   128   127    1
    22   126   127    1
    23   121   120    2
    24   127   130    1
    25   120   119    1
    26   108   109    1
    27   108   107    1
    28   109   110    2
    29   109   118   am
    30   107    98   am
    31   118   119    1
    32    75    74    1
    33    75    76    2
    34   119   122    1
    35    87    88    1
    36   103   105   ar
    37   103   101   ar
    38    74    77    1
    39    74    73    1
    40   130   131    1
    41    83    85   ar
    42    83    80   ar
    43    85    86   ar
    44   105   106   ar
    45    77    78    1
    46   136   138   ar
    47   136   133   ar
    48   100   101    1
    49   100    97    1
    50    96    97    1
    51    96    89   am
    52    98    97    1
    53    98    99    2
    54   138   139   ar
    55   101   102   ar
    56   131   133   ar
    57   131   132   ar
    58   133   135   ar
    59    88    89    1
    60    88    91    1
    61    95    94    1
    62    80    78   ar
    63    80    82   ar
    64   122   124    1
    65   122   123    1
    66   140   141    1
    67    78    79   ar
    68    86    84   ar
    69    92    91    1
    70    92    93    1
    71   106   104   ar
    72    89    90    2
    73   139   137   ar
    74   132   134   ar
    75   135   137   ar
    76   135   134   ar
    77   102   104   ar
    78    94    93    1
    79    38    39    1
    80   123   125    1
    81    82    84   ar
    82    82    81   ar
    83   143   142    2
    84     1     2    1
    85    79    81   ar
    86   141   142    1
    87   141   144    1
    88   146   144    1
    89    63    62    1
    90    44    42    1
    91    39    42    1
    92    39    40    1
    93   144   145    1
    94   145   147    1
    95    41    40    2
    96    42    43    1
    97    40    45   am
    98     2     5    1
    99     2     3    1
   100     5     6    1
   101   159   158    2
   102    62    61   ar
   103    62    60   ar
   104    61    59   ar
   105    45    51    1
   106    45    46    1
   107    67    66    2
   108    51    50    1
   109   158   157    1
   110    46    49    1
   111    46    47    1
   112     4     3    2
   113    49    50    1
   114     7     6    1
   115    72    70   am
   116     6     8    1
   117    66    65    1
   118    60    58   ar
   119    59    57   ar
   120   160   157    1
   121   160   161    1
   122    69    70    1
   123    69    68    1
   124   157   156    1
   125    70    71    2
   126    47    52   am
   127    47    48    2
   128    52    53    1
   129    58    57   ar
   130    57    56    1
   131   161   162    1
   132    65    68    1
   133    65    64    1
   134    55    54    2
   135   162   163    1
   136    53    56    1
   137    53    54    1
   138   166   164    1
   139    26    25    1
   140    16    14   ar
   141    13    14    1
   142    13    10    1
   143     9    10    1
   144   163   164    2
   145    14    15   ar
   146   164   165    1
   147    25    22    1
   148    10    11    1
   149   190   189    2
   150    23    22    1
   151    23    24    2
   152   151   150    2
   153    12    11    2
   154   188   189    1
   155   188   187    1
   156    22    21    1
   157   189   191   am
   158   150   149    1
   159    21    19   am
   160   191   192    1
   161    19    20    2
   162    19    18    1
   163   149   148    1
   164   149   152    1
   165   192   193    1
   166   192   195    1
   167    17    18    1
   168   193   194    2
   169   185   184   ar
   170   152   153    1
   171   152   154    1
   172   153   155    1
   173   196   195    1
   174   186   184   ar
   175   195   197    1
   176   184   183    1
   177   182   181    2
   178   181   180    1
   179   178   177    1
   180   175   177   ar
   181   175   173   ar
   182   183   180    1
   183   180   179    1
   184   177   176   ar
   185   173   172   ar
   186   176   174   ar
   187   172   174   ar
   188   172   171    1
   189   168   167    1
   190   168   171    1
   191   168   169    1
   192   169   170    2
