@<TRIPOS>MOLECULE
tmp/4r93B02.pdb
 215 210 0 0 0
SMALL
GASTEIGER

@<TRIPOS>ATOM
      1  N         16.4950   42.4260   51.0530 N.3    34  LEU34      -0.1245
      2  CA        16.0920   41.9170   52.3720 C.3    34  LEU34       0.1561
      3  C         16.9290   42.6010   53.4710 C.2    34  LEU34       0.2260
      4  O         18.1450   42.6900   53.3480 O.2    34  LEU34      -0.2867
      5  CB        16.3090   40.3970   52.3800 C.3    34  LEU34       0.0270
      6  CG        15.9710   39.6780   53.6810 C.3    34  LEU34       0.0019
      7  CD1       15.4840   38.2590   53.4260 C.3    34  LEU34       0.0001
      8  CD2       17.1540   39.6600   54.6220 C.3    34  LEU34       0.0001
      9  N         18.7550   42.4620   56.7620 N.3    36  ASP36      -0.1239
     10  CA        19.3530   41.3840   57.5400 C.3    36  ASP36       0.1674
     11  C         20.2520   41.8570   58.6690 C.2    36  ASP36       0.2266
     12  O         21.4380   42.1110   58.4680 O.2    36  ASP36      -0.2867
     13  CB        20.1030   40.4140   56.5970 C.3    36  ASP36       0.1410
     14  CG        20.6200   39.1510   57.2620 C.2    36  ASP36       0.3668
     15  OD1       20.2440   38.8920   58.4390 O.co2  36  ASP36      -0.2456
     16  OD2       21.3770   38.4090   56.6090 O.co2  36  ASP36      -0.2456
     17  N         21.4070   39.9930   60.8560 N.3    38  GLY38      -0.1210
     18  CA        22.2230   38.8430   61.2200 C.3    38  GLY38       0.1956
     19  C         23.4410   38.5930   60.3570 C.2    38  GLY38       0.2612
     20  O         24.0130   37.5020   60.4250 O.2    38  GLY38      -0.2717
     21  N         23.7910   39.5580   59.4760 N.am   39  SER39      -0.1952
     22  CA        24.9740   39.4300   58.6070 C.3    39  SER39       0.1924
     23  C         25.5000   40.8240   58.3050 C.2    39  SER39       0.2314
     24  O         24.8480   41.8090   58.6860 O.2    39  SER39      -0.2863
     25  CB        24.6580   38.6700   57.3310 C.3    39  SER39       0.2116
     26  OG        23.8200   39.4380   56.4880 O.3    39  SER39      -0.2180
     27  N         14.5820   32.1310   40.3900 N.3    51  PHE51      -0.1241
     28  CA        13.7030   32.8970   41.2850 C.3    51  PHE51       0.1605
     29  C         13.8180   34.4170   41.1450 C.2    51  PHE51       0.2264
     30  O         13.1100   35.1430   41.8460 O.2    51  PHE51      -0.2867
     31  CB        13.9080   32.4760   42.7580 C.3    51  PHE51       0.0534
     32  CG        13.7840   31.0060   43.0870 C.ar   51  PHE51      -0.0203
     33  CD1       13.0930   30.1360   42.2430 C.ar   51  PHE51      -0.0042
     34  CD2       14.3380   30.4910   44.2570 C.ar   51  PHE51      -0.0042
     35  CE1       12.9840   28.7730   42.5540 C.ar   51  PHE51      -0.0003
     36  CE2       14.2290   29.1270   44.5610 C.ar   51  PHE51      -0.0003
     37  CZ        13.5540   28.2830   43.7090 C.ar   51  PHE51      -0.0000
     38  N         30.6650   32.3030   50.6900 N.3    73  VAL73      -0.1231
     39  CA        30.0050   32.3180   51.9840 C.3    73  VAL73       0.1678
     40  C         29.1130   31.1030   52.2320 C.2    73  VAL73       0.2434
     41  O         27.9110   31.1590   51.9810 O.2    73  VAL73      -0.2733
     42  CB        29.2410   33.6400   52.2210 C.3    73  VAL73       0.0265
     43  CG1       28.6000   33.6780   53.6220 C.3    73  VAL73       0.0020
     44  CG2       30.1630   34.8300   52.0140 C.3    73  VAL73       0.0020
     45  N         29.6850   30.0060   52.7620 N.am   74  PRO74      -0.2718
     46  CA        28.8240   28.8740   53.1630 C.3    74  PRO74       0.1535
     47  C         28.1930   29.2470   54.5180 C.2    74  PRO74       0.2599
     48  O         28.8500   29.8980   55.3420 O.2    74  PRO74      -0.2715
     49  CB        29.8040   27.6870   53.2530 C.3    74  PRO74       0.0310
     50  CG        31.1610   28.3030   53.4770 C.3    74  PRO74       0.0237
     51  CD        31.1120   29.7690   53.0870 C.3    74  PRO74       0.0939
     52  N         26.9030   28.9480   54.7280 N.am   75  TYR75      -0.1960
     53  CA        26.2280   29.2630   56.0110 C.3    75  TYR75       0.1771
     54  C         25.4340   28.0330   56.4360 C.2    75  TYR75       0.2620
     55  O         25.6550   26.9710   55.8330 O.2    75  TYR75      -0.2715
     56  CB        25.4020   30.5840   55.9950 C.3    75  TYR75       0.0574
     57  CG        24.4230   30.6820   54.8460 C.ar   75  TYR75      -0.0198
     58  CD1       23.1350   30.1580   54.9540 C.ar   75  TYR75      -0.0009
     59  CD2       24.8040   31.2380   53.6260 C.ar   75  TYR75      -0.0009
     60  CE1       22.2510   30.1880   53.8790 C.ar   75  TYR75       0.0417
     61  CE2       23.9410   31.2460   52.5380 C.ar   75  TYR75       0.0417
     62  CZ        22.6640   30.7270   52.6690 C.ar   75  TYR75       0.1957
     63  OH        21.8290   30.7370   51.5920 O.3    75  TYR75      -0.2866
     64  N         24.5810   28.1280   57.4890 N.am   76  THR76      -0.1937
     65  CA        23.8250   26.9610   57.9940 C.3    76  THR76       0.2028
     66  C         23.2030   26.1060   56.8610 C.2    76  THR76       0.2642
     67  O         23.7510   25.0650   56.5110 O.2    76  THR76      -0.2714
     68  CB        22.7900   27.3750   59.0690 C.3    76  THR76       0.1808
     69  OG1       23.4990   27.9530   60.1700 O.3    76  THR76      -0.2208
     70  CG2       21.9370   26.1950   59.5780 C.3    76  THR76       0.0379
     71  N         22.0860   26.5180   56.3070 N.am   77  GLN77      -0.1976
     72  CA        21.4870   25.6380   55.3290 C.3    77  GLN77       0.1601
     73  C         21.6530   26.1240   53.8920 C.2    77  GLN77       0.2287
     74  O         20.7520   25.9250   53.0950 O.2    77  GLN77      -0.2864
     75  CB        20.0150   25.3730   55.6950 C.3    77  GLN77       0.0394
     76  CG        19.8970   24.5480   56.9620 C.3    77  GLN77       0.0908
     77  CD        20.3950   23.1270   56.7810 C.2    77  GLN77       0.2608
     78  OE1       20.2580   22.5350   55.7030 O.2    77  GLN77      -0.2717
     79  NE2       20.9410   22.5770   57.8000 N.am   77  GLN77      -0.0878
     80  N         26.2690   31.3200   49.4080 N.3    80  TRP80      -0.1241
     81  CA        26.2420   32.3500   48.3620 C.3    80  TRP80       0.1605
     82  C         27.6780   32.6110   47.9880 C.2    80  TRP80       0.2264
     83  O         28.5700   32.5390   48.8440 O.2    80  TRP80      -0.2867
     84  CB        25.4630   33.6260   48.6990 C.3    80  TRP80       0.0550
     85  CG        26.0150   34.5160   49.7610 C.ar   80  TRP80       0.0003
     86  CD1       25.5650   34.6150   51.0450 C.ar   80  TRP80       0.0946
     87  CD2       26.9480   35.5950   49.5790 C.ar   80  TRP80       0.0152
     88  NE1       26.2290   35.6130   51.7050 N.ar   80  TRP80      -0.2442
     89  CE2       27.0640   36.2590   50.8160 C.ar   80  TRP80       0.0810
     90  CE3       27.7070   36.0560   48.4850 C.ar   80  TRP80       0.0012
     91  CZ2       27.9350   37.3340   51.0130 C.ar   80  TRP80       0.0191
     92  CZ3       28.5680   37.1210   48.6750 C.ar   80  TRP80       0.0001
     93  CH2       28.7030   37.7370   49.9320 C.ar   80  TRP80       0.0015
     94  N         20.2300   27.4510   48.0430 N.3   111  LYS111     -0.1231
     95  CA        19.2560   27.7470   49.1140 C.3   111  LYS111      0.1693
     96  C         19.4820   29.1400   49.7370 C.2   111  LYS111      0.2592
     97  O         19.5310   29.3150   50.9730 O.2   111  LYS111     -0.2718
     98  CB        19.2220   26.6100   50.1660 C.3   111  LYS111      0.0285
     99  CG        18.6780   25.2980   49.5820 C.3   111  LYS111      0.0035
    100  CD        18.5440   24.1780   50.6460 C.3   111  LYS111      0.0206
    101  CE        19.8460   23.4890   51.0070 C.3   111  LYS111      0.1093
    102  NZ        20.4980   22.8230   49.8400 N.3   111  LYS111     -0.1314
    103  N         19.6210   30.1500   48.8400 N.am  112  PHE112     -0.1962
    104  CA        19.7960   31.5480   49.2280 C.3   112  PHE112      0.1771
    105  C         18.5570   32.3460   48.8030 C.2   112  PHE112      0.2620
    106  O         17.8070   32.8420   49.6610 O.2   112  PHE112     -0.2715
    107  CB        21.0980   32.1360   48.6360 C.3   112  PHE112      0.0574
    108  CG        21.3270   33.5760   49.0330 C.ar  112  PHE112     -0.0200
    109  CD1       21.8590   33.8960   50.2860 C.ar  112  PHE112     -0.0042
    110  CD2       21.0520   34.6170   48.1420 C.ar  112  PHE112     -0.0042
    111  CE1       22.1240   35.2250   50.6320 C.ar  112  PHE112     -0.0003
    112  CE2       21.2700   35.9570   48.5160 C.ar  112  PHE112     -0.0003
    113  CZ        21.8330   36.2480   49.7420 C.ar  112  PHE112     -0.0000
    114  N         18.3170   32.4570   47.4760 N.am  113  PHE113     -0.1960
    115  CA        17.1110   33.1170   46.9940 C.3   113  PHE113      0.1771
    116  C         15.8670   32.2960   47.3470 C.2   113  PHE113      0.2619
    117  O         15.9470   31.0700   47.4310 O.2   113  PHE113     -0.2715
    118  CB        17.2040   33.3350   45.4820 C.3   113  PHE113      0.0574
    119  CG        18.3700   34.2380   45.1680 C.ar  113  PHE113     -0.0200
    120  CD1       18.4090   35.5410   45.6510 C.ar  113  PHE113     -0.0042
    121  CD2       19.4520   33.7730   44.4300 C.ar  113  PHE113     -0.0042
    122  CE1       19.4920   36.3790   45.3630 C.ar  113  PHE113     -0.0003
    123  CE2       20.5260   34.6180   44.1320 C.ar  113  PHE113     -0.0003
    124  CZ        20.5590   35.8990   44.6390 C.ar  113  PHE113     -0.0000
    125  N         14.7510   32.9890   47.5920 N.am  114  ILE114     -0.1977
    126  CA        13.4750   32.3480   47.9810 C.3   114  ILE114      0.1596
    127  C         12.4630   32.5920   46.8880 C.2   114  ILE114      0.2287
    128  O         12.1920   33.7430   46.5480 O.2   114  ILE114     -0.2864
    129  CB        12.9980   32.8570   49.3600 C.3   114  ILE114      0.0276
    130  CG1       14.0130   32.4620   50.4830 C.3   114  ILE114      0.0022
    131  CG2       11.5740   32.3390   49.6930 C.3   114  ILE114      0.0022
    132  CD1       13.7850   33.2010   51.8480 C.3   114  ILE114      0.0001
    133  N         12.5280   39.6860   46.5320 N.3   119  TRP119     -0.1241
    134  CA        13.7850   40.4090   46.7870 C.3   119  TRP119      0.1605
    135  C         14.9130   39.7760   45.9820 C.2   119  TRP119      0.2264
    136  O         14.8520   38.5970   45.6410 O.2   119  TRP119     -0.2867
    137  CB        14.1440   40.5340   48.2890 C.3   119  TRP119      0.0550
    138  CG        14.1850   39.2450   49.0600 C.ar  119  TRP119      0.0003
    139  CD1       13.2190   38.7850   49.9150 C.ar  119  TRP119      0.0946
    140  CD2       15.2820   38.3240   49.1620 C.ar  119  TRP119      0.0152
    141  NE1       13.6350   37.6240   50.5160 N.ar  119  TRP119     -0.2442
    142  CE2       14.9030   37.3210   50.0840 C.ar  119  TRP119      0.0810
    143  CE3       16.5500   38.2320   48.5560 C.ar  119  TRP119      0.0012
    144  CZ2       15.7310   36.2340   50.3930 C.ar  119  TRP119      0.0191
    145  CZ3       17.3840   37.1850   48.8970 C.ar  119  TRP119      0.0001
    146  CH2       16.9760   36.1910   49.7940 C.ar  119  TRP119      0.0015
    147  N         20.5030   40.9580   49.7510 N.3   122  ILE122     -0.1245
    148  CA        20.3710   41.1710   51.1960 C.3   122  ILE122      0.1561
    149  C         21.2360   42.3330   51.6340 C.2   122  ILE122      0.2260
    150  O         22.3000   42.5540   51.0380 O.2   122  ILE122     -0.2867
    151  CB        20.6750   39.8910   52.0480 C.3   122  ILE122      0.0252
    152  CG1       22.1610   39.4940   52.0040 C.3   122  ILE122      0.0019
    153  CG2       19.7810   38.7020   51.5920 C.3   122  ILE122      0.0019
    154  CD1       22.4800   38.2780   52.9930 C.3   122  ILE122      0.0001
    155  N         32.0070   40.2960   61.2780 N.3   130  ILE130     -0.1245
    156  CA        31.4490   39.1250   60.6060 C.3   130  ILE130      0.1561
    157  C         31.2170   39.3470   59.1050 C.2   130  ILE130      0.2260
    158  O         30.5790   38.5060   58.4500 O.2   130  ILE130     -0.2867
    159  CB        30.1870   38.5960   61.3120 C.3   130  ILE130      0.0252
    160  CG1       29.0590   39.6440   61.2760 C.3   130  ILE130      0.0019
    161  CG2       30.5410   38.1380   62.7610 C.3   130  ILE130      0.0019
    162  CD1       27.6780   39.1210   61.6570 C.3   130  ILE130      0.0001
    163  N         32.3200   39.2000   55.2190 N.3   132  ARG132     -0.1245
    164  CA        33.1200   38.2370   54.4490 C.3   132  ARG132      0.1563
    165  C         33.7140   38.9460   53.2280 C.2   132  ARG132      0.2260
    166  O         33.0700   39.8090   52.6390 O.2   132  ARG132     -0.2867
    167  CB        32.2610   37.0530   54.0100 C.3   132  ARG132      0.0307
    168  CG        31.6530   36.2890   55.2290 C.3   132  ARG132      0.0489
    169  CD        32.7640   35.7060   56.1080 C.3   132  ARG132      0.2205
    170  NE        32.2750   34.7040   57.0620 N.pl3 132  ARG132     -0.0865
    171  CZ        32.0380   33.4310   56.7600 C.cat 132  ARG132      0.5346
    172  NH1       32.1940   32.9970   55.5120 N.pl3 132  ARG132      0.1354
    173  NH2       31.6080   32.5910   57.6940 N.pl3 132  ARG132      0.1354
    174  N         27.7310   40.2560   65.6750 N.3   202  TYR202     -0.1241
    175  CA        26.3040   40.1300   65.4810 C.3   202  TYR202      0.1605
    176  C         25.7540   41.1900   66.4410 C.2   202  TYR202      0.2264
    177  O         26.5200   41.7790   67.2140 O.2   202  TYR202     -0.2867
    178  CB        25.7960   38.7630   65.9810 C.3   202  TYR202      0.0534
    179  CG        26.2910   37.6070   65.1650 C.ar  202  TYR202     -0.0201
    180  CD1       25.6170   37.2040   64.0100 C.ar  202  TYR202     -0.0009
    181  CD2       27.4510   36.9270   65.5180 C.ar  202  TYR202     -0.0009
    182  CE1       26.1080   36.1690   63.2120 C.ar  202  TYR202      0.0417
    183  CE2       27.9520   35.8950   64.7260 C.ar  202  TYR202      0.0417
    184  CZ        27.2790   35.5220   63.5790 C.ar  202  TYR202      0.1957
    185  OH        27.7840   34.4860   62.8350 O.3   202  TYR202     -0.2866
    186  N         18.0830   38.8940   65.0330 N.3   232  ASP232     -0.1239
    187  CA        18.2920   38.6430   63.6070 C.3   232  ASP232      0.1674
    188  C         17.0310   38.6900   62.7530 C.2   232  ASP232      0.2266
    189  O         16.2750   37.7180   62.7140 O.2   232  ASP232     -0.2867
    190  CB        18.9830   37.2710   63.4480 C.3   232  ASP232      0.1410
    191  CG        19.3720   36.9270   62.0080 C.2   232  ASP232      0.3668
    192  OD1       19.2520   37.8180   61.1240 O.co2 232  ASP232     -0.2456
    193  OD2       19.7170   35.7560   61.7530 O.co2 232  ASP232     -0.2456
    194  N         16.9700   38.4010   59.6230 N.3   234  GLY234     -0.1210
    195  CA        17.2210   37.4310   58.5540 C.3   234  GLY234      0.1956
    196  C         16.9220   35.9840   58.9180 C.2   234  GLY234      0.2612
    197  O         17.1310   35.0760   58.1010 O.2   234  GLY234     -0.2717
    198  N         16.4080   35.7530   60.1540 N.am  235  THR235     -0.1952
    199  CA        15.9780   34.4100   60.6030 C.3   235  THR235      0.1897
    200  C         14.4830   34.5120   60.8530 C.2   235  THR235      0.2313
    201  O         14.0140   35.5060   61.4330 O.2   235  THR235     -0.2863
    202  CB        16.7000   34.0140   61.9150 C.3   235  THR235      0.1794
    203  OG1       18.0490   33.7130   61.5950 O.3   235  THR235     -0.2208
    204  CG2       16.0760   32.7610   62.6140 C.3   235  THR235      0.0378
    205  N         14.8670   30.8280   67.6320 N.3   239  ARG239     -0.1245
    206  CA        15.6770   29.5890   67.6960 C.3   239  ARG239      0.1563
    207  C         16.3530   29.5490   69.0580 C.2   239  ARG239      0.2260
    208  O         16.8360   30.5670   69.5500 O.2   239  ARG239     -0.2867
    209  CB        16.7060   29.5400   66.5580 C.3   239  ARG239      0.0307
    210  CG        16.0110   29.6600   65.1830 C.3   239  ARG239      0.0489
    211  CD        16.9670   29.5140   64.0010 C.3   239  ARG239      0.2205
    212  NE        17.5430   28.1640   63.9680 N.pl3 239  ARG239     -0.0865
    213  CZ        18.8350   27.8920   63.8390 C.cat 239  ARG239      0.5346
    214  NH1       19.2600   26.6400   63.8990 N.pl3 239  ARG239      0.1354
    215  NH2       19.7180   28.8750   63.6740 N.pl3 239  ARG239      0.1354
@<TRIPOS>BOND
     1    27    28    1
     2    29    28    1
     3    29    30    2
     4    28    31    1
     5    33    35   ar
     6    33    32   ar
     7    35    37   ar
     8    31    32    1
     9    32    34   ar
    10    37    36   ar
    11   123   121   ar
    12   123   124   ar
    13    34    36   ar
    14   121   119   ar
    15   124   122   ar
    16   119   118    1
    17   119   120   ar
    18   122   120   ar
    19   118   115    1
    20   136   135    2
    21   135   134    1
    22   133   134    1
    23   128   127    2
    24   134   137    1
    25   127   126    1
    26   115   116    1
    27   115   114    1
    28   116   117    2
    29   116   125   am
    30   114   105   am
    31   125   126    1
    32   126   129    1
    33    82    81    1
    34    82    83    2
    35    94    95    1
    36   110   112   ar
    37   110   108   ar
    38   137   138    1
    39    81    84    1
    40    81    80    1
    41    90    92   ar
    42    90    87   ar
    43   112   113   ar
    44   143   145   ar
    45   143   140   ar
    46   107   108    1
    47   107   104    1
    48    92    93   ar
    49    84    85    1
    50   105   104    1
    51   105   106    2
    52   103   104    1
    53   103    96   am
    54   145   146   ar
    55   108   109   ar
    56   138   140   ar
    57   138   139   ar
    58    95    96    1
    59    95    98    1
    60   140   142   ar
    61   129   131    1
    62   129   130    1
    63    87    85   ar
    64    87    89   ar
    65    99    98    1
    66    99   100    1
    67    96    97    2
    68   113   111   ar
    69   147   148    1
    70    85    86   ar
    71   146   144   ar
    72   102   101    1
    73   139   141   ar
    74    93    91   ar
    75   142   144   ar
    76   142   141   ar
    77   109   111   ar
    78   130   132    1
    79   100   101    1
    80    38    39    1
    81    89    91   ar
    82    89    88   ar
    83   150   149    2
    84    86    88   ar
    85     1     2    1
    86   148   149    1
    87   148   151    1
    88    63    62    1
    89   153   151    1
    90    41    40    2
    91    39    42    1
    92    39    40    1
    93   152   151    1
    94   152   154    1
    95    44    42    1
    96    42    43    1
    97    40    45   am
    98     2     5    1
    99     2     3    1
   100     5     6    1
   101    61    62   ar
   102    61    59   ar
   103   166   165    2
   104    62    60   ar
   105    45    51    1
   106    45    46    1
   107    51    50    1
   108    74    73    2
   109    46    49    1
   110    46    47    1
   111   165   164    1
   112    49    50    1
   113     4     3    2
   114     7     6    1
   115    59    57   ar
   116     6     8    1
   117    60    58   ar
   118    73    72    1
   119   167   164    1
   120   167   168    1
   121   164   163    1
   122    47    52   am
   123    47    48    2
   124    52    53    1
   125    57    58   ar
   126    57    56    1
   127   168   169    1
   128    72    75    1
   129    72    71    1
   130   172   171    1
   131    75    76    1
   132    78    77    2
   133    55    54    2
   134    56    53    1
   135    53    54    1
   136   169   170    1
   137    71    66   am
   138    54    64   am
   139    26    25    1
   140    67    66    2
   141    13    14    1
   142    13    10    1
   143    16    14   ar
   144   171   170    2
   145   171   173    1
   146     9    10    1
   147    77    76    1
   148    77    79   am
   149    66    65    1
   150    14    15   ar
   151    25    22    1
   152    64    65    1
   153    10    11    1
   154    65    68    1
   155   197   196    2
   156    23    22    1
   157    23    24    2
   158   158   157    2
   159    12    11    2
   160   195   196    1
   161   195   194    1
   162    22    21    1
   163   196   198   am
   164    68    70    1
   165    68    69    1
   166   157   156    1
   167    21    19   am
   168   198   199    1
   169    19    20    2
   170    19    18    1
   171   199   200    1
   172   199   202    1
   173   156   155    1
   174   156   159    1
   175   200   201    2
   176    17    18    1
   177   192   191   ar
   178   160   159    1
   179   160   162    1
   180   159   161    1
   181   203   202    1
   182   193   191   ar
   183   202   204    1
   184   191   190    1
   185   189   188    2
   186   188   187    1
   187   185   184    1
   188   182   184   ar
   189   182   180   ar
   190   190   187    1
   191   184   183   ar
   192   187   186    1
   193   215   213    1
   194   213   214    1
   195   213   212    2
   196   212   211    1
   197   211   210    1
   198   180   179   ar
   199   183   181   ar
   200   179   181   ar
   201   179   178    1
   202   210   209    1
   203   175   174    1
   204   175   178    1
   205   175   176    1
   206   176   177    2
   207   209   206    1
   208   205   206    1
   209   206   207    1
   210   207   208    2
