@<TRIPOS>MOLECULE
tmp/4r95B02.pdb
 223 217 0 0 0
SMALL
GASTEIGER

@<TRIPOS>ATOM
      1  N         16.3900   42.5920   50.9430 N.3    34  LEU34      -0.1245
      2  CA        16.0270   42.0910   52.2570 C.3    34  LEU34       0.1561
      3  C         16.8930   42.7510   53.3190 C.2    34  LEU34       0.2260
      4  O         18.1190   42.7810   53.2000 O.2    34  LEU34      -0.2867
      5  CB        16.2560   40.5520   52.2880 C.3    34  LEU34       0.0270
      6  CG        15.9180   39.8390   53.6030 C.3    34  LEU34       0.0019
      7  CD1       15.4690   38.3940   53.3380 C.3    34  LEU34       0.0001
      8  CD2       17.1410   39.7740   54.5110 C.3    34  LEU34       0.0001
      9  N         18.7060   42.5590   56.6350 N.3    36  ASP36      -0.1239
     10  CA        19.2940   41.4780   57.4280 C.3    36  ASP36       0.1674
     11  C         20.2130   41.9460   58.5570 C.2    36  ASP36       0.2266
     12  O         21.4080   42.1610   58.3230 O.2    36  ASP36      -0.2867
     13  CB        20.0670   40.5300   56.4760 C.3    36  ASP36       0.1410
     14  CG        20.5440   39.2290   57.0930 C.2    36  ASP36       0.3668
     15  OD1       20.1490   38.9290   58.2450 O.co2  36  ASP36      -0.2456
     16  OD2       21.3160   38.5150   56.4320 O.co2  36  ASP36      -0.2456
     17  N         21.3850   40.0510   60.7490 N.3    38  GLY38      -0.1210
     18  CA        22.1870   38.8790   61.0950 C.3    38  GLY38       0.1956
     19  C         23.3950   38.6240   60.2040 C.2    38  GLY38       0.2612
     20  O         23.9300   37.5080   60.2030 O.2    38  GLY38      -0.2717
     21  N         23.7730   39.6110   59.3630 N.am   39  SER39      -0.1952
     22  CA        24.9490   39.5150   58.4720 C.3    39  SER39       0.1924
     23  C         25.4620   40.9130   58.1920 C.2    39  SER39       0.2314
     24  O         24.8300   41.8720   58.6370 O.2    39  SER39      -0.2863
     25  CB        24.6170   38.7980   57.1750 C.3    39  SER39       0.2116
     26  OG        23.7720   39.5600   56.3360 O.3    39  SER39      -0.2180
     27  N         27.2410   41.7950   54.8650 N.3    41  ASN41      -0.1240
     28  CA        27.5340   42.0810   53.4510 C.3    41  ASN41       0.1653
     29  C         26.3090   42.6010   52.6840 C.2    41  ASN41       0.2266
     30  O         25.1950   42.0990   52.8740 O.2    41  ASN41      -0.2867
     31  CB        28.0260   40.8410   52.7360 C.3    41  ASN41       0.1155
     32  CG        29.4320   40.4780   53.0680 C.2    41  ASN41       0.2627
     33  OD1       29.7000   39.9200   54.1220 O.2    41  ASN41      -0.2716
     34  ND2       30.3630   40.7870   52.1670 N.am   41  ASN41      -0.0877
     35  N         14.6300   32.1780   40.4570 N.3    51  PHE51      -0.1241
     36  CA        13.7450   32.9380   41.3450 C.3    51  PHE51       0.1605
     37  C         13.8500   34.4550   41.1950 C.2    51  PHE51       0.2264
     38  O         13.2280   35.1740   41.9650 O.2    51  PHE51      -0.2867
     39  CB        13.9580   32.5480   42.8260 C.3    51  PHE51       0.0534
     40  CG        13.8930   31.0940   43.2160 C.ar   51  PHE51      -0.0203
     41  CD1       13.2750   30.1600   42.3930 C.ar   51  PHE51      -0.0042
     42  CD2       14.4120   30.6630   44.4310 C.ar   51  PHE51      -0.0042
     43  CE1       13.2220   28.8120   42.7590 C.ar   51  PHE51      -0.0003
     44  CE2       14.3610   29.3140   44.7930 C.ar   51  PHE51      -0.0003
     45  CZ        13.7650   28.4000   43.9530 C.ar   51  PHE51      -0.0000
     46  N         30.7340   32.4040   50.5840 N.3    73  VAL73      -0.1231
     47  CA        30.0430   32.4690   51.8770 C.3    73  VAL73       0.1678
     48  C         29.1380   31.2700   52.1650 C.2    73  VAL73       0.2434
     49  O         27.9260   31.3570   51.9580 O.2    73  VAL73      -0.2733
     50  CB        29.2750   33.8070   52.0600 C.3    73  VAL73       0.0265
     51  CG1       28.6570   33.9300   53.4590 C.3    73  VAL73       0.0020
     52  CG2       30.1800   34.9860   51.7750 C.3    73  VAL73       0.0020
     53  N         29.6880   30.1690   52.7250 N.am   74  PRO74      -0.2718
     54  CA        28.7990   29.0880   53.1730 C.3    74  PRO74       0.1535
     55  C         28.1820   29.4730   54.5210 C.2    74  PRO74       0.2599
     56  O         28.8230   30.1360   55.3380 O.2    74  PRO74      -0.2715
     57  CB        29.7280   27.8660   53.3020 C.3    74  PRO74       0.0310
     58  CG        31.1150   28.4260   53.4320 C.3    74  PRO74       0.0237
     59  CD        31.1100   29.8940   53.0540 C.3    74  PRO74       0.0939
     60  N         26.9200   29.1100   54.7370 N.am   75  TYR75      -0.1960
     61  CA        26.2270   29.3730   56.0040 C.3    75  TYR75       0.1771
     62  C         25.3910   28.1260   56.3330 C.2    75  TYR75       0.2620
     63  O         25.5590   27.1000   55.6680 O.2    75  TYR75      -0.2715
     64  CB        25.3940   30.6710   55.9650 C.3    75  TYR75       0.0574
     65  CG        24.4480   30.7740   54.7870 C.ar   75  TYR75      -0.0198
     66  CD1       23.1660   30.2240   54.8460 C.ar   75  TYR75      -0.0009
     67  CD2       24.8410   31.3930   53.6060 C.ar   75  TYR75      -0.0009
     68  CE1       22.2990   30.3010   53.7630 C.ar   75  TYR75       0.0417
     69  CE2       23.9850   31.4720   52.5150 C.ar   75  TYR75       0.0417
     70  CZ        22.7190   30.9200   52.5950 C.ar   75  TYR75       0.1957
     71  OH        21.9050   30.9930   51.5110 O.3    75  TYR75      -0.2866
     72  N         24.5530   28.1900   57.3850 N.am   76  THR76      -0.1937
     73  CA        23.6880   27.0690   57.7880 C.3    76  THR76       0.2028
     74  C         22.6650   26.7720   56.6850 C.2    76  THR76       0.2642
     75  O         21.8100   27.6140   56.3750 O.2    76  THR76      -0.2714
     76  CB        22.9730   27.3660   59.1310 C.3    76  THR76       0.1808
     77  OG1       23.9290   27.6690   60.1520 O.3    76  THR76      -0.2208
     78  CG2       22.0740   26.2120   59.5780 C.3    76  THR76       0.0379
     79  N         22.7710   25.5880   56.0860 N.am   77  GLN77      -0.1976
     80  CA        21.8490   25.1070   55.0490 C.3    77  GLN77       0.1601
     81  C         21.8280   25.9610   53.7580 C.2    77  GLN77       0.2287
     82  O         20.7890   26.0580   53.1130 O.2    77  GLN77      -0.2864
     83  CB        20.4190   24.9180   55.6210 C.3    77  GLN77       0.0394
     84  CG        20.2620   23.8420   56.6930 C.3    77  GLN77       0.0908
     85  CD        20.7000   22.4830   56.2120 C.2    77  GLN77       0.2608
     86  OE1       20.2300   22.0370   55.1470 O.2    77  GLN77      -0.2717
     87  NE2       21.6440   21.8800   56.8630 N.am   77  GLN77      -0.0878
     88  N         26.3310   31.4160   49.3190 N.3    80  TRP80      -0.1241
     89  CA        26.3190   32.5040   48.3460 C.3    80  TRP80       0.1605
     90  C         27.7610   32.7640   47.9720 C.2    80  TRP80       0.2264
     91  O         28.6490   32.6760   48.8220 O.2    80  TRP80      -0.2867
     92  CB        25.4820   33.7470   48.7000 C.3    80  TRP80       0.0550
     93  CG        26.0310   34.6860   49.7310 C.ar   80  TRP80       0.0003
     94  CD1       25.6110   34.8100   51.0230 C.ar   80  TRP80       0.0946
     95  CD2       26.9480   35.7760   49.5010 C.ar   80  TRP80       0.0152
     96  NE1       26.3060   35.8240   51.6510 N.ar   80  TRP80      -0.2442
     97  CE2       27.1250   36.4410   50.7360 C.ar   80  TRP80       0.0810
     98  CE3       27.7060   36.1960   48.3940 C.ar   80  TRP80       0.0012
     99  CZ2       27.9750   37.5510   50.8770 C.ar   80  TRP80       0.0191
    100  CZ3       28.5530   37.2870   48.5350 C.ar   80  TRP80       0.0001
    101  CH2       28.7060   37.9350   49.7710 C.ar   80  TRP80       0.0015
    102  N         20.2580   27.6440   48.1400 N.3   111  LYS111     -0.1231
    103  CA        19.2840   27.9770   49.2060 C.3   111  LYS111      0.1693
    104  C         19.5110   29.4020   49.7640 C.2   111  LYS111      0.2592
    105  O         19.6350   29.6250   50.9790 O.2   111  LYS111     -0.2718
    106  CB        19.2610   26.8800   50.3090 C.3   111  LYS111      0.0285
    107  CG        18.8320   25.5080   49.7580 C.3   111  LYS111      0.0035
    108  CD        18.8520   24.3700   50.7920 C.3   111  LYS111      0.0206
    109  CE        20.1650   23.6110   50.8620 C.3   111  LYS111      0.1093
    110  NZ        20.4470   22.8400   49.6190 N.3   111  LYS111     -0.1314
    111  N         19.6300   30.3680   48.8430 N.am  112  PHE112     -0.1962
    112  CA        19.8180   31.7770   49.2210 C.3   112  PHE112      0.1771
    113  C         18.5790   32.5450   48.8300 C.2   112  PHE112      0.2620
    114  O         17.8520   33.0270   49.7040 O.2   112  PHE112     -0.2715
    115  CB        21.0840   32.3710   48.5790 C.3   112  PHE112      0.0574
    116  CG        21.3430   33.8150   48.9480 C.ar  112  PHE112     -0.0200
    117  CD1       21.9150   34.1450   50.1760 C.ar  112  PHE112     -0.0042
    118  CD2       21.0260   34.8420   48.0660 C.ar  112  PHE112     -0.0042
    119  CE1       22.1740   35.4760   50.5060 C.ar  112  PHE112     -0.0003
    120  CE2       21.2670   36.1810   48.4080 C.ar  112  PHE112     -0.0003
    121  CZ        21.8920   36.4850   49.6010 C.ar  112  PHE112     -0.0000
    122  N         18.3120   32.6480   47.5230 N.am  113  PHE113     -0.1960
    123  CA        17.1120   33.3210   47.0450 C.3   113  PHE113      0.1771
    124  C         15.8510   32.5160   47.4260 C.2   113  PHE113      0.2619
    125  O         15.9230   31.2880   47.6390 O.2   113  PHE113     -0.2715
    126  CB        17.2010   33.5980   45.5430 C.3   113  PHE113      0.0574
    127  CG        18.4080   34.4450   45.1770 C.ar  113  PHE113     -0.0200
    128  CD1       18.4580   35.7940   45.5060 C.ar  113  PHE113     -0.0042
    129  CD2       19.5050   33.8800   44.5430 C.ar  113  PHE113     -0.0042
    130  CE1       19.5750   36.5640   45.1840 C.ar  113  PHE113     -0.0003
    131  CE2       20.6110   34.6570   44.2020 C.ar  113  PHE113     -0.0003
    132  CZ        20.6490   35.9860   44.5430 C.ar  113  PHE113     -0.0000
    133  N         14.7230   33.2160   47.5930 N.am  114  ILE114     -0.1977
    134  CA        13.4640   32.5840   48.0100 C.3   114  ILE114      0.1596
    135  C         12.4510   32.7920   46.9180 C.2   114  ILE114      0.2287
    136  O         12.1890   33.9270   46.5290 O.2   114  ILE114     -0.2864
    137  CB        12.9870   33.1030   49.4020 C.3   114  ILE114      0.0276
    138  CG1       13.9840   32.7000   50.5120 C.3   114  ILE114      0.0022
    139  CG2       11.5380   32.6370   49.7600 C.3   114  ILE114      0.0022
    140  CD1       13.7030   33.3570   51.9460 C.3   114  ILE114      0.0001
    141  N         12.5090   39.8500   46.3860 N.3   119  TRP119     -0.1241
    142  CA        13.7980   40.5270   46.6500 C.3   119  TRP119      0.1605
    143  C         14.8980   39.8440   45.8930 C.2   119  TRP119      0.2264
    144  O         14.8350   38.6240   45.6470 O.2   119  TRP119     -0.2867
    145  CB        14.1580   40.7260   48.1570 C.3   119  TRP119      0.0550
    146  CG        14.1580   39.4610   48.9670 C.ar  119  TRP119      0.0003
    147  CD1       13.1810   39.0530   49.8230 C.ar  119  TRP119      0.0946
    148  CD2       15.2210   38.5030   49.0880 C.ar  119  TRP119      0.0152
    149  NE1       13.5390   37.8720   50.4190 N.ar  119  TRP119     -0.2442
    150  CE2       14.7870   37.5120   49.9900 C.ar  119  TRP119      0.0810
    151  CE3       16.4920   38.3640   48.4950 C.ar  119  TRP119      0.0012
    152  CZ2       15.5750   36.4010   50.3180 C.ar  119  TRP119      0.0191
    153  CZ3       17.2780   37.2910   48.8420 C.ar  119  TRP119      0.0001
    154  CH2       16.8200   36.3150   49.7330 C.ar  119  TRP119      0.0015
    155  N         20.5060   41.1130   49.6050 N.3   122  ILE122     -0.1245
    156  CA        20.4010   41.3170   51.0540 C.3   122  ILE122      0.1561
    157  C         21.2450   42.4820   51.5090 C.2   122  ILE122      0.2260
    158  O         22.3090   42.7550   50.9390 O.2   122  ILE122     -0.2867
    159  CB        20.6580   40.0530   51.9230 C.3   122  ILE122      0.0252
    160  CG1       22.1600   39.6620   51.9730 C.3   122  ILE122      0.0019
    161  CG2       19.7690   38.8740   51.5100 C.3   122  ILE122      0.0019
    162  CD1       22.4240   38.3230   52.8720 C.3   122  ILE122      0.0001
    163  N         31.9440   40.3810   61.1690 N.3   130  ILE130     -0.1245
    164  CA        31.3930   39.1940   60.4790 C.3   130  ILE130      0.1561
    165  C         31.1770   39.4260   58.9530 C.2   130  ILE130      0.2260
    166  O         30.4900   38.6320   58.2930 O.2   130  ILE130     -0.2867
    167  CB        30.1150   38.6760   61.1870 C.3   130  ILE130      0.0252
    168  CG1       28.9510   39.7220   61.1180 C.3   130  ILE130      0.0019
    169  CG2       30.4450   38.2530   62.6400 C.3   130  ILE130      0.0019
    170  CD1       27.5420   39.1770   61.5120 C.3   130  ILE130      0.0001
    171  N         32.2770   39.3230   55.0830 N.3   132  ARG132     -0.1245
    172  CA        33.1130   38.3880   54.3370 C.3   132  ARG132      0.1563
    173  C         33.7340   39.0860   53.1390 C.2   132  ARG132      0.2260
    174  O         33.0830   39.9760   52.5890 O.2   132  ARG132     -0.2867
    175  CB        32.3250   37.1380   53.9000 C.3   132  ARG132      0.0307
    176  CG        31.7280   36.3510   55.0710 C.3   132  ARG132      0.0489
    177  CD        32.8090   35.7430   55.9450 C.3   132  ARG132      0.2205
    178  NE        32.2600   34.8500   56.9580 N.pl3 132  ARG132     -0.0865
    179  CZ        32.0090   33.5620   56.7530 C.cat 132  ARG132      0.5346
    180  NH1       32.2520   33.0120   55.5670 N.pl3 132  ARG132      0.1354
    181  NH2       31.4950   32.8180   57.7260 N.pl3 132  ARG132      0.1354
    182  N         27.6440   40.3960   65.5770 N.3   202  TYR202     -0.1241
    183  CA        26.2070   40.2830   65.3610 C.3   202  TYR202      0.1605
    184  C         25.6650   41.3290   66.3290 C.2   202  TYR202      0.2264
    185  O         26.4420   41.8950   67.1120 O.2   202  TYR202     -0.2867
    186  CB        25.6800   38.9130   65.8230 C.3   202  TYR202      0.0534
    187  CG        26.1980   37.7540   65.0170 C.ar  202  TYR202     -0.0201
    188  CD1       25.5220   37.3140   63.8810 C.ar  202  TYR202     -0.0009
    189  CD2       27.3780   37.1060   65.3700 C.ar  202  TYR202     -0.0009
    190  CE1       26.0020   36.2510   63.1200 C.ar  202  TYR202      0.0417
    191  CE2       27.8820   36.0540   64.6000 C.ar  202  TYR202      0.0417
    192  CZ        27.1980   35.6440   63.4670 C.ar  202  TYR202      0.1957
    193  OH        27.6730   34.5950   62.7230 O.3   202  TYR202     -0.2866
    194  N         18.0430   38.9770   64.8350 N.3   232  ASP232     -0.1239
    195  CA        18.2730   38.7440   63.4110 C.3   232  ASP232      0.1674
    196  C         17.0000   38.7920   62.5890 C.2   232  ASP232      0.2266
    197  O         16.2590   37.8240   62.5830 O.2   232  ASP232     -0.2867
    198  CB        18.9930   37.3850   63.2270 C.3   232  ASP232      0.1410
    199  CG        19.3010   37.0010   61.7840 C.2   232  ASP232      0.3668
    200  OD1       19.1890   37.8640   60.9030 O.co2 232  ASP232     -0.2456
    201  OD2       19.6400   35.8420   61.5440 O.co2 232  ASP232     -0.2456
    202  N         16.9060   38.4700   59.4570 N.3   234  GLY234     -0.1210
    203  CA        17.1210   37.5300   58.3470 C.3   234  GLY234      0.1956
    204  C         16.8350   36.0750   58.6820 C.2   234  GLY234      0.2612
    205  O         17.0980   35.1860   57.8600 O.2   234  GLY234     -0.2717
    206  N         16.3070   35.8160   59.8970 N.am  235  THR235     -0.1952
    207  CA        15.9060   34.4690   60.3640 C.3   235  THR235      0.1897
    208  C         14.4000   34.5780   60.6260 C.2   235  THR235      0.2313
    209  O         13.9530   35.6000   61.1490 O.2   235  THR235     -0.2863
    210  CB        16.6770   34.0860   61.6640 C.3   235  THR235      0.1794
    211  OG1       18.0350   33.7640   61.3550 O.3   235  THR235     -0.2208
    212  CG2       16.0650   32.8950   62.4030 C.3   235  THR235      0.0378
    213  N         14.8390   30.9480   67.4680 N.3   239  ARG239     -0.1245
    214  CA        15.6660   29.7390   67.4870 C.3   239  ARG239      0.1563
    215  C         16.2970   29.6370   68.8610 C.2   239  ARG239      0.2260
    216  O         16.7440   30.6450   69.4020 O.2   239  ARG239     -0.2867
    217  CB        16.7140   29.7870   66.3540 C.3   239  ARG239      0.0307
    218  CG        16.0050   29.7560   64.9740 C.3   239  ARG239      0.0489
    219  CD        16.9430   29.5590   63.7940 C.3   239  ARG239      0.2205
    220  NE        17.4950   28.2010   63.7630 N.pl3 239  ARG239     -0.0865
    221  CZ        18.7920   27.9290   63.7030 C.cat 239  ARG239      0.5346
    222  NH1       19.2100   26.6750   63.7370 N.pl3 239  ARG239      0.1354
    223  NH2       19.6850   28.9140   63.6280 N.pl3 239  ARG239      0.1354
@<TRIPOS>BOND
     1    35    36    1
     2    37    36    1
     3    37    38    2
     4    36    39    1
     5    41    43   ar
     6    41    40   ar
     7    43    45   ar
     8    39    40    1
     9    40    42   ar
    10    45    44   ar
    11   131   129   ar
    12   131   132   ar
    13    42    44   ar
    14   129   127   ar
    15   132   130   ar
    16   127   128   ar
    17   127   126    1
    18   130   128   ar
    19   126   123    1
    20   144   143    2
    21   143   142    1
    22   141   142    1
    23   136   135    2
    24   142   145    1
    25   135   134    1
    26   123   124    1
    27   123   122    1
    28   124   133   am
    29   124   125    2
    30   122   113   am
    31   133   134    1
    32    90    89    1
    33    90    91    2
    34   134   137    1
    35   118   120   ar
    36   118   116   ar
    37   102   103    1
    38   145   146    1
    39    89    92    1
    40    89    88    1
    41    98   100   ar
    42    98    95   ar
    43   120   121   ar
    44   151   153   ar
    45   151   148   ar
    46   100   101   ar
    47   115   116    1
    48   115   112    1
    49    92    93    1
    50   113   112    1
    51   113   114    2
    52   153   154   ar
    53   111   112    1
    54   111   104   am
    55   116   117   ar
    56   146   148   ar
    57   146   147   ar
    58   148   150   ar
    59   103   104    1
    60   103   106    1
    61   137   139    1
    62   137   138    1
    63    95    93   ar
    64    95    97   ar
    65   121   119   ar
    66   155   156    1
    67   110   109    1
    68    93    94   ar
    69   154   152   ar
    70   107   106    1
    71   107   108    1
    72   104   105    2
    73   101    99   ar
    74   147   149   ar
    75   150   152   ar
    76   150   149   ar
    77   117   119   ar
    78   138   140    1
    79    46    47    1
    80    97    99   ar
    81    97    96   ar
    82   108   109    1
    83   158   157    2
    84     1     2    1
    85    94    96   ar
    86   156   157    1
    87   156   159    1
    88   161   159    1
    89    71    70    1
    90    52    50    1
    91    47    50    1
    92    47    48    1
    93   159   160    1
    94    49    48    2
    95   160   162    1
    96    50    51    1
    97    48    53   am
    98    34    32   am
    99     2     5    1
   100     2     3    1
   101     5     6    1
   102    69    70   ar
   103    69    67   ar
   104   174   173    2
   105    70    68   ar
   106    29    30    2
   107    29    28    1
   108    53    59    1
   109    53    54    1
   110    31    32    1
   111    31    28    1
   112    59    58    1
   113    32    33    2
   114    82    81    2
   115   173   172    1
   116    54    57    1
   117    54    55    1
   118     4     3    2
   119    57    58    1
   120     7     6    1
   121    28    27    1
   122     6     8    1
   123    67    65   ar
   124    81    80    1
   125    68    66   ar
   126   175   172    1
   127   175   176    1
   128   172   171    1
   129    55    60   am
   130    55    56    2
   131    60    61    1
   132    65    66   ar
   133    65    64    1
   134    80    83    1
   135    80    79    1
   136   176   177    1
   137    86    85    2
   138   180   179    1
   139    83    84    1
   140    63    62    2
   141   177   178    1
   142    64    61    1
   143    61    62    1
   144    79    74   am
   145    85    84    1
   146    85    87   am
   147    62    72   am
   148    26    25    1
   149    75    74    2
   150    16    14   ar
   151    13    14    1
   152    13    10    1
   153     9    10    1
   154    74    73    1
   155   179   178    2
   156   179   181    1
   157    14    15   ar
   158    25    22    1
   159    72    73    1
   160    10    11    1
   161    73    76    1
   162   205   204    2
   163    23    22    1
   164    23    24    2
   165   166   165    2
   166    12    11    2
   167   203   204    1
   168   203   202    1
   169    22    21    1
   170   204   206   am
   171   165   164    1
   172    76    78    1
   173    76    77    1
   174    21    19   am
   175   206   207    1
   176    20    19    2
   177    19    18    1
   178   207   208    1
   179   207   210    1
   180   164   163    1
   181   164   167    1
   182   208   209    2
   183    17    18    1
   184   200   199   ar
   185   168   167    1
   186   168   170    1
   187   167   169    1
   188   211   210    1
   189   201   199   ar
   190   210   212    1
   191   199   198    1
   192   197   196    2
   193   196   195    1
   194   193   192    1
   195   190   192   ar
   196   190   188   ar
   197   198   195    1
   198   195   194    1
   199   192   191   ar
   200   223   221    1
   201   221   222    1
   202   221   220    2
   203   220   219    1
   204   219   218    1
   205   188   187   ar
   206   191   189   ar
   207   218   217    1
   208   187   189   ar
   209   187   186    1
   210   183   182    1
   211   183   186    1
   212   183   184    1
   213   184   185    2
   214   217   214    1
   215   213   214    1
   216   214   215    1
   217   215   216    2
