@<TRIPOS>MOLECULE
tmp/4r9fA00.pdb
 150 143 0 0 0
SMALL
GASTEIGER

@<TRIPOS>ATOM
      1  N         13.1200   16.0090    6.4550 N.3    11  TRP11      -0.1241
      2  CA        13.8650   15.4020    5.3440 C.3    11  TRP11       0.1605
      3  C         14.9320   14.4400    5.8340 C.2    11  TRP11       0.2264
      4  O         15.4180   14.5580    6.9570 O.2    11  TRP11      -0.2867
      5  CB        14.5070   16.4430    4.4020 C.3    11  TRP11       0.0550
      6  CG        14.6660   17.8710    4.9080 C.ar   11  TRP11       0.0003
      7  CD1       14.2570   18.9980    4.2590 C.ar   11  TRP11       0.0946
      8  CD2       15.2880   18.3160    6.1280 C.ar   11  TRP11       0.0152
      9  NE1       14.5750   20.1150    4.9910 N.ar   11  TRP11      -0.2442
     10  CE2       15.2050   19.7290    6.1440 C.ar   11  TRP11       0.0810
     11  CE3       15.8980   17.6640    7.2100 C.ar   11  TRP11       0.0012
     12  CZ2       15.7100   20.5010    7.1990 C.ar   11  TRP11       0.0191
     13  CZ3       16.3990   18.4320    8.2580 C.ar   11  TRP11       0.0001
     14  CH2       16.3010   19.8380    8.2430 C.ar   11  TRP11       0.0015
     15  N         20.8200   16.7970    5.4030 N.3    15  ASP15      -0.1239
     16  CA        20.0860   17.6950    6.2980 C.3    15  ASP15       0.1674
     17  C         19.5120   16.9350    7.4860 C.2    15  ASP15       0.2266
     18  O         19.6260   17.3800    8.6280 O.2    15  ASP15      -0.2867
     19  CB        18.9750   18.4450    5.5580 C.3    15  ASP15       0.1410
     20  CG        19.4880   19.6600    4.8200 C.2    15  ASP15       0.3668
     21  OD1       19.3710   20.7800    5.3530 O.co2  15  ASP15      -0.2456
     22  OD2       20.0240   19.4940    3.7120 O.co2  15  ASP15      -0.2456
     23  N         10.0530   22.9090    7.1270 N.3    71  TRP71      -0.1227
     24  CA        10.9960   23.3940    6.1220 C.3    71  TRP71       0.1737
     25  C         10.6300   24.7330    5.4780 C.2    71  TRP71       0.2596
     26  O         11.2050   25.1140    4.4580 O.2    71  TRP71      -0.2718
     27  CB        11.2420   22.3250    5.0500 C.3    71  TRP71       0.0564
     28  CG        10.0450   21.9140    4.2190 C.ar   71  TRP71       0.0003
     29  CD1        8.9790   22.6890    3.8390 C.ar   71  TRP71       0.0946
     30  CD2        9.8370   20.6330    3.6180 C.ar   71  TRP71       0.0152
     31  NE1        8.1110   21.9570    3.0640 N.ar   71  TRP71      -0.2442
     32  CE2        8.6180   20.6920    2.9080 C.ar   71  TRP71       0.0810
     33  CE3       10.5610   19.4340    3.6190 C.ar   71  TRP71       0.0012
     34  CZ2        8.1090   19.5980    2.2010 C.ar   71  TRP71       0.0191
     35  CZ3       10.0560   18.3470    2.9160 C.ar   71  TRP71       0.0001
     36  CH2        8.8410   18.4380    2.2200 C.ar   71  TRP71       0.0015
     37  N          9.6780   25.4390    6.0700 N.am   72  GLY72      -0.1957
     38  CA         9.2210   26.7020    5.5110 C.3    72  GLY72       0.1869
     39  C          8.6360   27.6500    6.5300 C.2    72  GLY72       0.2309
     40  O          8.6300   27.3650    7.7330 O.2    72  GLY72      -0.2863
     41  N         16.7610   30.6710    4.2210 N.3   120  ASN120     -0.1240
     42  CA        16.9700   30.2060    2.8520 C.3   120  ASN120      0.1653
     43  C         16.6070   31.2730    1.8270 C.2   120  ASN120      0.2266
     44  O         15.7840   32.1550    2.1010 O.2   120  ASN120     -0.2867
     45  CB        16.1530   28.9350    2.5710 C.3   120  ASN120      0.1155
     46  CG        16.5440   27.7660    3.4600 C.2   120  ASN120      0.2627
     47  OD1       15.6900   27.1430    4.0930 O.2   120  ASN120     -0.2716
     48  ND2       17.8290   27.4610    3.5070 N.am  120  ASN120     -0.0877
     49  N         16.2280   31.6570   -2.8180 N.3   122  ARG122     -0.1245
     50  CA        16.1670   30.9290   -4.0820 C.3   122  ARG122      0.1563
     51  C         17.1090   31.5370   -5.1140 C.2   122  ARG122      0.2260
     52  O         17.2550   32.7630   -5.1930 O.2   122  ARG122     -0.2867
     53  CB        14.7340   30.8580   -4.6190 C.3   122  ARG122      0.0307
     54  CG        13.7040   30.2740   -3.6590 C.3   122  ARG122      0.0489
     55  CD        14.0590   28.8630   -3.2090 C.3   122  ARG122      0.2205
     56  NE        13.0340   28.2820   -2.3410 N.pl3 122  ARG122     -0.0865
     57  CZ        12.8990   28.5460   -1.0420 C.cat 122  ARG122      0.5346
     58  NH1       13.7160   29.4000   -0.4340 N.pl3 122  ARG122      0.1354
     59  NH2       11.9320   27.9620   -0.3480 N.pl3 122  ARG122      0.1354
     60  N         12.9440   24.2430   -7.1790 N.3   172  GLN172     -0.1245
     61  CA        12.1050   25.1710   -6.4250 C.3   172  GLN172      0.1566
     62  C         11.1850   25.9980   -7.3210 C.2   172  GLN172      0.2260
     63  O         10.6290   27.0110   -6.8890 O.2   172  GLN172     -0.2867
     64  CB        12.9630   26.0580   -5.5240 C.3   172  GLN172      0.0367
     65  CG        13.5160   25.3110   -4.3200 C.3   172  GLN172      0.0905
     66  CD        12.4340   24.9370   -3.3270 C.2   172  GLN172      0.2608
     67  OE1       11.6870   25.7950   -2.8600 O.2   172  GLN172     -0.2717
     68  NE2       12.3400   23.6500   -3.0050 N.am  172  GLN172     -0.0878
     69  N          8.2640   25.8750   -7.9210 N.3   174  VAL174     -0.1245
     70  CA         6.8990   25.5770   -7.4880 C.3   174  VAL174      0.1561
     71  C          6.0250   26.8380   -7.5420 C.2   174  VAL174      0.2260
     72  O          6.5550   27.9540   -7.5350 O.2   174  VAL174     -0.2867
     73  CB         6.8750   24.9310   -6.0780 C.3   174  VAL174      0.0252
     74  CG1        7.6140   23.5980   -6.0800 C.3   174  VAL174      0.0019
     75  CG2        7.4570   25.8690   -5.0290 C.3   174  VAL174      0.0019
     76  N          4.1320   28.6070   -5.4930 N.3   176  HIS176     -0.1241
     77  CA         4.2560   29.6060   -4.4220 C.3   176  HIS176      0.1621
     78  C          5.6240   30.2950   -4.3950 C.2   176  HIS176      0.2264
     79  O          5.8450   31.2080   -3.5930 O.2   176  HIS176     -0.2867
     80  CB         3.9490   28.9870   -3.0520 C.3   176  HIS176      0.0745
     81  CG         5.1440   28.3920   -2.3720 C.ar  176  HIS176      0.0817
     82  ND1        6.0630   29.1550   -1.6830 N.ar  176  HIS176     -0.2268
     83  CD2        5.5710   27.1110   -2.2730 C.ar  176  HIS176      0.1154
     84  CE1        7.0060   28.3710   -1.1940 C.ar  176  HIS176      0.1986
     85  NE2        6.7320   27.1260   -1.5380 N.ar  176  HIS176     -0.2212
     86  N         11.2370   17.8020   -7.0240 N.3   229  ASN229     -0.1225
     87  CA        11.1540   19.0330   -6.2310 C.3   229  ASN229      0.1785
     88  C         11.8770   18.9790   -4.8860 C.2   229  ASN229      0.2598
     89  O         11.4650   19.6260   -3.9150 O.2   229  ASN229     -0.2718
     90  CB         9.6920   19.4480   -6.0450 C.3   229  ASN229      0.1169
     91  CG         9.0230   19.8110   -7.3540 C.2   229  ASN229      0.2627
     92  OD1        8.2570   19.0260   -7.9050 O.2   229  ASN229     -0.2716
     93  ND2        9.3310   20.9950   -7.8720 N.am  229  ASN229     -0.0877
     94  N         12.9550   18.2020   -4.8390 N.am  230  SER230     -0.1938
     95  CA        13.8640   18.2050   -3.6970 C.3   230  SER230      0.2055
     96  C         15.2750   17.8300   -4.1340 C.2   230  SER230      0.2643
     97  O         15.4640   17.0390   -5.0680 O.2   230  SER230     -0.2714
     98  CB        13.3660   17.2810   -2.5810 C.3   230  SER230      0.2130
     99  OG        13.4190   15.9270   -2.9710 O.3   230  SER230     -0.2179
    100  N         16.2570   18.4130   -3.4530 N.am  231  SER231     -0.1949
    101  CA        17.6670   18.2140   -3.7650 C.3   231  SER231      0.1924
    102  C         18.0940   16.8130   -3.3500 C.2   231  SER231      0.2314
    103  O         18.0040   16.4530   -2.1780 O.2   231  SER231     -0.2863
    104  CB        18.5210   19.2660   -3.0540 C.3   231  SER231      0.2116
    105  OG        18.0620   20.5740   -3.3500 O.3   231  SER231     -0.2180
    106  N         20.7980   25.7070   -0.7010 N.3   248  TRP248     -0.1241
    107  CA        21.2050   24.4080   -0.1740 C.3   248  TRP248      0.1605
    108  C         21.6140   23.4170   -1.2700 C.2   248  TRP248      0.2264
    109  O         22.3440   22.4680   -1.0010 O.2   248  TRP248     -0.2867
    110  CB        20.0740   23.8120    0.6700 C.3   248  TRP248      0.0550
    111  CG        18.8380   23.5430   -0.1240 C.ar  248  TRP248      0.0003
    112  CD1       18.6240   22.4880   -0.9610 C.ar  248  TRP248      0.0946
    113  CD2       17.6480   24.3430   -0.1740 C.ar  248  TRP248      0.0152
    114  NE1       17.3820   22.5780   -1.5310 N.ar  248  TRP248     -0.2442
    115  CE2       16.7580   23.7070   -1.0670 C.ar  248  TRP248      0.0810
    116  CE3       17.2460   25.5350    0.4510 C.ar  248  TRP248      0.0012
    117  CZ2       15.4860   24.2160   -1.3490 C.ar  248  TRP248      0.0191
    118  CZ3       15.9790   26.0410    0.1700 C.ar  248  TRP248      0.0001
    119  CH2       15.1160   25.3830   -0.7240 C.ar  248  TRP248      0.0015
    120  N         13.0150   32.8180    2.8960 N.3   279  ASP279     -0.1239
    121  CA        12.2270   32.1320    3.9080 C.3   279  ASP279      0.1674
    122  C         13.1810   31.4040    4.8520 C.2   279  ASP279      0.2266
    123  O         14.2850   31.8840    5.1160 O.2   279  ASP279     -0.2867
    124  CB        11.2020   31.1820    3.2600 C.3   279  ASP279      0.1410
    125  CG        11.8460   30.0750    2.4300 C.2   279  ASP279      0.3668
    126  OD1       13.0570   30.1520    2.1350 O.co2 279  ASP279     -0.2456
    127  OD2       11.1250   29.1190    2.0760 O.co2 279  ASP279     -0.2456
    128  N         13.6420   27.5820    7.6970 N.3   281  ASN281     -0.1240
    129  CA        13.0790   26.5090    8.5090 C.3   281  ASN281      0.1653
    130  C         12.5600   27.0540    9.8310 C.2   281  ASN281      0.2266
    131  O         13.0560   28.0670   10.3290 O.2   281  ASN281     -0.2867
    132  CB        14.1250   25.4250    8.7690 C.3   281  ASN281      0.1155
    133  CG        14.6370   24.7850    7.4910 C.2   281  ASN281      0.2627
    134  OD1       13.9350   24.7350    6.4800 O.2   281  ASN281     -0.2716
    135  ND2       15.8700   24.2920    7.5330 N.am  281  ASN281     -0.0877
    136  N         25.0670   22.1600    6.0260 N.3   312  VAL312     -0.1245
    137  CA        23.9190   21.9880    5.1310 C.3   312  VAL312      0.1561
    138  C         23.7950   23.0620    4.0450 C.2   312  VAL312      0.2260
    139  O         22.8340   23.0560    3.2740 O.2   312  VAL312     -0.2867
    140  CB        22.5880   21.8900    5.9160 C.3   312  VAL312      0.0252
    141  CG1       22.5980   20.6810    6.8410 C.3   312  VAL312      0.0019
    142  CG2       22.3090   23.1700    6.6940 C.3   312  VAL312      0.0019
    143  N         23.1290   26.3210    4.3650 N.3   314  ASN314     -0.1240
    144  CA        22.0630   27.2760    4.6290 C.3   314  ASN314      0.1653
    145  C         22.6650   28.5230    5.2660 C.2   314  ASN314      0.2266
    146  O         23.8390   28.5270    5.6360 O.2   314  ASN314     -0.2867
    147  CB        21.0220   26.6840    5.5850 C.3   314  ASN314      0.1155
    148  CG        20.1850   25.5730    4.9650 C.2   314  ASN314      0.2627
    149  OD1       20.4550   25.0760    3.8670 O.2   314  ASN314     -0.2716
    150  ND2       19.1570   25.1740    5.6880 N.am  314  ASN314     -0.0877
@<TRIPOS>BOND
     1    69    70    1
     2    92    91    2
     3    93    91   am
     4    71    72    2
     5    71    70    1
     6    70    73    1
     7    91    90    1
     8    62    63    2
     9    62    61    1
    10    60    61    1
    11    86    87    1
    12    61    64    1
    13    87    90    1
    14    87    88    1
    15    74    73    1
    16    73    75    1
    17    64    65    1
    18    76    77    1
    19    52    51    2
    20    51    50    1
    21    97    96    2
    22    88    94   am
    23    88    89    2
    24    94    95    1
    25    53    50    1
    26    53    54    1
    27    77    78    1
    28    77    80    1
    29    78    79    2
    30    65    66    1
    31    96    95    1
    32    96   100   am
    33    50    49    1
    34   101   100    1
    35   101   102    1
    36   101   104    1
    37    95    98    1
    38    54    55    1
    39   102   103    2
    40   105   104    1
    41    66    68   am
    42    66    67    2
    43    55    56    1
    44    80    81    1
    45    99    98    1
    46    81    83   ar
    47    81    82   ar
    48    56    57    2
    49    83    85   ar
    50    82    84   ar
    51    85    84   ar
    52   114   115   ar
    53   114   112   ar
    54   117   115   ar
    55   117   119   ar
    56   108   109    2
    57   108   107    1
    58   115   113   ar
    59    57    58    1
    60    57    59    1
    61   112   111   ar
    62   119   118   ar
    63   106   107    1
    64   107   110    1
    65   113   111   ar
    66   113   116   ar
    67   111   110    1
    68   118   116   ar
    69    43    44    2
    70    43    42    1
    71   127   125   ar
    72   126   125   ar
    73    34    36   ar
    74    34    32   ar
    75    36    35   ar
    76   125   124    1
    77    45    42    1
    78    45    46    1
    79    42    41    1
    80   120   121    1
    81    32    31   ar
    82    32    30   ar
    83    35    33   ar
    84    31    29   ar
    85   124   121    1
    86   139   138    2
    87    46    48   am
    88    46    47    2
    89    30    33   ar
    90    30    28   ar
    91    22    20   ar
    92    29    28   ar
    93   149   148    2
    94   121   122    1
    95   138   137    1
    96    28    27    1
    97     7     6   ar
    98     7     9   ar
    99   143   144    1
   100     5     6    1
   101     5     2    1
   102    26    25    2
   103   144   145    1
   104   144   147    1
   105    20    21   ar
   106    20    19    1
   107   122   123    2
   108     6     8   ar
   109   148   147    1
   110   148   150   am
   111     9    10   ar
   112    27    24    1
   113   137   140    1
   114   137   136    1
   115   145   146    2
   116     2     3    1
   117     2     1    1
   118    15    16    1
   119    25    37   am
   120    25    24    1
   121    38    37    1
   122    38    39    1
   123    19    16    1
   124     3     4    2
   125   140   142    1
   126   140   141    1
   127    24    23    1
   128     8    10   ar
   129     8    11   ar
   130    10    12   ar
   131    16    17    1
   132   134   133    2
   133    39    40    2
   134    12    14   ar
   135    11    13   ar
   136    17    18    2
   137   133   135   am
   138   133   132    1
   139   128   129    1
   140    14    13   ar
   141   129   132    1
   142   129   130    1
   143   130   131    2
