@<TRIPOS>MOLECULE
tmp/4r9gA00.pdb
 197 187 0 0 0
SMALL
GASTEIGER

@<TRIPOS>ATOM
      1  N          8.4080  -10.1080   37.2150 N.3    10  TRP10      -0.1241
      2  CA         7.6550  -11.2840   37.7320 C.3    10  TRP10       0.1605
      3  C          8.2000  -11.7700   39.0750 C.2    10  TRP10       0.2264
      4  O          9.3660  -11.4900   39.4270 O.2    10  TRP10      -0.2867
      5  CB         7.5840  -12.4630   36.7300 C.3    10  TRP10       0.0550
      6  CG         8.7010  -12.5700   35.6880 C.ar   10  TRP10       0.0003
      7  CD1        8.5440  -12.8280   34.3460 C.ar   10  TRP10       0.0946
      8  CD2       10.1180  -12.4500   35.9060 C.ar   10  TRP10       0.0152
      9  NE1        9.7620  -12.8640   33.7240 N.ar   10  TRP10      -0.2442
     10  CE2       10.7480  -12.6300   34.6490 C.ar   10  TRP10       0.0810
     11  CE3       10.9140  -12.1910   37.0370 C.ar   10  TRP10       0.0012
     12  CZ2       12.1400  -12.5680   34.4850 C.ar   10  TRP10       0.0191
     13  CZ3       12.3200  -12.1140   36.8760 C.ar   10  TRP10       0.0001
     14  CH2       12.9130  -12.3120   35.6010 C.ar   10  TRP10       0.0015
     15  N         11.9230  -16.9080   38.9900 N.3    14  ASP14      -0.1239
     16  CA        12.6880  -15.9090   38.2360 C.3    14  ASP14       0.1674
     17  C         12.8720  -14.6850   39.0880 C.2    14  ASP14       0.2266
     18  O         13.9190  -14.0680   39.0470 O.2    14  ASP14      -0.2867
     19  CB        12.0140  -15.5050   36.9260 C.3    14  ASP14       0.1410
     20  CG        11.8860  -16.6350   35.9660 C.2    14  ASP14       0.3668
     21  OD1       12.5200  -16.5690   34.9010 O.co2  14  ASP14      -0.2456
     22  OD2       11.1500  -17.5900   36.2720 O.co2  14  ASP14      -0.2456
     23  N          4.3800   -3.5350   29.8380 N.3    45  ALA45      -0.1231
     24  CA         3.7500   -4.4850   28.9020 C.3    45  ALA45       0.1694
     25  C          2.3220   -4.1350   28.4850 C.2    45  ALA45       0.2591
     26  O          1.4630   -3.8450   29.3390 O.2    45  ALA45      -0.2718
     27  CB         3.8060   -5.9070   29.4550 C.3    45  ALA45       0.0304
     28  N          2.0890   -4.2190   27.1700 N.am   46  ALA46      -0.1980
     29  CA         0.8580   -3.7590   26.4990 C.3    46  ALA46       0.1597
     30  C         -0.4210   -3.8700   27.3390 C.2    46  ALA46       0.2287
     31  O         -0.6790   -4.8960   27.9660 O.2    46  ALA46      -0.2864
     32  CB         0.6880   -4.4770   25.1620 C.3    46  ALA46       0.0319
     33  N         12.8130   -6.1080   31.4720 N.3    63  TYR63      -0.1227
     34  CA        11.5530   -6.3890   30.8150 C.3    63  TYR63       0.1736
     35  C         11.4840   -7.8380   30.2620 C.2    63  TYR63       0.2595
     36  O         12.5000   -8.4370   29.9960 O.2    63  TYR63      -0.2718
     37  CB        11.3040   -5.3460   29.7350 C.3    63  TYR63       0.0548
     38  CG        10.0180   -5.5560   28.9610 C.ar   63  TYR63      -0.0200
     39  CD1        8.7800   -5.5030   29.5940 C.ar   63  TYR63      -0.0009
     40  CD2       10.0480   -5.8020   27.5920 C.ar   63  TYR63      -0.0009
     41  CE1        7.5980   -5.6840   28.8810 C.ar   63  TYR63       0.0417
     42  CE2        8.8730   -5.9860   26.8650 C.ar   63  TYR63       0.0417
     43  CZ         7.6510   -5.9320   27.5130 C.ar   63  TYR63       0.1957
     44  OH         6.4890   -6.1120   26.7910 O.3    63  TYR63      -0.2866
     45  N         10.2880   -8.3950   30.0910 N.am   64  TRP64      -0.1962
     46  CA        10.1590   -9.8180   29.7680 C.3    64  TRP64       0.1771
     47  C         10.0560  -10.1340   28.2820 C.2    64  TRP64       0.2620
     48  O          9.6750  -11.2470   27.8940 O.2    64  TRP64      -0.2715
     49  CB         9.0120  -10.4600   30.5440 C.3    64  TRP64       0.0590
     50  CG         7.6390   -9.8900   30.2710 C.ar   64  TRP64       0.0006
     51  CD1        7.1580   -9.3780   29.0760 C.ar   64  TRP64       0.0946
     52  CD2        6.5410   -9.8210   31.1980 C.ar   64  TRP64       0.0152
     53  NE1        5.8480   -8.9990   29.2190 N.ar   64  TRP64      -0.2442
     54  CE2        5.4410   -9.2540   30.5060 C.ar   64  TRP64       0.0810
     55  CE3        6.3780  -10.1940   32.5380 C.ar   64  TRP64       0.0012
     56  CZ2        4.2050   -9.0260   31.1210 C.ar   64  TRP64       0.0191
     57  CZ3        5.1370   -9.9720   33.1540 C.ar   64  TRP64       0.0001
     58  CH2        4.0700   -9.3890   32.4440 C.ar   64  TRP64       0.0015
     59  N         10.4130   -9.1620   27.4480 N.am   65  GLY65      -0.1954
     60  CA        10.3440   -9.3290   26.0100 C.3    65  GLY65       0.1869
     61  C         11.2280   -8.3430   25.3020 C.2    65  GLY65       0.2309
     62  O         12.1610   -7.8040   25.8920 O.2    65  GLY65      -0.2863
     63  N          9.6130   -6.4740   22.4650 N.3    67  ASP67      -0.1239
     64  CA         8.6590   -5.7060   21.6310 C.3    67  ASP67       0.1674
     65  C          8.5020   -4.2270   21.9750 C.2    67  ASP67       0.2266
     66  O          8.3010   -3.4030   21.0820 O.2    67  ASP67      -0.2867
     67  CB         7.2800   -6.3790   21.5970 C.3    67  ASP67       0.1410
     68  CG         6.7210   -6.6670   22.9740 C.2    67  ASP67       0.3668
     69  OD1        7.3540   -6.3260   23.9870 O.co2  67  ASP67      -0.2456
     70  OD2        5.6190   -7.2470   23.0480 O.co2  67  ASP67      -0.2456
     71  N         14.6430  -16.7830   24.9260 N.3   115  ASN115     -0.1240
     72  CA        13.4880  -17.6460   25.0590 C.3   115  ASN115      0.1653
     73  C         12.9360  -18.1740   23.7350 C.2   115  ASN115      0.2266
     74  O         13.0410  -17.5100   22.6990 O.2   115  ASN115     -0.2867
     75  CB        12.3910  -16.9370   25.8520 C.3   115  ASN115      0.1155
     76  CG        12.7830  -16.7120   27.3060 C.2   115  ASN115      0.2627
     77  OD1       12.6070  -15.6290   27.8350 O.2   115  ASN115     -0.2716
     78  ND2       13.3410  -17.7280   27.9370 N.am  115  ASN115     -0.0877
     79  N          9.4010  -20.5430   21.9720 N.3   117  ARG117     -0.1245
     80  CA         8.0300  -20.9930   22.1970 C.3   117  ARG117      0.1563
     81  C          7.9240  -22.4390   21.7360 C.2   117  ARG117      0.2260
     82  O          8.4650  -22.8210   20.7030 O.2   117  ARG117     -0.2867
     83  CB         7.0460  -20.1090   21.4740 C.3   117  ARG117      0.0307
     84  CG         7.1050  -18.6360   21.8700 C.3   117  ARG117      0.0489
     85  CD         7.0040  -18.4650   23.3790 C.3   117  ARG117      0.2205
     86  NE         6.7700  -17.0860   23.7670 N.pl3 117  ARG117     -0.0865
     87  CZ         7.7120  -16.1560   23.9220 C.cat 117  ARG117      0.5346
     88  NH1        8.9950  -16.4220   23.7060 N.pl3 117  ARG117      0.1354
     89  NH2        7.3570  -14.9350   24.2920 N.pl3 117  ARG117      0.1354
     90  N          1.2060  -19.3140   26.0180 N.3   169  GLN169     -0.1245
     91  CA         1.8060  -18.3550   25.1270 C.3   169  GLN169      0.1566
     92  C          1.0290  -18.3220   23.8320 C.2   169  GLN169      0.2260
     93  O          1.5060  -17.7990   22.8460 O.2   169  GLN169     -0.2867
     94  CB         3.2880  -18.6940   24.9220 C.3   169  GLN169      0.0367
     95  CG         4.1040  -18.4280   26.1790 C.3   169  GLN169      0.0905
     96  CD         4.3450  -16.9350   26.3620 C.2   169  GLN169      0.2608
     97  OE1        4.8020  -16.2800   25.4260 O.2   169  GLN169     -0.2717
     98  NE2        4.0320  -16.3890   27.5510 N.am  169  GLN169     -0.0878
     99  N         -0.8870  -16.3780   22.5650 N.3   171  VAL171     -0.1245
    100  CA        -1.3940  -15.0030   22.4540 C.3   171  VAL171      0.1561
    101  C         -1.1130  -14.4200   21.0430 C.2   171  VAL171      0.2260
    102  O         -0.1820  -14.8940   20.3770 O.2   171  VAL171     -0.2867
    103  CB        -0.7900  -14.1320   23.5750 C.3   171  VAL171      0.0252
    104  CG1       -1.3870  -14.5320   24.9200 C.3   171  VAL171      0.0019
    105  CG2        0.7380  -14.2900   23.6460 C.3   171  VAL171      0.0019
    106  N          0.3740  -11.8670   19.5150 N.3   173  HIS173     -0.1241
    107  CA         1.7510  -11.5000   19.1510 C.3   173  HIS173      0.1621
    108  C          2.7150  -12.6950   18.9870 C.2   173  HIS173      0.2264
    109  O          3.7500  -12.5510   18.3320 O.2   173  HIS173     -0.2867
    110  CB         2.3300  -10.3640   20.0390 C.3   173  HIS173      0.0745
    111  CG         2.7200  -10.7880   21.4230 C.ar  173  HIS173      0.0817
    112  ND1        3.7150  -10.1580   22.1400 N.ar  173  HIS173     -0.2268
    113  CD2        2.2600  -11.7810   22.2210 C.ar  173  HIS173      0.1154
    114  CE1        3.8650  -10.7490   23.3100 C.ar  173  HIS173      0.1986
    115  NE2        2.9900  -11.7350   23.3880 N.ar  173  HIS173     -0.2212
    116  N         -2.2670  -16.4620   30.9740 N.3   229  ASN229     -0.1225
    117  CA        -1.1150  -16.1240   30.1470 C.3   229  ASN229      0.1785
    118  C          0.1770  -15.8340   30.9110 C.2   229  ASN229      0.2598
    119  O          1.1400  -15.3110   30.3370 O.2   229  ASN229     -0.2718
    120  CB        -1.4680  -15.0390   29.1250 C.3   229  ASN229      0.1169
    121  CG        -2.6740  -15.4180   28.2840 C.2   229  ASN229      0.2627
    122  OD1       -3.6930  -14.7770   28.3830 O.2   229  ASN229     -0.2716
    123  ND2       -2.5760  -16.4960   27.4970 N.am  229  ASN229     -0.0877
    124  N          0.1790  -16.1650   32.2030 N.am  230  SER230     -0.1938
    125  CA         1.4000  -16.2040   33.0040 C.3   230  SER230      0.2055
    126  C          1.4880  -17.6040   33.5630 C.2   230  SER230      0.2643
    127  O          0.4910  -18.2090   33.9430 O.2   230  SER230     -0.2714
    128  CB         1.4150  -15.1420   34.1070 C.3   230  SER230      0.2130
    129  OG         0.1520  -15.0620   34.7450 O.3   230  SER230     -0.2179
    130  N          2.6890  -18.1430   33.5500 N.am  231  SER231     -0.1949
    131  CA         2.8330  -19.5750   33.7000 C.3   231  SER231      0.1924
    132  C          3.3580  -19.8620   35.0710 C.2   231  SER231      0.2314
    133  O          4.5240  -19.6230   35.3850 O.2   231  SER231     -0.2863
    134  CB         3.6740  -20.2020   32.5680 C.3   231  SER231      0.2116
    135  OG         2.8230  -20.5570   31.4770 O.3   231  SER231     -0.2180
    136  N         10.6100  -21.9650   29.6410 N.3   250  TRP250     -0.1241
    137  CA        10.5760  -21.8240   31.1110 C.3   250  TRP250      0.1605
    138  C          9.5200  -22.6960   31.8230 C.2   250  TRP250      0.2264
    139  O          9.7220  -23.1100   32.9630 O.2   250  TRP250     -0.2867
    140  CB        10.3610  -20.3550   31.4860 C.3   250  TRP250      0.0550
    141  CG         9.0750  -19.7710   30.9470 C.ar  250  TRP250      0.0003
    142  CD1        7.8160  -19.8990   31.4980 C.ar  250  TRP250      0.0946
    143  CD2        8.9180  -18.9620   29.7680 C.ar  250  TRP250      0.0152
    144  NE1        6.8920  -19.2210   30.7330 N.ar  250  TRP250     -0.2442
    145  CE2        7.5360  -18.6260   29.6720 C.ar  250  TRP250      0.0810
    146  CE3        9.7980  -18.4880   28.7940 C.ar  250  TRP250      0.0012
    147  CZ2        7.0140  -17.8430   28.6200 C.ar  250  TRP250      0.0191
    148  CZ3        9.2860  -17.6910   27.7500 C.ar  250  TRP250      0.0001
    149  CH2        7.8990  -17.3820   27.6720 C.ar  250  TRP250      0.0015
    150  N         12.8350  -14.9140   21.3620 N.3   283  ASP283     -0.1239
    151  CA        12.9520  -13.5580   21.8840 C.3   283  ASP283      0.1674
    152  C         13.8010  -13.5850   23.1450 C.2   283  ASP283      0.2266
    153  O         14.7180  -14.3970   23.2630 O.2   283  ASP283     -0.2867
    154  CB        11.5570  -12.9530   22.1380 C.3   283  ASP283      0.1410
    155  CG        10.8270  -13.6130   23.3160 C.2   283  ASP283      0.3668
    156  OD1       11.2360  -14.7230   23.7630 O.co2 283  ASP283     -0.2456
    157  OD2        9.8480  -13.0010   23.8000 O.co2 283  ASP283     -0.2456
    158  N         14.4660  -11.6090   27.4470 N.3   285  ASN285     -0.1240
    159  CA        14.3330  -10.5590   28.4370 C.3   285  ASN285      0.1653
    160  C         15.3610   -9.4970   28.1020 C.2   285  ASN285      0.2266
    161  O         16.4190   -9.8070   27.5780 O.2   285  ASN285     -0.2867
    162  CB        14.6140  -11.1240   29.8380 C.3   285  ASN285      0.1155
    163  CG        13.6160  -12.1940   30.2410 C.2   285  ASN285      0.2627
    164  OD1       12.4870  -12.2090   29.7550 O.2   285  ASN285     -0.2716
    165  ND2       14.0180  -13.0830   31.1450 N.am  285  ASN285     -0.0877
    166  N         16.4050  -20.7450   36.1680 N.3   319  VAL319     -0.1245
    167  CA        15.1010  -20.2920   35.6630 C.3   319  VAL319      0.1561
    168  C         14.6620  -21.0640   34.4090 C.2   319  VAL319      0.2260
    169  O         13.5570  -20.8530   33.9170 O.2   319  VAL319     -0.2867
    170  CB        15.0330  -18.7460   35.4300 C.3   319  VAL319      0.0252
    171  CG1       15.4950  -17.9640   36.6670 C.3   319  VAL319      0.0019
    172  CG2       15.8520  -18.3210   34.2190 C.3   319  VAL319      0.0019
    173  N         16.0660  -20.8170   31.2900 N.3   321  ASN321     -0.1240
    174  CA        16.0770  -20.0200   30.1050 C.3   321  ASN321      0.1653
    175  C         17.3140  -20.3800   29.2780 C.2   321  ASN321      0.2266
    176  O         18.1480  -21.1910   29.7330 O.2   321  ASN321     -0.2867
    177  CB        16.0710  -18.5480   30.4840 C.3   321  ASN321      0.1155
    178  CG        14.7040  -18.0360   30.9110 C.2   321  ASN321      0.2627
    179  OD1       14.5670  -16.8640   31.1630 O.2   321  ASN321     -0.2716
    180  ND2       13.6960  -18.9070   30.9920 N.am  321  ASN321     -0.0877
    181  N         -0.8910   -4.3370   19.5640 N.3   365  GLU365     -0.1245
    182  CA        -1.1450   -5.5710   20.2980 C.3   365  GLU365      0.1567
    183  C         -2.3990   -5.4910   21.1450 C.2   365  GLU365      0.2260
    184  O         -3.1730   -6.4470   21.1550 O.2   365  GLU365     -0.2867
    185  CB         0.0200   -5.9250   21.1910 C.3   365  GLU365      0.0388
    186  CG         1.0950   -6.7180   20.4910 C.3   365  GLU365      0.1160
    187  CD         2.3000   -6.9290   21.3600 C.2   365  GLU365      0.3649
    188  OE1        2.1530   -7.0070   22.6100 O.co2 365  GLU365     -0.2457
    189  OE2        3.4010   -7.0290   20.7810 O.co2 365  GLU365     -0.2457
    190  N         -5.3450   -7.9760   20.9050 N.3   369  ASN369     -0.1240
    191  CA        -5.8010   -8.7930   22.0300 C.3   369  ASN369      0.1653
    192  C         -7.2940   -8.6200   22.2750 C.2   369  ASN369      0.2266
    193  O         -8.0080   -9.5940   22.5240 O.2   369  ASN369     -0.2867
    194  CB        -5.0160   -8.4710   23.3100 C.3   369  ASN369      0.1155
    195  CG        -3.5420   -8.8330   23.2090 C.2   369  ASN369      0.2627
    196  OD1       -3.1240   -9.6430   22.3690 O.2   369  ASN369     -0.2716
    197  ND2       -2.7510   -8.2480   24.0930 N.am  369  ASN369     -0.0877
@<TRIPOS>BOND
     1   109   108    2
     2   108   107    1
     3   107   106    1
     4   107   110    1
     5   181   182    1
     6   110   111    1
     7   182   183    1
     8   182   185    1
     9   102   101    2
    10   186   185    1
    11   186   187    1
    12    82    81    2
    13   189   187   ar
    14   190   191    1
    15   101   100    1
    16    66    65    2
    17   183   184    2
    18   187   188   ar
    19   150   151    1
    20   111   112   ar
    21   111   113   ar
    22    83    84    1
    23    83    80    1
    24    67    64    1
    25    67    68    1
    26    64    65    1
    27    64    63    1
    28    81    80    1
    29    84    85    1
    30   151   154    1
    31   151   152    1
    32    79    80    1
    33   191   192    1
    34   191   194    1
    35   154   155    1
    36   112   114   ar
    37   113   115   ar
    38   192   193    2
    39   196   195    2
    40   100    99    1
    41   100   103    1
    42    74    73    2
    43    93    92    2
    44    68    70   ar
    45    68    69   ar
    46   152   153    2
    47   195   194    1
    48   195   197   am
    49   114   115   ar
    50   155   156   ar
    51   155   157   ar
    52    85    86    1
    53   103   105    1
    54   103   104    1
    55    88    87    1
    56    73    72    1
    57    86    87    2
    58    92    91    1
    59    87    89    1
    60    94    91    1
    61    94    95    1
    62    71    72    1
    63    72    75    1
    64    91    90    1
    65    32    29    1
    66    61    62    2
    67    61    60    1
    68    97    96    2
    69    75    76    1
    70    60    59    1
    71    95    96    1
    72    96    98   am
    73    29    28    1
    74    29    30    1
    75    44    43    1
    76    42    43   ar
    77    42    40   ar
    78    28    25   am
    79    76    77    2
    80    76    78   am
    81    30    31    2
    82   158   159    1
    83    59    47   am
    84   123   121   am
    85    43    41   ar
    86   161   160    2
    87    40    38   ar
    88   149   148   ar
    89   149   147   ar
    90   148   146   ar
    91    48    47    2
    92   160   159    1
    93    47    46    1
    94   121   122    2
    95   121   120    1
    96   159   162    1
    97    25    24    1
    98    25    26    2
    99   147   145   ar
   100   146   143   ar
   101    41    39   ar
   102    24    27    1
   103    24    23    1
   104    38    39   ar
   105    38    37    1
   106    51    53   ar
   107    51    50   ar
   108   120   117    1
   109    53    54   ar
   110   175   176    2
   111   175   174    1
   112   136   137    1
   113   145   143   ar
   114   145   144   ar
   115    37    34    1
   116   164   163    2
   117   143   141   ar
   118    46    45    1
   119    46    49    1
   120   162   163    1
   121    36    35    2
   122    45    35   am
   123   174   177    1
   124   174   173    1
   125   117   118    1
   126   117   116    1
   127   163   165   am
   128    35    34    1
   129    50    49    1
   130    50    52   ar
   131   119   118    2
   132   177   178    1
   133    54    56   ar
   134    54    52   ar
   135   144   142   ar
   136    34    33    1
   137   178   180   am
   138   178   179    2
   139   118   124   am
   140   141   140    1
   141   141   142   ar
   142   137   140    1
   143   137   138    1
   144    56    58   ar
   145    52    55   ar
   146   135   134    1
   147   138   139    2
   148   124   125    1
   149    58    57   ar
   150    55    57   ar
   151   134   131    1
   152   125   126    1
   153   125   128    1
   154   130   126   am
   155   130   131    1
   156   126   127    2
   157   131   132    1
   158     9     7   ar
   159     9    10   ar
   160   169   168    2
   161   128   129    1
   162   172   170    1
   163     7     6   ar
   164   168   167    1
   165    12    10   ar
   166    12    14   ar
   167    10     8   ar
   168    21    20   ar
   169   132   133    2
   170   170   167    1
   171   170   171    1
   172    14    13   ar
   173   167   166    1
   174     6     8   ar
   175     6     5    1
   176     8    11   ar
   177    20    22   ar
   178    20    19    1
   179     5     2    1
   180    13    11   ar
   181    19    16    1
   182     1     2    1
   183     2     3    1
   184    16    15    1
   185    16    17    1
   186    18    17    2
   187     3     4    2
