@<TRIPOS>MOLECULE
tmp/4r9kC00.pdb
 190 176 0 0 0
SMALL
GASTEIGER

@<TRIPOS>ATOM
      1  N        -12.7230   13.8880    3.0810 N.3    31  LEU31      -0.1245
      2  CA       -11.6800   14.8970    3.2290 C.3    31  LEU31       0.1561
      3  C        -12.0500   16.2340    2.6210 C.2    31  LEU31       0.2260
      4  O        -11.6310   17.2430    3.1750 O.2    31  LEU31      -0.2867
      5  CB       -10.3590   14.4410    2.5750 C.3    31  LEU31       0.0270
      6  CG        -9.5460   13.3870    3.2700 C.3    31  LEU31       0.0019
      7  CD1       -8.2690   13.1420    2.4960 C.3    31  LEU31       0.0001
      8  CD2       -9.1620   13.8110    4.6600 C.3    31  LEU31       0.0001
      9  N         -1.4600   10.8270   13.4630 N.3    49  TYR49      -0.1241
     10  CA        -1.4890   11.3780   12.0790 C.3    49  TYR49       0.1605
     11  C         -0.2170   12.0980   11.8280 C.2    49  TYR49       0.2264
     12  O          0.2340   12.8770   12.6540 O.2    49  TYR49      -0.2867
     13  CB        -2.6690   12.3660   11.9650 C.3    49  TYR49       0.0534
     14  CG        -2.7700   13.1400   10.6450 C.ar   49  TYR49      -0.0201
     15  CD1       -2.6380   12.5980    9.4090 C.ar   49  TYR49      -0.0009
     16  CD2       -3.0470   14.5030   10.7340 C.ar   49  TYR49      -0.0009
     17  CE1       -2.7920   13.3690    8.2650 C.ar   49  TYR49       0.0417
     18  CE2       -3.2260   15.3010    9.6000 C.ar   49  TYR49       0.0417
     19  CZ        -3.0840   14.7010    8.3870 C.ar   49  TYR49       0.1957
     20  OH        -3.2850   15.4560    7.2490 O.3    49  TYR49      -0.2866
     21  N          1.7430   14.0760    8.3830 N.3    51  ASN51      -0.1240
     22  CA         2.2230   14.4230    7.0240 C.3    51  ASN51       0.1653
     23  C          3.7360   14.3490    7.1570 C.2    51  ASN51       0.2266
     24  O          4.3280   15.0750    7.9660 O.2    51  ASN51      -0.2867
     25  CB         1.7730   15.8110    6.6740 C.3    51  ASN51       0.1155
     26  CG         0.3070   15.8250    6.3790 C.2    51  ASN51       0.2627
     27  OD1       -0.1090   15.1730    5.3990 O.2    51  ASN51      -0.2716
     28  ND2       -0.4910   16.5450    7.1430 N.am   51  ASN51      -0.0877
     29  N          6.4390   16.9030    8.3020 N.3    54  LEU54      -0.1245
     30  CA         6.1380   17.7030    9.4720 C.3    54  LEU54       0.1561
     31  C          5.9530   16.8660   10.7340 C.2    54  LEU54       0.2260
     32  O          5.7890   15.6160   10.6110 O.2    54  LEU54      -0.2867
     33  CB         4.8370   18.4510    9.2000 C.3    54  LEU54       0.0270
     34  CG         4.8300   19.4280    8.0320 C.3    54  LEU54       0.0019
     35  CD1        3.4530   19.9230    7.6630 C.3    54  LEU54       0.0001
     36  CD2        5.7290   20.6300    8.3210 C.3    54  LEU54       0.0001
     37  N         -5.6120   18.8040   11.9810 N.3    67  LEU67      -0.1245
     38  CA        -6.4810   18.9460   10.7900 C.3    67  LEU67       0.1561
     39  C         -7.1230   20.3460   10.7980 C.2    67  LEU67       0.2260
     40  O         -7.1160   21.0030    9.7550 O.2    67  LEU67      -0.2867
     41  CB        -7.5440   17.8760   10.7600 C.3    67  LEU67       0.0270
     42  CG        -7.0120   16.4790   10.4080 C.3    67  LEU67       0.0019
     43  CD1       -8.1020   15.4610   10.8070 C.3    67  LEU67       0.0001
     44  CD2       -6.6260   16.3670    8.9490 C.3    67  LEU67       0.0001
     45  N         -4.5520   22.8110    9.6530 N.3    70  LEU70      -0.1231
     46  CA        -4.2990   22.7120    8.2300 C.3    70  LEU70       0.1693
     47  C         -5.4160   23.4300    7.4300 C.2    70  LEU70       0.2592
     48  O         -5.1100   24.1780    6.4870 O.2    70  LEU70      -0.2718
     49  CB        -4.2460   21.2270    7.7760 C.3    70  LEU70       0.0284
     50  CG        -2.9310   20.5700    8.2820 C.3    70  LEU70       0.0019
     51  CD1       -3.0530   19.0510    8.0860 C.3    70  LEU70       0.0001
     52  CD2       -1.6440   21.0570    7.5560 C.3    70  LEU70       0.0001
     53  N         -6.6590   23.2160    7.7970 N.am   71  PHE71      -0.1976
     54  CA        -7.7930   23.6950    7.0480 C.3    71  PHE71       0.1639
     55  C         -7.8990   25.2140    7.2140 C.2    71  PHE71       0.2290
     56  O         -8.5820   25.8390    6.3690 O.2    71  PHE71      -0.2864
     57  CB        -9.0800   22.9950    7.5150 C.3    71  PHE71       0.0560
     58  CG        -9.1010   21.5320    7.2120 C.ar   71  PHE71      -0.0200
     59  CD1       -8.4660   20.9970    6.1010 C.ar   71  PHE71      -0.0042
     60  CD2       -9.7760   20.6620    8.0620 C.ar   71  PHE71      -0.0042
     61  CE1       -8.5300   19.6320    5.8150 C.ar   71  PHE71      -0.0003
     62  CE2       -9.7910   19.2940    7.7540 C.ar   71  PHE71      -0.0003
     63  CZ        -9.1710   18.7990    6.6760 C.ar   71  PHE71      -0.0000
     64  N         -5.2720   25.9240    4.1250 N.3    74  MET74      -0.1245
     65  CA        -5.4680   25.3030    2.8070 C.3    74  MET74       0.1570
     66  C         -6.8240   24.5670    2.7460 C.2    74  MET74       0.2261
     67  O         -7.2620   24.0560    3.7850 O.2    74  MET74      -0.2867
     68  CB        -4.3110   24.3610    2.4000 C.3    74  MET74       0.0387
     69  CG        -4.2570   23.1740    3.2850 C.3    74  MET74       0.0595
     70  SD        -2.6950   22.2180    3.1390 S.3    74  MET74      -0.1393
     71  CE        -1.5370   23.3040    3.9150 C.3    74  MET74       0.0692
     72  N         -8.7230   21.3040    0.8540 N.3    76  ILE76      -0.1245
     73  CA        -8.7110   20.1460    0.0050 C.3    76  ILE76       0.1561
     74  C         -9.9690   20.1460   -0.8710 C.2    76  ILE76       0.2260
     75  O        -11.0960   20.0180   -0.3620 O.2    76  ILE76      -0.2867
     76  CB        -8.6810   18.7590    0.7880 C.3    76  ILE76       0.0252
     77  CG1       -7.5030   18.6810    1.7500 C.3    76  ILE76       0.0019
     78  CG2       -8.6200   17.6360   -0.1940 C.3    76  ILE76       0.0019
     79  CD1       -7.7030   17.4840    2.7160 C.3    76  ILE76       0.0001
     80  N         -2.5870    8.6230   -4.5410 N.3    95  ARG95      -0.1245
     81  CA        -3.6340    9.5850   -4.8780 C.3    95  ARG95       0.1563
     82  C         -3.0380   10.9190   -5.2390 C.2    95  ARG95       0.2260
     83  O         -1.8680   11.1850   -5.0730 O.2    95  ARG95      -0.2867
     84  CB        -4.6590    9.7220   -3.7430 C.3    95  ARG95       0.0307
     85  CG        -4.1930   10.3560   -2.5140 C.3    95  ARG95       0.0489
     86  CD        -5.2390   10.1800   -1.3770 C.3    95  ARG95       0.2205
     87  NE        -5.0520   11.2130   -0.3860 N.pl3  95  ARG95      -0.0865
     88  CZ        -4.3570   11.0900    0.7470 C.cat  95  ARG95       0.5346
     89  NH1       -3.8710    9.9280    1.1800 N.pl3  95  ARG95       0.1354
     90  NH2       -4.1510   12.1760    1.4810 N.pl3  95  ARG95       0.1354
     91  N         -4.3080   14.9170   -4.1600 N.3    97  ASP97      -0.1239
     92  CA        -5.2120   15.8670   -3.4980 C.3    97  ASP97       0.1674
     93  C         -4.9350   17.2360   -4.1090 C.2    97  ASP97       0.2266
     94  O         -3.8310   17.6830   -4.2120 O.2    97  ASP97      -0.2867
     95  CB        -4.9690   15.9430   -1.9790 C.3    97  ASP97       0.1410
     96  CG        -5.2410   14.6470   -1.1940 C.2    97  ASP97       0.3668
     97  OD1       -5.6340   13.6710   -1.7730 O.co2  97  ASP97      -0.2456
     98  OD2       -5.0660   14.7150    0.0900 O.co2  97  ASP97      -0.2456
     99  N         -5.0950   20.9700   -3.6150 N.3    99  LEU99      -0.1245
    100  CA        -5.0350   21.8370   -2.4700 C.3    99  LEU99       0.1561
    101  C         -4.9820   23.2840   -2.8850 C.2    99  LEU99       0.2260
    102  O         -4.1740   23.6470   -3.7360 O.2    99  LEU99      -0.2867
    103  CB        -3.7970   21.5320   -1.6240 C.3    99  LEU99       0.0270
    104  CG        -3.7250   20.0790   -1.0360 C.3    99  LEU99       0.0019
    105  CD1       -2.3830   19.8160   -0.4870 C.3    99  LEU99       0.0001
    106  CD2       -4.7540   20.0060    0.0390 C.3    99  LEU99       0.0001
    107  N         -1.2460   17.8290   -5.4150 N.3   110  LEU110     -0.1245
    108  CA        -0.2020   17.1950   -4.5860 C.3   110  LEU110      0.1561
    109  C         -0.2710   15.6680   -4.7420 C.2   110  LEU110      0.2260
    110  O         -1.3000   15.0420   -4.4330 O.2   110  LEU110     -0.2867
    111  CB        -0.3960   17.5770   -3.1410 C.3   110  LEU110      0.0270
    112  CG         0.6270   17.0690   -2.0940 C.3   110  LEU110      0.0019
    113  CD1        1.9560   17.6570   -2.4810 C.3   110  LEU110      0.0001
    114  CD2        0.2070   17.4710   -0.7350 C.3   110  LEU110      0.0001
    115  N          0.4820   12.0880   -3.5550 N.3   112  ILE112     -0.1245
    116  CA         0.5440   11.5250   -2.2130 C.3   112  ILE112      0.1561
    117  C          0.4800   10.0410   -2.2590 C.2   112  ILE112      0.2260
    118  O         -0.3390    9.4400   -2.9660 O.2   112  ILE112     -0.2867
    119  CB        -0.5760   12.0560   -1.3200 C.3   112  ILE112      0.0252
    120  CG1       -0.5280   13.5220   -1.2090 C.3   112  ILE112      0.0019
    121  CG2       -0.5760   11.3770    0.0540 C.3   112  ILE112      0.0019
    122  CD1       -1.8010   14.1180   -0.6720 C.3   112  ILE112      0.0001
    123  N         -2.4010    7.2800   10.4330 N.3   126  TRP126     -0.1241
    124  CA        -2.5240    7.7800    9.0770 C.3   126  TRP126      0.1605
    125  C         -1.2550    8.5770    8.7800 C.2   126  TRP126      0.2264
    126  O         -0.9780    9.5680    9.4820 O.2   126  TRP126     -0.2867
    127  CB        -3.7680    8.6880    8.9640 C.3   126  TRP126      0.0550
    128  CG        -3.9130    9.3890    7.6360 C.ar  126  TRP126      0.0003
    129  CD1       -3.3550    9.0390    6.4710 C.ar  126  TRP126      0.0946
    130  CD2       -4.6710   10.5580    7.4100 C.ar  126  TRP126      0.0152
    131  NE1       -3.7140    9.9600    5.4780 N.ar  126  TRP126     -0.2442
    132  CE2       -4.5570   10.9000    6.0370 C.ar  126  TRP126      0.0810
    133  CE3       -5.4690   11.3590    8.2530 C.ar  126  TRP126      0.0012
    134  CZ2       -5.1660   12.0490    5.5410 C.ar  126  TRP126      0.0191
    135  CZ3       -6.0260   12.5170    7.7140 C.ar  126  TRP126      0.0001
    136  CH2       -5.8990   12.8130    6.3660 C.ar  126  TRP126      0.0015
    137  N          0.8700   10.3230    5.4880 N.3   128  ASP128     -0.1239
    138  CA         0.9310   10.7210    4.0850 C.3   128  ASP128      0.1674
    139  C          2.3180   11.1670    3.7530 C.2   128  ASP128      0.2266
    140  O          2.9130   11.9890    4.4420 O.2   128  ASP128     -0.2867
    141  CB        -0.0880   11.8260    3.7670 C.3   128  ASP128      0.1410
    142  CG        -1.4960   11.3270    3.5280 C.2   128  ASP128      0.3668
    143  OD1       -1.7280   10.1700    3.1880 O.co2 128  ASP128     -0.2456
    144  OD2       -2.4390   12.2120    3.6610 O.co2 128  ASP128     -0.2456
    145  N          4.8860   12.7110    0.7430 N.3   130  PHE130     -0.1241
    146  CA         4.9000   13.6570   -0.4010 C.3   130  PHE130      0.1605
    147  C          6.1080   14.5960   -0.1950 C.2   130  PHE130      0.2264
    148  O          6.7270   14.5790    0.8920 O.2   130  PHE130     -0.2867
    149  CB         3.5590   14.4450   -0.5120 C.3   130  PHE130      0.0534
    150  CG         3.2410   15.2290    0.6980 C.ar  130  PHE130     -0.0203
    151  CD1        3.7400   16.5580    0.8710 C.ar  130  PHE130     -0.0042
    152  CD2        2.4930   14.6710    1.7200 C.ar  130  PHE130     -0.0042
    153  CE1        3.4150   17.2960    1.9660 C.ar  130  PHE130     -0.0003
    154  CE2        2.1950   15.4080    2.8580 C.ar  130  PHE130     -0.0003
    155  CZ         2.6700   16.7500    2.9840 C.ar  130  PHE130     -0.0000
    156  N          7.2100   18.2700    0.3350 N.3   132  LEU132     -0.1245
    157  CA         6.6260   19.5250    0.7890 C.3   132  LEU132      0.1561
    158  C          7.2400   20.7620    0.0230 C.2   132  LEU132      0.2260
    159  O          6.4610   21.7260   -0.2250 O.2   132  LEU132     -0.2867
    160  CB         6.8160   19.7000    2.2740 C.3   132  LEU132      0.0270
    161  CG         6.1850   20.9780    2.9250 C.3   132  LEU132      0.0019
    162  CD1        4.7310   21.1630    2.6260 C.3   132  LEU132      0.0001
    163  CD2        6.3490   20.9510    4.4200 C.3   132  LEU132      0.0001
    164  N          5.3480   21.7380   -3.1050 N.3   135  PHE135     -0.1241
    165  CA         4.0570   22.3710   -2.8320 C.3   135  PHE135      0.1605
    166  C          4.2400   23.8270   -2.4360 C.2   135  PHE135      0.2264
    167  O          3.5660   24.7500   -2.9100 O.2   135  PHE135     -0.2867
    168  CB         3.4000   21.5640   -1.6790 C.3   135  PHE135      0.0534
    169  CG         2.0440   21.9690   -1.2250 C.ar  135  PHE135     -0.0203
    170  CD1        1.1580   22.8340   -1.9010 C.ar  135  PHE135     -0.0042
    171  CD2        1.6260   21.5000    0.0190 C.ar  135  PHE135     -0.0042
    172  CE1       -0.0800   23.2300   -1.4000 C.ar  135  PHE135     -0.0003
    173  CE2        0.3960   21.8420    0.4990 C.ar  135  PHE135     -0.0003
    174  CZ        -0.4460   22.7600   -0.1650 C.ar  135  PHE135     -0.0000
    175  N          5.3420   26.8890    4.0810 N.3   143  LEU143     -0.1245
    176  CA         4.4430   26.0700    4.8810 C.3   143  LEU143      0.1561
    177  C          5.1210   25.3770    6.0580 C.2   143  LEU143      0.2260
    178  O          4.5810   25.3350    7.1800 O.2   143  LEU143     -0.2867
    179  CB         3.7540   25.0320    3.9790 C.3   143  LEU143      0.0270
    180  CG         2.7930   25.5300    2.9420 C.3   143  LEU143      0.0019
    181  CD1        2.3570   24.4310    1.9450 C.3   143  LEU143      0.0001
    182  CD2        1.6480   26.2120    3.6370 C.3   143  LEU143      0.0001
    183  N          3.6810   25.6660    9.7870 N.3   147  LEU147     -0.1245
    184  CA         3.0090   24.4870   10.3570 C.3   147  LEU147      0.1561
    185  C          3.9070   23.6780   11.2530 C.2   147  LEU147      0.2260
    186  O          3.4270   22.9510   12.1650 O.2   147  LEU147     -0.2867
    187  CB         2.5390   23.5830    9.2220 C.3   147  LEU147      0.0270
    188  CG         1.4680   24.2250    8.3600 C.3   147  LEU147      0.0019
    189  CD1        1.2800   23.3760    7.0870 C.3   147  LEU147      0.0001
    190  CD2        0.1740   24.3450    9.1130 C.3   147  LEU147      0.0001
@<TRIPOS>BOND
     1   107   108    1
     2    82    83    2
     3    82    81    1
     4    81    80    1
     5    81    84    1
     6   109   108    1
     7   109   110    2
     8   108   111    1
     9    94    93    2
    10    91    92    1
    11    93    92    1
    12    84    85    1
    13   102   101    2
    14    99   100    1
    15   115   116    1
    16    92    95    1
    17   111   112    1
    18   164   165    1
    19   118   117    2
    20   167   166    2
    21   101   100    1
    22   165   166    1
    23   165   168    1
    24    85    86    1
    25   113   112    1
    26   100   103    1
    27   117   116    1
    28   116   119    1
    29   112   114    1
    30    95    96    1
    31   170   172   ar
    32   170   169   ar
    33    97    96   ar
    34   168   169    1
    35   103   104    1
    36   172   174   ar
    37    86    87    1
    38   119   120    1
    39   119   121    1
    40   169   171   ar
    41   120   122    1
    42    96    98   ar
    43   104   105    1
    44   104   106    1
    45    74    75    2
    46    74    73    1
    47   149   146    1
    48   149   150    1
    49   146   147    1
    50   146   145    1
    51    87    88    2
    52   159   158    2
    53   147   148    2
    54    78    76    1
    55   174   173   ar
    56    73    76    1
    57    73    72    1
    58   171   173   ar
    59   158   157    1
    60   156   157    1
    61   150   151   ar
    62   150   152   ar
    63    88    89    1
    64    88    90    1
    65    76    77    1
    66   157   160    1
    67   151   153   ar
    68   152   154   ar
    69    77    79    1
    70   181   180    1
    71   153   155   ar
    72   160   161    1
    73    68    65    1
    74    68    69    1
    75     7     6    1
    76     5     2    1
    77     5     6    1
    78     3     4    2
    79     3     2    1
    80   162   161    1
    81    66    65    1
    82    66    67    2
    83    65    64    1
    84   154   155   ar
    85   161   163    1
    86   180   182    1
    87   180   179    1
    88     1     2    1
    89    70    69    1
    90    70    71    1
    91   143   142   ar
    92     6     8    1
    93   142   144   ar
    94   142   141    1
    95   139   138    1
    96   139   140    2
    97   141   138    1
    98   179   176    1
    99   175   176    1
   100   138   137    1
   101   176   177    1
   102    27    26    2
   103   131   132   ar
   104   131   129   ar
   105   134   132   ar
   106   134   136   ar
   107    61    59   ar
   108    61    63   ar
   109   132   130   ar
   110   177   178    2
   111    59    58   ar
   112   136   135   ar
   113    56    55    2
   114    26    25    1
   115    26    28   am
   116   129   128   ar
   117    48    47    2
   118    25    22    1
   119    63    62   ar
   120    22    23    1
   121    22    21    1
   122    54    55    1
   123    54    57    1
   124    54    53    1
   125   189   188    1
   126    23    24    2
   127    58    57    1
   128    58    60   ar
   129    20    19    1
   130   130   128   ar
   131   130   133   ar
   132    47    53   am
   133    47    46    1
   134    52    50    1
   135   128   127    1
   136    35    34    1
   137   135   133   ar
   138    62    60   ar
   139    49    46    1
   140    49    50    1
   141    34    36    1
   142    34    33    1
   143    51    50    1
   144    46    45    1
   145    17    19   ar
   146    17    15   ar
   147    29    30    1
   148   188   190    1
   149   188   187    1
   150    19    18   ar
   151   125   124    1
   152   125   126    2
   153    44    42    1
   154   127   124    1
   155   124   123    1
   156    33    30    1
   157   187   184    1
   158    15    14   ar
   159    30    31    1
   160    18    16   ar
   161    40    39    2
   162   183   184    1
   163   184   185    1
   164    42    41    1
   165    42    43    1
   166    32    31    2
   167    14    16   ar
   168    14    13    1
   169    41    38    1
   170    38    39    1
   171    38    37    1
   172   185   186    2
   173    11    10    1
   174    11    12    2
   175    13    10    1
   176    10     9    1
