@<TRIPOS>MOLECULE
tmp/4r9rD01.pdb
 174 165 0 0 0
SMALL
GASTEIGER

@<TRIPOS>ATOM
      1  N         -7.5640    3.6670   12.2540 N.3    19  ILE19      -0.1245
      2  CA        -8.1680    2.6960   11.3500 C.3    19  ILE19       0.1561
      3  C         -7.0870    2.2600   10.3580 C.2    19  ILE19       0.2260
      4  O         -6.9790    1.0720   10.0340 O.2    19  ILE19      -0.2867
      5  CB        -9.4110    3.2620   10.6320 C.3    19  ILE19       0.0252
      6  CG1      -10.4280    3.7620   11.6580 C.3    19  ILE19       0.0019
      7  CG2      -10.0690    2.2040    9.7490 C.3    19  ILE19       0.0019
      8  CD1      -11.4890    4.6840   11.0880 C.3    19  ILE19       0.0001
      9  N         -7.2560    9.7930    6.0510 N.3    93  ILE93      -0.1231
     10  CA        -6.9270   11.0700    6.6370 C.3    93  ILE93       0.1692
     11  C         -8.2190   11.8450    6.9430 C.2    93  ILE93       0.2593
     12  O         -9.2770   11.5680    6.3410 O.2    93  ILE93      -0.2718
     13  CB        -6.0360   11.8500    5.6550 C.3    93  ILE93       0.0266
     14  CG1       -4.7390   11.0840    5.3830 C.3    93  ILE93       0.0019
     15  CG2       -5.7720   13.2600    6.1580 C.3    93  ILE93       0.0020
     16  CD1       -3.9560   11.6300    4.1990 C.3    93  ILE93       0.0001
     17  N         -8.1300   12.8010    7.8770 N.am   94  GLY94      -0.1942
     18  CA        -9.2640   13.6590    8.2560 C.3    94  GLY94       0.2014
     19  C         -9.0000   14.4910    9.4990 C.2    94  GLY94       0.2639
     20  O         -8.3340   14.0300   10.4350 O.2    94  GLY94      -0.2714
     21  N         -9.5190   15.7180    9.5130 N.am   95  PHE95      -0.1959
     22  CA        -9.2980   16.6410   10.6210 C.3    95  PHE95       0.1771
     23  C        -10.3260   17.7640   10.6310 C.2    95  PHE95       0.2619
     24  O        -10.6630   18.3120    9.5760 O.2    95  PHE95      -0.2715
     25  CB        -7.8820   17.2330   10.5630 C.3    95  PHE95       0.0574
     26  CG        -7.6570   18.3880   11.5120 C.ar   95  PHE95      -0.0200
     27  CD1       -7.3580   18.1630   12.8590 C.ar   95  PHE95      -0.0042
     28  CD2       -7.7430   19.7010   11.0610 C.ar   95  PHE95      -0.0042
     29  CE1       -7.1530   19.2200   13.7320 C.ar   95  PHE95      -0.0003
     30  CE2       -7.5470   20.7640   11.9320 C.ar   95  PHE95      -0.0003
     31  CZ        -7.2480   20.5220   13.2690 C.ar   95  PHE95      -0.0000
     32  N        -10.7910   18.1150   11.8340 N.am   96  MET96      -0.1977
     33  CA       -11.7390   19.2120   12.0520 C.3    96  MET96       0.1605
     34  C        -11.4850   19.8620   13.4300 C.2    96  MET96       0.2287
     35  O        -11.4420   19.1490   14.4480 O.2    96  MET96      -0.2864
     36  CB       -13.1870   18.6970   11.9410 C.3    96  MET96       0.0413
     37  CG       -14.2640   19.7670   11.8870 C.3    96  MET96       0.0598
     38  SD       -14.0600   20.9160   10.5080 S.3    96  MET96      -0.1393
     39  CE       -14.6320   19.9450    9.1080 C.3    96  MET96       0.0692
     40  N        -16.8210   20.5860   15.9180 N.3   101  MET101     -0.1245
     41  CA       -17.4590   19.3490   16.4310 C.3   101  MET101      0.1570
     42  C        -17.8620   19.4740   17.9060 C.2   101  MET101      0.2261
     43  O        -17.6670   20.5210   18.5320 O.2   101  MET101     -0.2867
     44  CB       -16.5560   18.1350   16.2590 C.3   101  MET101      0.0387
     45  CG       -16.4220   17.6660   14.8250 C.3   101  MET101      0.0595
     46  SD       -15.0640   16.5150   14.5480 S.3   101  MET101     -0.1393
     47  CE       -15.8220   14.9930   15.1040 C.3   101  MET101      0.0692
     48  N        -17.7080    8.5760    7.0800 N.3   147  PHE147     -0.1241
     49  CA       -18.7820    8.3160    8.0400 C.3   147  PHE147      0.1605
     50  C        -20.1100    8.8540    7.5050 C.2   147  PHE147      0.2264
     51  O        -20.1870   10.0350    7.1990 O.2   147  PHE147     -0.2867
     52  CB       -18.4650    8.9490    9.3880 C.3   147  PHE147      0.0534
     53  CG       -19.3730    8.5000   10.4800 C.ar  147  PHE147     -0.0203
     54  CD1      -19.5390    7.1540   10.7430 C.ar  147  PHE147     -0.0042
     55  CD2      -20.0480    9.4180   11.2480 C.ar  147  PHE147     -0.0042
     56  CE1      -20.3590    6.7270   11.7650 C.ar  147  PHE147     -0.0003
     57  CE2      -20.8840    9.0020   12.2720 C.ar  147  PHE147     -0.0003
     58  CZ       -21.0400    7.6570   12.5320 C.ar  147  PHE147     -0.0000
     59  N        -26.7550   14.8110   12.3710 N.3   153  MET153     -0.1231
     60  CA       -26.6420   14.1650   13.6940 C.3   153  MET153      0.1687
     61  C        -26.0110   15.0920   14.7710 C.2   153  MET153      0.2434
     62  O        -25.2310   16.0170   14.4370 O.2   153  MET153     -0.2733
     63  CB       -25.8920   12.8250   13.5770 C.3   153  MET153      0.0400
     64  CG       -24.3770   12.9320   13.5930 C.3   153  MET153      0.0596
     65  SD       -23.5120   11.7820   12.5010 S.3   153  MET153     -0.1393
     66  CE       -24.1560   10.2000   13.0490 C.3   153  MET153      0.0692
     67  N        -26.3360   14.8530   16.0670 N.am  154  PRO154     -0.2729
     68  CA       -25.7710   15.7430   17.0930 C.3   154  PRO154      0.1401
     69  C        -24.2380   15.5830   17.2040 C.2   154  PRO154      0.2269
     70  O        -23.7340   14.4610   17.1120 O.2   154  PRO154     -0.2865
     71  CB       -26.4710   15.2720   18.3760 C.3   154  PRO154      0.0296
     72  CG       -26.7290   13.8100   18.1440 C.3   154  PRO154      0.0237
     73  CD       -27.0530   13.7040   16.6730 C.3   154  PRO154      0.0939
     74  N        -21.3900   15.6920   15.4720 N.3   156  TYR156     -0.1241
     75  CA       -20.5470   15.4350   14.3200 C.3   156  TYR156      0.1605
     76  C        -20.3900   16.6530   13.4300 C.2   156  TYR156      0.2264
     77  O        -19.4640   16.7330   12.6380 O.2   156  TYR156     -0.2867
     78  CB       -21.1090   14.2720   13.5280 C.3   156  TYR156      0.0534
     79  CG       -20.0850   13.6750   12.6250 C.ar  156  TYR156     -0.0201
     80  CD1      -18.8660   13.2360   13.1320 C.ar  156  TYR156     -0.0009
     81  CD2      -20.3190   13.5550   11.2620 C.ar  156  TYR156     -0.0009
     82  CE1      -17.9020   12.6980   12.3040 C.ar  156  TYR156      0.0417
     83  CE2      -19.3640   13.0130   10.4230 C.ar  156  TYR156      0.0417
     84  CZ       -18.1570   12.5830   10.9480 C.ar  156  TYR156      0.1957
     85  OH       -17.2070   12.0410   10.1070 O.3   156  TYR156     -0.2866
     86  N        -17.9070   18.2630   10.5980 N.3   159  MET159     -0.1245
     87  CA       -17.2370   17.1120   10.0330 C.3   159  MET159      0.1570
     88  C        -18.2210   16.4870    9.0620 C.2   159  MET159      0.2261
     89  O        -17.8290   16.0870    7.9450 O.2   159  MET159     -0.2867
     90  CB       -16.7570   16.1090   11.0760 C.3   159  MET159      0.0387
     91  CG       -15.7830   15.0690   10.5060 C.3   159  MET159      0.0595
     92  SD       -14.3110   15.7440    9.6650 S.3   159  MET159     -0.1393
     93  CE       -13.6360   14.2960    8.8580 C.3   159  MET159      0.0692
     94  N        -17.5180   15.3210    5.2970 N.3   163  LYS163     -0.1245
     95  CA       -17.8540   14.0070    4.7090 C.3   163  LYS163      0.1561
     96  C        -18.7110   14.0870    3.4130 C.2   163  LYS163      0.2260
     97  O        -18.3980   13.4270    2.4040 O.2   163  LYS163     -0.2867
     98  CB       -18.4600   13.0470    5.7540 C.3   163  LYS163      0.0271
     99  CG       -17.4510   12.4500    6.7300 C.3   163  LYS163      0.0035
    100  CD       -16.2170   11.8750    6.0250 C.3   163  LYS163      0.0206
    101  CE       -15.1940   11.3730    7.0460 C.3   163  LYS163      0.1093
    102  NZ       -13.8590   11.0130    6.4850 N.3   163  LYS163     -0.1314
    103  N        -18.8780    2.3500   10.5670 N.3   190  GLY190     -0.1210
    104  CA       -19.4920    2.6920   11.8460 C.3   190  GLY190      0.1940
    105  C        -18.4590    3.3690   12.7430 C.2   190  GLY190      0.2454
    106  O        -17.3100    3.5750   12.3220 O.2   190  GLY190     -0.2732
    107  N        -18.8560    3.7340   13.9820 N.am  191  PRO191     -0.2717
    108  CA       -17.8640    4.3520   14.8520 C.3   191  PRO191      0.1535
    109  C        -16.8250    3.3400   15.3630 C.2   191  PRO191      0.2598
    110  O        -17.1580    2.1920   15.6660 O.2   191  PRO191     -0.2715
    111  CB       -18.7000    4.9290   15.9960 C.3   191  PRO191      0.0310
    112  CG       -19.9680    4.1480   16.0110 C.3   191  PRO191      0.0237
    113  CD       -20.1790    3.5930   14.6350 C.3   191  PRO191      0.0939
    114  N        -15.5680    3.7770   15.4130 N.am  192  ILE192     -0.1978
    115  CA       -14.4690    2.9990   15.9680 C.3   192  ILE192      0.1596
    116  C        -13.8940    3.8110   17.1200 C.2   192  ILE192      0.2287
    117  O        -13.6430    5.0100   16.9820 O.2   192  ILE192     -0.2864
    118  CB       -13.3820    2.6910   14.9020 C.3   192  ILE192      0.0276
    119  CG1      -13.9570    1.8610   13.7320 C.3   192  ILE192      0.0022
    120  CG2      -12.1480    2.0300   15.5160 C.3   192  ILE192      0.0022
    121  CD1      -14.5580    0.5230   14.0930 C.3   192  ILE192      0.0001
    122  N        -11.1330    4.8240   18.6220 N.3   194  THR194     -0.1218
    123  CA        -9.7140    5.2020   18.5860 C.3   194  THR194      0.1862
    124  C         -9.3240    5.8620   19.9180 C.2   194  THR194      0.2287
    125  O        -10.1800    6.0430   20.7900 O.2   194  THR194     -0.2866
    126  CB        -9.4050    6.1540   17.4040 C.3   194  THR194      0.1770
    127  OG1      -10.3220    7.2580   17.4120 O.3   194  THR194     -0.2211
    128  CG2       -9.5350    5.4220   16.0860 C.3   194  THR194      0.0375
    129  N         -8.4470    8.9490   20.1840 N.3   196  ALA196     -0.1231
    130  CA        -9.1940   10.1990   20.0380 C.3   196  ALA196      0.1694
    131  C        -10.6700   10.0410   20.4050 C.2   196  ALA196      0.2591
    132  O        -11.2680   10.9470   20.9920 O.2   196  ALA196     -0.2718
    133  CB        -9.0560   10.7320   18.6170 C.3   196  ALA196      0.0304
    134  N        -11.2490    8.8930   20.0530 N.am  197  MET197     -0.1979
    135  CA       -12.6510    8.6050   20.3610 C.3   197  MET197      0.1605
    136  C        -12.8880    8.2480   21.8370 C.2   197  MET197      0.2287
    137  O        -14.0090    8.3850   22.3350 O.2   197  MET197     -0.2864
    138  CB       -13.2070    7.5150   19.4330 C.3   197  MET197      0.0413
    139  CG       -14.6870    7.2060   19.6430 C.3   197  MET197      0.0598
    140  SD       -15.8720    8.2160   18.7150 S.3   197  MET197     -0.1393
    141  CE       -15.5530    9.8960   19.2740 C.3   197  MET197      0.0692
    142  N        -12.9200   11.8900   23.8710 N.3   200  ILE200     -0.1245
    143  CA       -14.2610   12.4740   23.7610 C.3   200  ILE200      0.1561
    144  C        -15.2110   11.8030   24.7710 C.2   200  ILE200      0.2260
    145  O        -16.1020   12.4580   25.3170 O.2   200  ILE200     -0.2867
    146  CB       -14.7950   12.4140   22.3020 C.3   200  ILE200      0.0252
    147  CG1      -14.0990   13.4760   21.4340 C.3   200  ILE200      0.0019
    148  CG2      -16.3100   12.5970   22.2490 C.3   200  ILE200      0.0019
    149  CD1      -14.3080   13.3210   19.9400 C.3   200  ILE200      0.0001
    150  N        -22.6160   10.8320   22.1280 N.3   213  ILE213     -0.1245
    151  CA       -21.6000    9.9730   21.4820 C.3   213  ILE213      0.1561
    152  C        -21.8010    8.5280   21.9290 C.2   213  ILE213      0.2260
    153  O        -21.7500    7.5970   21.1160 O.2   213  ILE213     -0.2867
    154  CB       -20.1420   10.4230   21.8120 C.3   213  ILE213      0.0252
    155  CG1      -19.8790   11.8700   21.3580 C.3   213  ILE213      0.0019
    156  CG2      -19.1000    9.4560   21.2400 C.3   213  ILE213      0.0019
    157  CD1      -20.4390   12.2340   19.9980 C.3   213  ILE213      0.0001
    158  N        -25.1710    7.5100   20.4930 N.3   216  LEU216     -0.1231
    159  CA       -24.9750    7.1750   19.0780 C.3   216  LEU216      0.1693
    160  C        -24.4010    5.7720   18.9360 C.2   216  LEU216      0.2591
    161  O        -25.0010    4.8950   18.3030 O.2   216  LEU216     -0.2718
    162  CB       -23.9960    8.1640   18.4400 C.3   216  LEU216      0.0284
    163  CG       -24.2400    8.6520   17.0180 C.3   216  LEU216      0.0019
    164  CD1      -24.7910    7.5340   16.1370 C.3   216  LEU216      0.0001
    165  CD2      -25.1620    9.8640   17.0450 C.3   216  LEU216      0.0001
    166  N        -23.2300    5.5870   19.5370 N.am  217  GLU217     -0.1979
    167  CA       -22.5310    4.3200   19.5280 C.3   217  GLU217      0.1602
    168  C        -23.4390    3.1590   19.9500 C.2   217  GLU217      0.2287
    169  O        -23.4140    2.1100   19.3080 O.2   217  GLU217     -0.2864
    170  CB       -21.2700    4.4100   20.4050 C.3   217  GLU217      0.0415
    171  CG       -20.2020    5.3870   19.8850 C.3   217  GLU217      0.1163
    172  CD       -19.0450    5.6340   20.8550 C.2   217  GLU217      0.3649
    173  OE1      -17.9640    6.0380   20.3770 O.co2 217  GLU217     -0.2457
    174  OE2      -19.1970    5.4360   22.0840 O.co2 217  GLU217     -0.2457
@<TRIPOS>BOND
     1    97    96    2
     2    96    95    1
     3    16    14    1
     4    95    94    1
     5    95    98    1
     6    14    13    1
     7    13    15    1
     8    13    10    1
     9    98    99    1
    10   100    99    1
    11   100   101    1
    12     9    10    1
    13    12    11    2
    14   102   101    1
    15    10    11    1
    16    11    17   am
    17    48    49    1
    18    51    50    2
    19    50    49    1
    20    17    18    1
    21    89    88    2
    22    49    52    1
    23    18    19    1
    24    93    92    1
    25    88    87    1
    26    39    38    1
    27    52    53    1
    28    19    21   am
    29    19    20    2
    30    21    22    1
    31    24    23    2
    32    92    91    1
    33     7     5    1
    34    87    86    1
    35    87    90    1
    36     4     3    2
    37    85    84    1
    38     3     2    1
    39    83    84   ar
    40    83    81   ar
    41    53    54   ar
    42    53    55   ar
    43    91    90    1
    44    38    37    1
    45    25    22    1
    46    25    26    1
    47   103   104    1
    48    22    23    1
    49    23    32   am
    50     5     2    1
    51     5     6    1
    52    54    56   ar
    53    84    82   ar
    54    28    26   ar
    55    28    30   ar
    56     8     6    1
    57    55    57   ar
    58    81    79   ar
    59     2     1    1
    60    26    27   ar
    61    56    58   ar
    62    32    33    1
    63   104   105    1
    64    37    36    1
    65    30    31   ar
    66    36    33    1
    67    33    34    1
    68    57    58   ar
    69    82    80   ar
    70   106   105    2
    71    59    60    1
    72    65    66    1
    73    65    64    1
    74    79    80   ar
    75    79    78    1
    76    77    76    2
    77   105   107   am
    78    27    29   ar
    79    31    29   ar
    80    34    35    2
    81    76    75    1
    82    78    75    1
    83    63    64    1
    84    63    60    1
    85    60    61    1
    86   119   121    1
    87   119   118    1
    88   107   113    1
    89   107   108    1
    90    75    74    1
    91    62    61    2
    92    46    45    1
    93    46    47    1
    94   113   112    1
    95    61    67   am
    96    45    44    1
    97   108   109    1
    98   108   111    1
    99   118   120    1
   100   118   115    1
   101   109   114   am
   102   109   110    2
   103   114   115    1
   104    40    41    1
   105   115   116    1
   106   111   112    1
   107    67    73    1
   108    67    68    1
   109   128   126    1
   110   164   163    1
   111    44    41    1
   112    41    42    1
   113    73    72    1
   114   117   116    2
   115   163   165    1
   116   163   162    1
   117    68    69    1
   118    68    71    1
   119    70    69    2
   120   126   127    1
   121   126   123    1
   122    42    43    2
   123    72    71    1
   124   161   160    2
   125   162   159    1
   126   123   122    1
   127   123   124    1
   128   133   130    1
   129   140   141    1
   130   140   139    1
   131   160   159    1
   132   160   166   am
   133   159   158    1
   134   169   168    2
   135   138   139    1
   136   138   135    1
   137   167   166    1
   138   167   168    1
   139   167   170    1
   140   171   170    1
   141   171   172    1
   142   124   125    2
   143   149   147    1
   144   157   155    1
   145   130   129    1
   146   130   131    1
   147   134   135    1
   148   134   131   am
   149   135   136    1
   150   173   172   ar
   151   131   132    2
   152   172   174   ar
   153   153   152    2
   154   156   154    1
   155   155   154    1
   156   147   146    1
   157   151   154    1
   158   151   152    1
   159   151   150    1
   160   136   137    2
   161   148   146    1
   162   146   143    1
   163   143   142    1
   164   143   144    1
   165   144   145    2
