@<TRIPOS>MOLECULE
tmp/4r9uD01.pdb
 99 95 0 0 0
SMALL
GASTEIGER

@<TRIPOS>ATOM
      1  N        -29.8420   58.4330   -5.1390 N.3    13  THR13      -0.1203
      2  CA       -28.6690   58.7260   -4.3390 C.3    13  THR13       0.1994
      3  C        -28.2640   57.4910   -3.5360 C.2    13  THR13       0.2617
      4  O        -27.6200   57.5960   -2.4920 O.2    13  THR13      -0.2717
      5  CB       -28.9320   59.9110   -3.3910 C.3    13  THR13       0.1784
      6  OG1      -29.8710   60.8100   -3.9970 O.3    13  THR13      -0.2211
      7  CG2      -27.6210   60.6400   -3.0490 C.3    13  THR13       0.0376
      8  N        -28.6290   56.3120   -4.0310 N.am   14  ARG14      -0.1979
      9  CA       -28.2840   55.0970   -3.3050 C.3    14  ARG14       0.1597
     10  C        -27.3400   54.2300   -4.1110 C.2    14  ARG14       0.2287
     11  O        -26.8350   53.2290   -3.6210 O.2    14  ARG14      -0.2864
     12  CB       -29.5370   54.3010   -2.9290 C.3    14  ARG14       0.0334
     13  CG       -30.2430   53.6160   -4.0750 C.3    14  ARG14       0.0492
     14  CD       -31.2530   52.6210   -3.5310 C.3    14  ARG14       0.2205
     15  NE       -32.6150   53.1410   -3.5800 N.pl3  14  ARG14      -0.0865
     16  CZ       -33.7090   52.3910   -3.4750 C.cat  14  ARG14       0.5346
     17  NH1      -33.6040   51.0760   -3.3140 N.pl3  14  ARG14       0.1354
     18  NH2      -34.9080   52.9570   -3.5350 N.pl3  14  ARG14       0.1354
     19  N        -19.0650   48.8270    2.6240 N.3    33  PRO33      -0.2102
     20  CA       -19.7910   49.0140    3.8830 C.3    33  PRO33       0.1504
     21  C        -21.2980   48.9300    3.6910 C.2    33  PRO33       0.2576
     22  O        -21.7570   48.8850    2.5590 O.2    33  PRO33      -0.2718
     23  CB       -19.3920   50.4300    4.2990 C.3    33  PRO33       0.0282
     24  CG       -19.0100   51.1130    3.0150 C.3    33  PRO33       0.0208
     25  CD       -18.3860   50.0560    2.1770 C.3    33  PRO33       0.0893
     26  N        -22.0470   48.9190    4.7900 N.am   34  ASN34      -0.1961
     27  CA       -23.4950   49.1150    4.7640 C.3    34  ASN34       0.1819
     28  C        -23.7030   50.4750    4.1040 C.2    34  ASN34       0.2621
     29  O        -23.0080   51.4380    4.4320 O.2    34  ASN34      -0.2715
     30  CB       -24.0810   49.0910    6.1810 C.3    34  ASN34       0.1195
     31  CG       -23.8550   47.7640    6.9090 C.2    34  ASN34       0.2630
     32  OD1      -23.3550   46.7920    6.3430 O.2    34  ASN34      -0.2716
     33  ND2      -24.1790   47.7470    8.1990 N.am   34  ASN34      -0.0877
     34  N        -24.5650   50.5720    3.1150 N.am   35  GLY35      -0.1954
     35  CA       -24.7220   51.8660    2.4900 C.3    35  GLY35       0.1869
     36  C        -23.8250   52.0490    1.2820 C.2    35  GLY35       0.2309
     37  O        -23.7950   53.1170    0.6630 O.2    35  GLY35      -0.2863
     38  N        -24.2310   50.0910   -1.3090 N.3    37  GLY37      -0.1210
     39  CA       -25.1200   49.8250   -2.4190 C.3    37  GLY37       0.1956
     40  C        -24.8140   48.5800   -3.2280 C.2    37  GLY37       0.2612
     41  O        -24.9920   48.5870   -4.4290 O.2    37  GLY37      -0.2717
     42  N        -24.3530   47.5270   -2.5550 N.am   38  LYS38      -0.1965
     43  CA       -24.1210   46.2270   -3.1770 C.3    38  LYS38       0.1728
     44  C        -25.4380   45.5340   -3.5840 C.2    38  LYS38       0.2617
     45  O        -25.5880   45.0830   -4.7180 O.2    38  LYS38      -0.2715
     46  CB       -23.3560   45.3320   -2.2100 C.3    38  LYS38       0.0311
     47  CG       -22.0680   45.9260   -1.6970 C.3    38  LYS38       0.0038
     48  CD       -21.4110   44.9680   -0.7320 C.3    38  LYS38       0.0206
     49  CE       -22.2040   44.8610    0.5490 C.3    38  LYS38       0.1093
     50  NZ       -21.9860   46.0840    1.3800 N.3    38  LYS38      -0.1314
     51  N        -26.3990   45.4650   -2.6590 N.am   39  SER39      -0.1936
     52  CA       -27.6520   44.7400   -2.8990 C.3    39  SER39       0.2055
     53  C        -28.3680   45.3820   -4.0890 C.2    39  SER39       0.2643
     54  O        -28.9840   44.7030   -4.9100 O.2    39  SER39      -0.2714
     55  CB       -28.5430   44.7630   -1.6460 C.3    39  SER39       0.2130
     56  OG       -28.1650   43.7750   -0.6940 O.3    39  SER39      -0.2179
     57  N        -28.2560   46.6970   -4.1990 N.am   40  THR40      -0.1950
     58  CA       -28.8920   47.4460   -5.2820 C.3    40  THR40       0.1897
     59  C        -28.3320   47.0920   -6.6440 C.2    40  THR40       0.2313
     60  O        -29.0710   46.7510   -7.5850 O.2    40  THR40      -0.2863
     61  CB       -28.6900   48.9420   -5.0970 C.3    40  THR40       0.1794
     62  OG1      -29.1890   49.3350   -3.8200 O.3    40  THR40      -0.2208
     63  CG2      -29.4120   49.7110   -6.1920 C.3    40  THR40       0.0378
     64  N        -31.0170   39.0510   -0.8700 N.3    79  GLN79      -0.1245
     65  CA       -30.3320   39.0720    0.4350 C.3    79  GLN79       0.1566
     66  C        -31.1830   38.3750    1.4850 C.2    79  GLN79       0.2260
     67  O        -30.6610   37.5850    2.2640 O.2    79  GLN79      -0.2867
     68  CB       -29.9980   40.5100    0.8460 C.3    79  GLN79       0.0367
     69  CG       -29.6110   40.7440    2.3320 C.3    79  GLN79       0.0905
     70  CD       -28.6370   41.9030    2.5360 C.2    79  GLN79       0.2608
     71  OE1      -27.5000   41.7220    2.9960 O.2    79  GLN79      -0.2717
     72  NE2      -29.0580   43.0850    2.1500 N.am   79  GLN79      -0.0878
     73  N        -26.4780   37.3960   -3.1240 N.3   157  ASP157     -0.1225
     74  CA       -26.3560   38.4960   -2.1850 C.3   157  ASP157      0.1805
     75  C        -26.0330   38.0280   -0.7640 C.2   157  ASP157      0.2597
     76  O        -26.9380   37.7080    0.0020 O.2   157  ASP157     -0.2718
     77  CB       -27.6270   39.3180   -2.1950 C.3   157  ASP157      0.1424
     78  CG       -27.3680   40.7800   -1.9620 C.2   157  ASP157      0.3668
     79  OD1      -26.2200   41.1660   -1.6450 O.co2 157  ASP157     -0.2456
     80  OD2      -28.3540   41.5390   -2.0610 O.co2 157  ASP157     -0.2456
     81  N        -24.7550   37.9770   -0.4090 N.am  158  GLN158     -0.1979
     82  CA       -24.3500   37.5720    0.9470 C.3   158  GLN158      0.1601
     83  C        -24.8820   36.2170    1.2890 C.2   158  GLN158      0.2287
     84  O        -25.7020   36.0730    2.1990 O.2   158  GLN158     -0.2864
     85  CB       -24.8070   38.5660    1.9930 C.3   158  GLN158      0.0394
     86  CG       -24.4990   39.9550    1.5690 C.3   158  GLN158      0.0908
     87  CD       -24.0720   40.8360    2.6910 C.2   158  GLN158      0.2608
     88  OE1      -23.2020   41.6770    2.5240 O.2   158  GLN158     -0.2717
     89  NE2      -24.6980   40.6550    3.8700 N.am  158  GLN158     -0.0878
     90  N        -18.9910   40.2520    3.2900 N.3   190  HIS190     -0.1241
     91  CA       -18.4800   41.1670    4.2850 C.3   190  HIS190      0.1621
     92  C        -17.2850   40.5700    5.0070 C.2   190  HIS190      0.2264
     93  O        -16.7300   41.2240    5.8760 O.2   190  HIS190     -0.2867
     94  CB       -19.5360   41.5590    5.2990 C.3   190  HIS190      0.0745
     95  CG       -20.3060   42.7740    4.9090 C.ar  190  HIS190      0.0817
     96  ND1      -21.6700   42.7480    4.6820 N.ar  190  HIS190     -0.2268
     97  CD2      -19.9010   44.0420    4.6610 C.ar  190  HIS190      0.1154
     98  CE1      -22.0740   43.9560    4.3320 C.ar  190  HIS190      0.1986
     99  NE2      -21.0200   44.7570    4.3070 N.ar  190  HIS190     -0.2212
@<TRIPOS>BOND
     1    60    59    2
     2    59    58    1
     3    63    61    1
     4    58    61    1
     5    58    57    1
     6     1     2    1
     7    61    62    1
     8    54    53    2
     9    45    44    2
    10    41    40    2
    11     2     3    1
    12     2     5    1
    13    57    53   am
    14    10    11    2
    15    10     9    1
    16    53    52    1
    17    13    14    1
    18    13    12    1
    19     8     3   am
    20     8     9    1
    21     6     5    1
    22    44    43    1
    23    44    51   am
    24    15    14    1
    25    15    16    2
    26     3     4    2
    27    18    16    1
    28    16    17    1
    29     5     7    1
    30     9    12    1
    31    40    42   am
    32    40    39    1
    33    43    42    1
    34    43    46    1
    35    73    74    1
    36    52    51    1
    37    52    55    1
    38    39    38    1
    39    46    47    1
    40    77    74    1
    41    77    78    1
    42    74    75    1
    43    80    78   ar
    44    78    79   ar
    45    47    48    1
    46    55    56    1
    47    64    65    1
    48    75    81   am
    49    75    76    2
    50    48    49    1
    51    81    82    1
    52    65    68    1
    53    65    66    1
    54    49    50    1
    55    37    36    2
    56    68    69    1
    57    82    83    1
    58    82    85    1
    59    36    35    1
    60    83    84    2
    61    66    67    2
    62    86    85    1
    63    86    87    1
    64    72    70   am
    65    25    19    1
    66    25    24    1
    67    69    70    1
    68    35    34    1
    69    88    87    2
    70    70    71    2
    71    22    21    2
    72    19    20    1
    73    87    89   am
    74    24    23    1
    75    34    28   am
    76    90    91    1
    77    21    20    1
    78    21    26   am
    79    20    23    1
    80    28    29    2
    81    28    27    1
    82    91    92    1
    83    91    94    1
    84    99    98   ar
    85    99    97   ar
    86    98    96   ar
    87    97    95   ar
    88    96    95   ar
    89    27    26    1
    90    27    30    1
    91    95    94    1
    92    92    93    2
    93    30    31    1
    94    32    31    2
    95    31    33   am
