@<TRIPOS>MOLECULE
tmp/4r9uD00.pdb
 73 69 0 0 0
SMALL
GASTEIGER

@<TRIPOS>ATOM
      1  N        -38.4720   17.5220    4.8830 N.3   121  ARG121     -0.1245
      2  CA       -38.9420   18.4670    5.8700 C.3   121  ARG121      0.1563
      3  C        -39.5030   19.7310    5.2090 C.2   121  ARG121      0.2260
      4  O        -39.0840   20.1000    4.1060 O.2   121  ARG121     -0.2867
      5  CB       -37.7900   18.7880    6.8120 C.3   121  ARG121      0.0307
      6  CG       -38.2220   19.3790    8.1020 C.3   121  ARG121      0.0489
      7  CD       -37.6860   18.5430    9.2320 C.3   121  ARG121      0.2205
      8  NE       -36.2370   18.4230    9.1660 N.pl3 121  ARG121     -0.0865
      9  CZ       -35.4050   19.0990    9.9570 C.cat 121  ARG121      0.5346
     10  NH1      -35.8900   19.9450   10.8640 N.pl3 121  ARG121      0.1354
     11  NH2      -34.0900   18.9360    9.8510 N.pl3 121  ARG121      0.1354
     12  N        -40.3810   26.0520    6.2470 N.3   124  ASN124     -0.1225
     13  CA       -40.6210   26.9660    7.3710 C.3   124  ASN124      0.1785
     14  C        -40.2970   26.3110    8.7020 C.2   124  ASN124      0.2597
     15  O        -40.6140   26.8440    9.7690 O.2   124  ASN124     -0.2718
     16  CB       -42.0750   27.4780    7.4010 C.3   124  ASN124      0.1169
     17  CG       -43.0990   26.3510    7.4400 C.2   124  ASN124      0.2627
     18  OD1      -42.9910   25.3740    6.6910 O.2   124  ASN124     -0.2716
     19  ND2      -44.0700   26.4570    8.3400 N.am  124  ASN124     -0.0877
     20  N        -39.6790   25.1430    8.6360 N.am  125  GLN125     -0.1965
     21  CA       -39.3340   24.3760    9.8250 C.3   125  GLN125      0.1733
     22  C        -37.8590   24.0140    9.8160 C.2   125  GLN125      0.2616
     23  O        -37.4900   22.8640   10.0880 O.2   125  GLN125     -0.2715
     24  CB       -40.1900   23.1190    9.9110 C.3   125  GLN125      0.0408
     25  CG       -41.6040   23.3520   10.4110 C.3   125  GLN125      0.0908
     26  CD       -42.3630   22.0480   10.5510 C.2   125  GLN125      0.2608
     27  OE1      -41.8970   20.9980   10.0900 O.2   125  GLN125     -0.2717
     28  NE2      -43.5420   22.1030   11.1620 N.am  125  GLN125     -0.0878
     29  N        -37.0140   24.9780    9.4690 N.am  126  LEU126     -0.1963
     30  CA       -35.5750   24.7510    9.4870 C.3   126  LEU126      0.1728
     31  C        -34.8280   25.7780   10.3320 C.2   126  LEU126      0.2617
     32  O        -35.3840   26.8030   10.7280 O.2   126  LEU126     -0.2715
     33  CB       -35.0140   24.7710    8.0790 C.3   126  LEU126      0.0311
     34  CG       -35.6270   23.7830    7.1040 C.3   126  LEU126      0.0022
     35  CD1      -35.1040   24.0860    5.7190 C.3   126  LEU126      0.0001
     36  CD2      -35.2880   22.3790    7.5270 C.3   126  LEU126      0.0001
     37  N        -33.5640   25.4940   10.6190 N.am  127  SER127     -0.1936
     38  CA       -32.6920   26.4930   11.2120 C.3   127  SER127      0.2055
     39  C        -32.4720   27.6050   10.1970 C.2   127  SER127      0.2644
     40  O        -32.8600   27.4810    9.0410 O.2   127  SER127     -0.2714
     41  CB       -31.3630   25.8780   11.6390 C.3   127  SER127      0.2130
     42  OG       -30.2610   26.5240   11.0140 O.3   127  SER127     -0.2179
     43  N        -31.8710   28.7040   10.6360 N.am  128  GLY128     -0.1939
     44  CA       -31.6150   29.8170    9.7370 C.3   128  GLY128      0.2014
     45  C        -30.6330   29.3590    8.6860 C.2   128  GLY128      0.2639
     46  O        -30.8450   29.5140    7.4680 O.2   128  GLY128     -0.2714
     47  N        -29.5650   28.7310    9.1610 N.am  129  GLY129     -0.1939
     48  CA       -28.5500   28.2070    8.2670 C.3   129  GLY129      0.2014
     49  C        -29.0850   27.1730    7.2920 C.2   129  GLY129      0.2638
     50  O        -28.7600   27.2180    6.0980 O.2   129  GLY129     -0.2714
     51  N        -29.8820   26.2370    7.7900 N.am  130  GLU130     -0.1977
     52  CA       -30.4440   25.1860    6.9480 C.3   130  GLU130      0.1602
     53  C        -31.2640   25.7150    5.7730 C.2   130  GLU130      0.2287
     54  O        -31.0330   25.3510    4.6230 O.2   130  GLU130     -0.2864
     55  CB       -31.2670   24.2310    7.8140 C.3   130  GLU130      0.0415
     56  CG       -30.3920   23.5230    8.8590 C.3   130  GLU130      0.1163
     57  CD       -31.1590   22.5800    9.7830 C.2   130  GLU130      0.3649
     58  OE1      -32.2580   22.9610   10.2290 O.co2 130  GLU130     -0.2457
     59  OE2      -30.6490   21.4790   10.0990 O.co2 130  GLU130     -0.2457
     60  N        -24.8310   33.1400    8.1550 N.3   162  SER162     -0.1217
     61  CA       -25.6070   32.1600    8.9340 C.3   162  SER162      0.1889
     62  C        -25.2080   30.6910    8.6620 C.2   162  SER162      0.2288
     63  O        -25.7880   29.7670    9.2300 O.2   162  SER162     -0.2866
     64  CB       -27.1190   32.3180    8.7030 C.3   162  SER162      0.2089
     65  OG       -27.5370   31.5810    7.5670 O.3   162  SER162     -0.2183
     66  N        -22.5010   27.6380    9.0190 N.3   164  ASP164     -0.1239
     67  CA       -21.3960   27.2600    9.9400 C.3   164  ASP164      0.1674
     68  C        -20.0920   27.1330    9.1320 C.2   164  ASP164      0.2266
     69  O        -20.1170   27.1180    7.8960 O.2   164  ASP164     -0.2867
     70  CB       -21.6970   25.9680   10.7610 C.3   164  ASP164      0.1410
     71  CG       -21.8350   24.6820    9.9050 C.2   164  ASP164      0.3668
     72  OD1      -21.0370   24.4740    8.9690 O.co2 164  ASP164     -0.2456
     73  OD2      -22.7240   23.8310   10.2030 O.co2 164  ASP164     -0.2456
@<TRIPOS>BOND
     1     4     3    2
     2    54    53    2
     3     1     2    1
     4     3     2    1
     5    35    34    1
     6    53    52    1
     7     2     5    1
     8    50    49    2
     9    12    13    1
    10    18    17    2
    11     5     6    1
    12    52    51    1
    13    52    55    1
    14    34    36    1
    15    34    33    1
    16    49    51   am
    17    49    48    1
    18    13    16    1
    19    13    14    1
    20    16    17    1
    21    17    19   am
    22    46    45    2
    23    65    64    1
    24    55    56    1
    25    69    68    2
    26    33    30    1
    27     6     7    1
    28    60    61    1
    29    48    47    1
    30    20    14   am
    31    20    21    1
    32    62    61    1
    33    62    63    2
    34    45    47   am
    35    45    44    1
    36    14    15    2
    37    64    61    1
    38    56    57    1
    39    72    71   ar
    40    66    67    1
    41    40    39    2
    42    68    67    1
    43     8     7    1
    44     8     9    2
    45    29    30    1
    46    29    22   am
    47    30    31    1
    48    44    43    1
    49    57    59   ar
    50    57    58   ar
    51    22    21    1
    52    22    23    2
    53    21    24    1
    54    11     9    1
    55    71    73   ar
    56    71    70    1
    57    24    25    1
    58    67    70    1
    59     9    10    1
    60    27    26    2
    61    39    43   am
    62    39    38    1
    63    31    37   am
    64    31    32    2
    65    25    26    1
    66    26    28   am
    67    37    38    1
    68    42    41    1
    69    38    41    1
