@<TRIPOS>MOLECULE
tmp/4r9xA00.pdb
 115 110 0 0 0
SMALL
GASTEIGER

@<TRIPOS>ATOM
      1  N         11.9330   15.7640   32.0760 N.3    23  GLU23      -0.1245
      2  CA        12.8200   15.2680   33.1030 C.3    23  GLU23       0.1567
      3  C         13.9860   14.6550   32.3800 C.2    23  GLU23       0.2260
      4  O         13.8180   13.7300   31.5880 O.2    23  GLU23      -0.2867
      5  CB        12.1650   14.2470   34.0230 C.3    23  GLU23       0.0388
      6  CG        13.0570   13.9260   35.1940 C.3    23  GLU23       0.1160
      7  CD        12.5760   12.7530   35.9900 C.2    23  GLU23       0.3649
      8  OE1       12.6210   11.6240   35.4700 O.co2  23  GLU23      -0.2457
      9  OE2       12.1530   12.9510   37.1440 O.co2  23  GLU23      -0.2457
     10  N         16.7770    4.9380   32.2280 N.3    28  TYR28      -0.1227
     11  CA        15.3980    4.7110   32.6120 C.3    28  TYR28       0.1736
     12  C         15.2940    3.4590   33.4640 C.2    28  TYR28       0.2596
     13  O         14.4520    3.3630   34.3530 O.2    28  TYR28      -0.2718
     14  CB        14.5210    4.5690   31.3680 C.3    28  TYR28       0.0548
     15  CG        13.0480    4.3700   31.6690 C.ar   28  TYR28      -0.0200
     16  CD1       12.1970    5.4590   31.7920 C.ar   28  TYR28      -0.0009
     17  CD2       12.5080    3.0960   31.8360 C.ar   28  TYR28      -0.0009
     18  CE1       10.8540    5.2960   32.0620 C.ar   28  TYR28       0.0417
     19  CE2       11.1580    2.9210   32.1160 C.ar   28  TYR28       0.0417
     20  CZ        10.3400    4.0310   32.2220 C.ar   28  TYR28       0.1957
     21  OH         8.9980    3.8890   32.4880 O.3    28  TYR28      -0.2866
     22  N         16.1620    2.4970   33.1730 N.am   29  THR29      -0.1939
     23  CA        16.1060    1.1980   33.8180 C.3    29  THR29       0.2028
     24  C         16.2010    1.2950   35.3290 C.2    29  THR29       0.2642
     25  O         15.5160    0.5730   36.0550 O.2    29  THR29      -0.2714
     26  CB        17.2310    0.2900   33.3490 C.3    29  THR29       0.1808
     27  OG1       17.5610    0.5980   31.9970 O.3    29  THR29      -0.2208
     28  CG2       16.7600   -1.1190   33.4070 C.3    29  THR29       0.0379
     29  N         17.0620    2.1890   35.7970 N.am   30  GLU30      -0.1963
     30  CA        17.3550    2.2760   37.2240 C.3    30  GLU30       0.1733
     31  C         16.6430    3.4700   37.8450 C.2    30  GLU30       0.2616
     32  O         17.0130    3.9450   38.9170 O.2    30  GLU30      -0.2715
     33  CB        18.8740    2.3440   37.4560 C.3    30  GLU30       0.0429
     34  CG        19.5900    1.0440   37.0790 C.3    30  GLU30       0.1163
     35  CD        21.1080    1.1120   37.1870 C.2    30  GLU30       0.3649
     36  OE1       21.6340    1.8330   38.0660 O.co2  30  GLU30      -0.2457
     37  OE2       21.7780    0.4260   36.3840 O.co2  30  GLU30      -0.2457
     38  N         15.5990    3.9370   37.1750 N.am   31  GLY31      -0.1955
     39  CA        14.7770    5.0010   37.7200 C.3    31  GLY31       0.1869
     40  C         15.2750    6.3810   37.3500 C.2    31  GLY31       0.2309
     41  O         14.6260    7.3760   37.6710 O.2    31  GLY31      -0.2863
     42  N         20.8120   12.4510   40.9540 N.3    55  ARG55      -0.1245
     43  CA        20.6890   11.1710   41.5970 C.3    55  ARG55       0.1563
     44  C         21.9040   10.3680   41.1880 C.2    55  ARG55       0.2260
     45  O         22.0570    9.9890   40.0330 O.2    55  ARG55      -0.2867
     46  CB        19.3780   10.4970   41.2010 C.3    55  ARG55       0.0307
     47  CG        19.1470    9.1160   41.7730 C.3    55  ARG55       0.0489
     48  CD        17.7350    8.6090   41.4070 C.3    55  ARG55       0.2205
     49  NE        17.3990    7.3400   42.0570 N.pl3  55  ARG55      -0.0865
     50  CZ        17.0370    6.2300   41.4190 C.cat  55  ARG55       0.5346
     51  NH1       16.9450    6.2080   40.0980 N.pl3  55  ARG55       0.1354
     52  NH2       16.7500    5.1360   42.1070 N.pl3  55  ARG55       0.1354
     53  N         18.3430    5.8860   48.6050 N.3    61  PHE61      -0.1241
     54  CA        18.1590    7.3280   48.6260 C.3    61  PHE61       0.1605
     55  C         18.7800    7.9040   49.8760 C.2    61  PHE61       0.2264
     56  O         18.5360    9.0520   50.2380 O.2    61  PHE61      -0.2867
     57  CB        16.6890    7.6940   48.5380 C.3    61  PHE61       0.0534
     58  CG        16.0580    7.2690   47.2590 C.ar   61  PHE61      -0.0203
     59  CD1       16.4180    7.8730   46.0680 C.ar   61  PHE61      -0.0042
     60  CD2       15.1280    6.2450   47.2360 C.ar   61  PHE61      -0.0042
     61  CE1       15.8500    7.4780   44.8780 C.ar   61  PHE61      -0.0003
     62  CE2       14.5610    5.8400   46.0490 C.ar   61  PHE61      -0.0003
     63  CZ        14.9310    6.4570   44.8670 C.ar   61  PHE61      -0.0000
     64  N         15.9150   17.5790   40.1400 N.3    85  VAL85      -0.1245
     65  CA        15.0200   16.5420   40.6050 C.3    85  VAL85       0.1561
     66  C         15.8450   15.7140   41.5580 C.2    85  VAL85       0.2260
     67  O         16.8070   15.0660   41.1430 O.2    85  VAL85      -0.2867
     68  CB        14.4800   15.6770   39.4440 C.3    85  VAL85       0.0252
     69  CG1       13.6260   14.5500   39.9730 C.3    85  VAL85       0.0019
     70  CG2       13.6870   16.5190   38.4640 C.3    85  VAL85       0.0019
     71  N         11.5070   13.8920   44.5480 N.3   115  HIS115     -0.1226
     72  CA        10.9740   12.8490   43.6910 C.3   115  HIS115      0.1752
     73  C         10.5110   11.5890   44.4270 C.2   115  HIS115      0.2595
     74  O         10.2330   11.6100   45.6330 O.2   115  HIS115     -0.2718
     75  CB        12.0030   12.4870   42.5930 C.3   115  HIS115      0.0759
     76  CG        13.3550   12.0620   43.0990 C.ar  115  HIS115      0.0818
     77  ND1       13.5280   11.0590   44.0280 N.ar  115  HIS115     -0.2268
     78  CD2       14.5990   12.4700   42.7550 C.ar  115  HIS115      0.1154
     79  CE1       14.8180   10.8830   44.2530 C.ar  115  HIS115      0.1986
     80  NE2       15.4910   11.7260   43.4930 N.ar  115  HIS115     -0.2212
     81  N         10.4290   10.4940   43.6780 N.am  116  ARG116     -0.1980
     82  CA         9.7510    9.2780   44.1160 C.3   116  ARG116      0.1597
     83  C         10.4510    8.5480   45.2610 C.2   116  ARG116      0.2287
     84  O         10.0750    7.4250   45.6300 O.2   116  ARG116     -0.2864
     85  CB         9.5690    8.3420   42.9210 C.3   116  ARG116      0.0334
     86  CG         8.5530    8.8730   41.9070 C.3   116  ARG116      0.0492
     87  CD         8.5690    8.0900   40.5980 C.3   116  ARG116      0.2205
     88  NE         9.9310    7.8820   40.1180 N.pl3 116  ARG116     -0.0865
     89  CZ        10.2550    7.1000   39.0960 C.cat 116  ARG116      0.5346
     90  NH1       11.5280    6.9600   38.7380 N.pl3 116  ARG116      0.1354
     91  NH2        9.3030    6.4520   38.4420 N.pl3 116  ARG116      0.1354
     92  N          7.7790    7.8740   47.5810 N.3   119  ASP119     -0.1225
     93  CA         6.9470    6.6750   47.4760 C.3   119  ASP119      0.1805
     94  C          7.4290    5.5800   48.4080 C.2   119  ASP119      0.2597
     95  O          6.6910    4.6510   48.7080 O.2   119  ASP119     -0.2718
     96  CB         6.9220    6.1410   46.0440 C.3   119  ASP119      0.1424
     97  CG         6.1560    7.0370   45.1010 C.2   119  ASP119      0.3668
     98  OD1        5.2390    7.7420   45.5760 O.co2 119  ASP119     -0.2456
     99  OD2        6.4700    7.0330   43.8920 O.co2 119  ASP119     -0.2456
    100  N          8.6800    5.6830   48.8500 N.am  120  ASP120     -0.1974
    101  CA         9.2480    4.6870   49.7470 C.3   120  ASP120      0.1709
    102  C          9.0180    5.0760   51.2130 C.2   120  ASP120      0.2293
    103  O          9.4850    4.3920   52.1160 O.2   120  ASP120     -0.2864
    104  CB        10.7400    4.4890   49.4550 C.3   120  ASP120      0.1436
    105  CG        11.0050    3.4010   48.4020 C.2   120  ASP120      0.3671
    106  OD1       10.0450    2.8680   47.8040 O.co2 120  ASP120     -0.2456
    107  OD2       12.1880    3.0780   48.1670 O.co2 120  ASP120     -0.2456
    108  N          7.1300   14.5870   42.9150 N.3   140  LEU140     -0.1245
    109  CA         6.8370   13.4980   41.9970 C.3   140  LEU140      0.1561
    110  C          6.5150   12.2200   42.7860 C.2   140  LEU140      0.2260
    111  O          7.3850   11.6340   43.4280 O.2   140  LEU140     -0.2867
    112  CB         8.0160   13.2650   41.0470 C.3   140  LEU140      0.0270
    113  CG         7.8380   12.1050   40.0760 C.3   140  LEU140      0.0019
    114  CD1        6.7380   12.4450   39.0920 C.3   140  LEU140      0.0001
    115  CD2        9.1550   11.7820   39.3600 C.3   140  LEU140      0.0001
@<TRIPOS>BOND
     1    14    15    1
     2    14    11    1
     3     4     3    2
     4    15    16   ar
     5    15    17   ar
     6    16    18   ar
     7    17    19   ar
     8    27    26    1
     9    18    20   ar
    10     1     2    1
    11    19    20   ar
    12    20    21    1
    13    10    11    1
    14     3     2    1
    15    11    12    1
    16     2     5    1
    17    22    12   am
    18    22    23    1
    19    26    28    1
    20    26    23    1
    21    12    13    2
    22    23    24    1
    23     5     6    1
    24     6     7    1
    25    24    29   am
    26    24    25    2
    27     8     7   ar
    28    29    30    1
    29     7     9   ar
    30    37    35   ar
    31    34    35    1
    32    34    33    1
    33    38    39    1
    34    38    31   am
    35    35    36   ar
    36    30    33    1
    37    30    31    1
    38    40    41    2
    39    40    39    1
    40    31    32    2
    41    91    89    1
    42    70    68    1
    43    90    89    1
    44   114   113    1
    45    89    88    2
    46   115   113    1
    47    68    69    1
    48    68    65    1
    49    45    44    2
    50   113   112    1
    51    51    50    1
    52    88    87    1
    53    64    65    1
    54    87    86    1
    55    65    66    1
    56    42    43    1
    57   112   109    1
    58    67    66    2
    59    44    43    1
    60    46    43    1
    61    46    47    1
    62    48    47    1
    63    48    49    1
    64    50    49    2
    65    50    52    1
    66    86    85    1
    67   109   110    1
    68   109   108    1
    69    75    76    1
    70    75    72    1
    71    78    76   ar
    72    78    80   ar
    73   110   111    2
    74    85    82    1
    75    76    77   ar
    76    80    79   ar
    77    81    82    1
    78    81    73   am
    79    72    73    1
    80    72    71    1
    81    99    97   ar
    82    77    79   ar
    83    82    83    1
    84    73    74    2
    85    63    61   ar
    86    63    62   ar
    87    61    59   ar
    88    97    98   ar
    89    97    96    1
    90    83    84    2
    91    96    93    1
    92    62    60   ar
    93    59    58   ar
    94    60    58   ar
    95    58    57    1
    96    93    92    1
    97    93    94    1
    98   106   105   ar
    99   107   105   ar
   100   105   104    1
   101    94    95    2
   102    94   100   am
   103    57    54    1
   104    53    54    1
   105    54    55    1
   106   100   101    1
   107   104   101    1
   108   101   102    1
   109    55    56    2
   110   102   103    2
