@<TRIPOS>MOLECULE
tmp/4ra0A00.pdb
 84 80 0 0 0
SMALL
GASTEIGER

@<TRIPOS>ATOM
      1  N         15.7910  -30.2990   29.0050 N.3    28  ARG28      -0.1245
      2  CA        15.5150  -28.9220   29.3780 C.3    28  ARG28       0.1563
      3  C         15.3890  -28.8430   30.8910 C.2    28  ARG28       0.2260
      4  O         14.4750  -29.4290   31.4620 O.2    28  ARG28      -0.2867
      5  CB        14.2210  -28.4590   28.7150 C.3    28  ARG28       0.0307
      6  CG        14.4230  -27.9230   27.3050 C.3    28  ARG28       0.0489
      7  CD        13.1840  -27.9860   26.4170 C.3    28  ARG28       0.2205
      8  NE        11.9650  -27.5580   27.1020 N.pl3  28  ARG28      -0.0865
      9  CZ        10.7660  -27.4860   26.5260 C.cat  28  ARG28       0.5346
     10  NH1       10.6230  -27.7940   25.2390 N.pl3  28  ARG28       0.1354
     11  NH2        9.7050  -27.0910   27.2330 N.pl3  28  ARG28       0.1354
     12  N         15.1490  -26.4080   34.4940 N.3    30  ARG30      -0.1245
     13  CA        14.6120  -25.1350   34.9520 C.3    30  ARG30       0.1563
     14  C         14.8660  -24.9550   36.4430 C.2    30  ARG30       0.2260
     15  O         14.3630  -25.7280   37.2500 O.2    30  ARG30      -0.2867
     16  CB        13.1260  -25.0800   34.6610 C.3    30  ARG30       0.0307
     17  CG        12.4750  -23.7550   34.9990 C.3    30  ARG30       0.0489
     18  CD        11.0540  -23.7730   34.4830 C.3    30  ARG30       0.2205
     19  NE        10.3850  -22.4820   34.6020 N.pl3  30  ARG30      -0.0865
     20  CZ         9.0710  -22.3100   34.4680 C.cat  30  ARG30       0.5346
     21  NH1        8.2690  -23.3510   34.2260 N.pl3  30  ARG30       0.1354
     22  NH2        8.5460  -21.0950   34.5910 N.pl3  30  ARG30       0.1354
     23  N         20.3950  -19.4720   30.6460 N.3    58  GLY58      -0.1210
     24  CA        19.9720  -18.1010   30.8810 C.3    58  GLY58       0.1956
     25  C         18.4680  -17.9750   30.8770 C.2    58  GLY58       0.2612
     26  O         17.7770  -18.8030   31.4640 O.2    58  GLY58      -0.2717
     27  N         17.9690  -16.9470   30.1930 N.am   59  GLY59      -0.1942
     28  CA        16.5480  -16.6320   30.1930 C.3    59  GLY59       0.2014
     29  C         15.9200  -16.5200   28.8180 C.2    59  GLY59       0.2638
     30  O         16.2180  -17.3040   27.9200 O.2    59  GLY59      -0.2714
     31  N         15.0380  -15.5320   28.6670 N.am   60  HIS60      -0.1973
     32  CA        14.2590  -15.3250   27.4460 C.3    60  HIS60       0.1656
     33  C         15.1580  -15.2270   26.2050 C.2    60  HIS60       0.2291
     34  O         16.3360  -14.8770   26.3180 O.2    60  HIS60      -0.2864
     35  CB        13.3940  -14.0610   27.6090 C.3    60  HIS60       0.0771
     36  CG        12.5900  -13.7090   26.3950 C.ar   60  HIS60       0.0820
     37  ND1       12.9620  -12.7120   25.5190 N.ar   60  HIS60      -0.2267
     38  CD2       11.4400  -14.2290   25.9060 C.ar   60  HIS60       0.1154
     39  CE1       12.0740  -12.6310   24.5440 C.ar   60  HIS60       0.1986
     40  NE2       11.1400  -13.5410   24.7550 N.ar   60  HIS60      -0.2212
     41  N         18.2250  -14.6800   36.9780 N.3   131  GLN131     -0.1245
     42  CA        17.4820  -13.4180   36.9500 C.3   131  GLN131      0.1566
     43  C         16.4420  -13.3740   38.0550 C.2   131  GLN131      0.2260
     44  O         15.6940  -14.3210   38.2400 O.2   131  GLN131     -0.2867
     45  CB        16.8040  -13.2040   35.5860 C.3   131  GLN131      0.0367
     46  CG        17.7490  -12.8250   34.4370 C.3   131  GLN131      0.0905
     47  CD        18.5880  -11.5670   34.7080 C.2   131  GLN131      0.2608
     48  OE1       19.7620  -11.5110   34.3610 O.2   131  GLN131     -0.2717
     49  NE2       17.9870  -10.5620   35.3320 N.am  131  GLN131     -0.0878
     50  N         13.0370  -12.9200   39.7750 N.3   133  GLU133     -0.1245
     51  CA        11.6120  -12.8460   39.4490 C.3   133  GLU133      0.1567
     52  C         10.8330  -13.4150   40.6380 C.2   133  GLU133      0.2260
     53  O         11.0610  -14.5530   41.0340 O.2   133  GLU133     -0.2867
     54  CB        11.2900  -13.6280   38.1680 C.3   133  GLU133      0.0388
     55  CG         9.8490  -13.5830   37.7620 C.3   133  GLU133      0.1160
     56  CD         9.5110  -14.2300   36.4550 C.2   133  GLU133      0.3649
     57  OE1       10.3680  -14.8240   35.8350 O.co2 133  GLU133     -0.2457
     58  OE2        8.3430  -14.3230   36.0460 O.co2 133  GLU133     -0.2457
     59  N         15.8510  -17.1400   38.9160 N.3   138  HIS138     -0.1226
     60  CA        15.5180  -18.1000   37.8720 C.3   138  HIS138      0.1752
     61  C         16.6510  -18.2990   36.8670 C.2   138  HIS138      0.2596
     62  O         17.3770  -17.3650   36.5430 O.2   138  HIS138     -0.2718
     63  CB        14.2610  -17.6360   37.1270 C.3   138  HIS138      0.0759
     64  CG        13.0250  -17.6150   37.9760 C.ar  138  HIS138      0.0818
     65  ND1       11.8860  -18.3240   37.6510 N.ar  138  HIS138     -0.2268
     66  CD2       12.7510  -16.9760   39.1400 C.ar  138  HIS138      0.1154
     67  CE1       10.9660  -18.1220   38.5770 C.ar  138  HIS138      0.1986
     68  NE2       11.4650  -17.3090   39.4920 N.ar  138  HIS138     -0.2212
     69  N         16.7890  -19.5320   36.3880 N.am  139  LEU139     -0.1966
     70  CA        17.6500  -19.8510   35.2620 C.3   139  LEU139      0.1728
     71  C         17.1460  -21.1060   34.5660 C.2   139  LEU139      0.2616
     72  O         16.8300  -22.0980   35.2130 O.2   139  LEU139     -0.2715
     73  CB        19.0870  -20.0740   35.7140 C.3   139  LEU139      0.0311
     74  CG        20.0390  -20.5560   34.6000 C.3   139  LEU139      0.0022
     75  CD1       20.9000  -19.4300   34.0620 C.3   139  LEU139      0.0001
     76  CD2       20.9290  -21.6820   35.1030 C.3   139  LEU139      0.0001
     77  N         17.0850  -21.0330   33.2410 N.am  140  ASN140     -0.1972
     78  CA        16.7500  -22.1550   32.3730 C.3   140  ASN140      0.1688
     79  C         18.0190  -22.6820   31.7230 C.2   140  ASN140      0.2292
     80  O         18.8680  -21.9070   31.3010 O.2   140  ASN140     -0.2864
     81  CB        15.8330  -21.6860   31.2450 C.3   140  ASN140      0.1181
     82  CG        14.3700  -21.6300   31.6350 C.2   140  ASN140      0.2629
     83  OD1       13.9340  -22.2790   32.5780 O.2   140  ASN140     -0.2716
     84  ND2       13.6000  -20.8440   30.8780 N.am  140  ASN140     -0.0877
@<TRIPOS>BOND
     1    39    40   ar
     2    39    37   ar
     3    40    38   ar
     4    10     9    1
     5    37    36   ar
     6    38    36   ar
     7    33    34    2
     8    33    32    1
     9    36    35    1
    10     7     8    1
    11     7     6    1
    12     9     8    2
    13     9    11    1
    14     6     5    1
    15    32    35    1
    16    32    31    1
    17    30    29    2
    18    31    29   am
    19     5     2    1
    20    29    28    1
    21     1     2    1
    22     2     3    1
    23    28    27    1
    24    27    25   am
    25    23    24    1
    26    25    24    1
    27    25    26    2
    28    84    82   am
    29     3     4    2
    30    81    82    1
    31    81    78    1
    32    80    79    2
    33    82    83    2
    34    79    78    1
    35    78    77    1
    36    77    71   am
    37    75    74    1
    38    21    20    1
    39    48    47    2
    40    46    47    1
    41    46    45    1
    42    20    22    1
    43    20    19    2
    44    18    19    1
    45    18    17    1
    46    12    13    1
    47    71    72    2
    48    71    70    1
    49    74    76    1
    50    74    73    1
    51    16    13    1
    52    16    17    1
    53    47    49   am
    54    13    14    1
    55    70    73    1
    56    70    69    1
    57    45    42    1
    58    57    56   ar
    59    58    56   ar
    60    69    61   am
    61    14    15    2
    62    56    55    1
    63    62    61    2
    64    61    60    1
    65    42    41    1
    66    42    43    1
    67    63    60    1
    68    63    64    1
    69    65    64   ar
    70    65    67   ar
    71    55    54    1
    72    60    59    1
    73    64    66   ar
    74    43    44    2
    75    54    51    1
    76    67    68   ar
    77    66    68   ar
    78    51    50    1
    79    51    52    1
    80    52    53    2
