@<TRIPOS>MOLECULE
tmp/4ra1A00.pdb
 160 158 0 0 0
SMALL
GASTEIGER

@<TRIPOS>ATOM
      1  N        -10.6070  -22.4070   16.4880 N.3    21  ILE21      -0.1231
      2  CA       -11.6520  -23.3350   16.0150 C.3    21  ILE21       0.1692
      3  C        -12.4840  -23.8540   17.1990 C.2    21  ILE21       0.2593
      4  O        -11.9590  -24.5330   18.0800 O.2    21  ILE21      -0.2718
      5  CB       -11.1100  -24.4600   15.1000 C.3    21  ILE21       0.0266
      6  CG1      -10.6420  -23.8600   13.7400 C.3    21  ILE21       0.0019
      7  CG2      -12.1770  -25.5380   14.8920 C.3    21  ILE21       0.0020
      8  CD1       -9.6890  -24.7750   12.8630 C.3    21  ILE21       0.0001
      9  N        -13.7750  -23.4890   17.2010 N.am   22  SER22      -0.1938
     10  CA       -14.7560  -23.7740   18.2530 C.3    22  SER22       0.2055
     11  C        -16.1020  -23.1650   17.8510 C.2    22  SER22       0.2643
     12  O        -16.2080  -22.6150   16.7640 O.2    22  SER22      -0.2714
     13  CB       -14.3220  -23.1480   19.5840 C.3    22  SER22       0.2130
     14  OG       -14.3260  -21.7260   19.5120 O.3    22  SER22      -0.2179
     15  N        -17.1090  -23.2070   18.7370 N.am   23  ASN23      -0.1971
     16  CA       -18.4000  -22.5620   18.4320 C.3    23  ASN23       0.1688
     17  C        -18.2700  -21.0450   18.5620 C.2    23  ASN23       0.2292
     18  O        -19.0900  -20.3000   18.0270 O.2    23  ASN23      -0.2864
     19  CB       -19.4710  -23.0250   19.4350 C.3    23  ASN23       0.1181
     20  CG       -19.9420  -24.4530   19.2490 C.2    23  ASN23       0.2629
     21  OD1      -19.4370  -25.2240   18.4190 O.2    23  ASN23      -0.2716
     22  ND2      -20.9030  -24.8340   20.0340 N.am   23  ASN23      -0.0877
     23  N         -3.5550  -28.8510   17.5300 N.3   110  LEU110     -0.1245
     24  CA        -4.3730  -29.6850   16.6470 C.3   110  LEU110      0.1561
     25  C         -4.1000  -29.5000   15.1460 C.2   110  LEU110      0.2260
     26  O         -4.7880  -30.1230   14.3280 O.2   110  LEU110     -0.2867
     27  CB        -5.8620  -29.4900   16.9820 C.3   110  LEU110      0.0270
     28  CG        -6.2760  -29.8590   18.4260 C.3   110  LEU110      0.0019
     29  CD1       -7.6260  -29.2560   18.7580 C.3   110  LEU110      0.0001
     30  CD2       -6.2640  -31.3960   18.6410 C.3   110  LEU110      0.0001
     31  N         -5.5610  -32.0830   12.3540 N.3   114  TYR114     -0.1241
     32  CA        -6.6720  -31.5730   11.5330 C.3   114  TYR114      0.1605
     33  C         -6.2780  -31.2680   10.0740 C.2   114  TYR114      0.2264
     34  O         -7.1410  -30.8790    9.2730 O.2   114  TYR114     -0.2867
     35  CB        -7.2770  -30.3150   12.1580 C.3   114  TYR114      0.0534
     36  CG        -8.0280  -30.4710   13.4760 C.ar  114  TYR114     -0.0201
     37  CD1       -8.2940  -31.7320   14.0150 C.ar  114  TYR114     -0.0009
     38  CD2       -8.4900  -29.3590   14.1680 C.ar  114  TYR114     -0.0009
     39  CE1       -8.9680  -31.8730   15.2350 C.ar  114  TYR114      0.0417
     40  CE2       -9.2190  -29.4910   15.3520 C.ar  114  TYR114      0.0417
     41  CZ        -9.4470  -30.7490   15.8870 C.ar  114  TYR114      0.1957
     42  OH       -10.1270  -30.8610   17.0760 O.3   114  TYR114     -0.2866
     43  N        -12.2740  -23.3620    7.8570 N.3   147  TRP147     -0.1241
     44  CA       -11.7560  -22.6010    9.0010 C.3   147  TRP147      0.1605
     45  C        -10.2930  -22.9730    9.3520 C.2   147  TRP147      0.2264
     46  O         -9.6810  -22.2910   10.1650 O.2   147  TRP147     -0.2867
     47  CB       -12.6740  -22.7620   10.2290 C.3   147  TRP147      0.0550
     48  CG       -12.9970  -24.1820   10.6520 C.ar  147  TRP147      0.0003
     49  CD1      -12.4220  -25.3430   10.2080 C.ar  147  TRP147      0.0946
     50  CD2      -13.9570  -24.5670   11.6500 C.ar  147  TRP147      0.0152
     51  NE1      -12.9570  -26.4230   10.8840 N.ar  147  TRP147     -0.2442
     52  CE2      -13.9330  -25.9770   11.7370 C.ar  147  TRP147      0.0810
     53  CE3      -14.8510  -23.8540   12.4640 C.ar  147  TRP147      0.0012
     54  CZ2      -14.7570  -26.6900   12.6240 C.ar  147  TRP147      0.0191
     55  CZ3      -15.6910  -24.5620   13.3260 C.ar  147  TRP147      0.0001
     56  CH2      -15.6210  -25.9590   13.4150 C.ar  147  TRP147      0.0015
     57  N        -22.7960  -22.9770   27.6110 N.3   344  TYR344     -0.1227
     58  CA       -21.9260  -22.7030   26.4550 C.3   344  TYR344      0.1736
     59  C        -22.6210  -23.3030   25.2340 C.2   344  TYR344      0.2595
     60  O        -22.6740  -22.6640   24.1800 O.2   344  TYR344     -0.2718
     61  CB       -20.5340  -23.3270   26.6450 C.3   344  TYR344      0.0548
     62  CG       -19.6160  -23.2280   25.4400 C.ar  344  TYR344     -0.0200
     63  CD1      -18.7700  -22.1310   25.2660 C.ar  344  TYR344     -0.0009
     64  CD2      -19.5110  -24.2800   24.5300 C.ar  344  TYR344     -0.0009
     65  CE1      -17.8570  -22.0790   24.2090 C.ar  344  TYR344      0.0417
     66  CE2      -18.6490  -24.2100   23.4370 C.ar  344  TYR344      0.0417
     67  CZ       -17.8130  -23.1150   23.2870 C.ar  344  TYR344      0.1957
     68  OH       -16.9380  -23.0790   22.2330 O.3   344  TYR344     -0.2866
     69  N        -23.1320  -24.5430   25.3710 N.am  345  TYR345     -0.1976
     70  CA       -23.9200  -25.1690   24.3120 C.3   345  TYR345      0.1639
     71  C        -25.3750  -24.8470   24.6210 C.2   345  TYR345      0.2290
     72  O        -25.7850  -24.9720   25.7670 O.2   345  TYR345     -0.2864
     73  CB       -23.7300  -26.6920   24.2730 C.3   345  TYR345      0.0560
     74  CG       -22.3220  -27.1070   23.9240 C.ar  345  TYR345     -0.0198
     75  CD1      -21.7740  -26.8080   22.6730 C.ar  345  TYR345     -0.0009
     76  CD2      -21.5220  -27.7730   24.8510 C.ar  345  TYR345     -0.0009
     77  CE1      -20.4650  -27.1640   22.3540 C.ar  345  TYR345      0.0417
     78  CE2      -20.2090  -28.1400   24.5390 C.ar  345  TYR345      0.0417
     79  CZ       -19.6860  -27.8230   23.2990 C.ar  345  TYR345      0.1957
     80  OH       -18.3880  -28.1500   23.0130 O.3   345  TYR345     -0.2866
     81  N        -19.6580  -31.9450   24.1660 N.3   387  TRP387     -0.1227
     82  CA       -18.8310  -31.3910   23.1030 C.3   387  TRP387      0.1737
     83  C        -19.7190  -31.2060   21.8700 C.2   387  TRP387      0.2596
     84  O        -20.9420  -31.4470   21.8900 O.2   387  TRP387     -0.2718
     85  CB       -17.6540  -32.3820   22.8240 C.3   387  TRP387      0.0564
     86  CG       -16.4950  -31.8630   22.0070 C.ar  387  TRP387      0.0003
     87  CD1      -16.0850  -30.5650   21.8780 C.ar  387  TRP387      0.0946
     88  CD2      -15.5990  -32.6530   21.1990 C.ar  387  TRP387      0.0152
     89  NE1      -14.9960  -30.4930   21.0280 N.ar  387  TRP387     -0.2442
     90  CE2      -14.6920  -31.7580   20.5800 C.ar  387  TRP387      0.0810
     91  CE3      -15.5050  -34.0320   20.9050 C.ar  387  TRP387      0.0012
     92  CZ2      -13.6490  -32.2020   19.7470 C.ar  387  TRP387      0.0191
     93  CZ3      -14.4740  -34.4740   20.0730 C.ar  387  TRP387      0.0001
     94  CH2      -13.5800  -33.5630   19.4770 C.ar  387  TRP387      0.0015
     95  N        -19.1170  -30.6930   20.8050 N.am  388  SER388     -0.1938
     96  CA       -19.7930  -30.5530   19.5130 C.3   388  SER388      0.2055
     97  C        -18.7320  -30.6800   18.4240 C.2   388  SER388      0.2643
     98  O        -17.5330  -30.4670   18.6990 O.2   388  SER388     -0.2714
     99  CB       -20.5290  -29.2120   19.4050 C.3   388  SER388      0.2130
    100  OG       -19.7390  -28.1560   18.8800 O.3   388  SER388     -0.2179
    101  N        -19.1730  -31.0250   17.2030 N.am  389  ASN389     -0.1957
    102  CA       -18.2650  -31.0810   16.0380 C.3   389  ASN389      0.1819
    103  C        -18.8880  -30.3650   14.8560 C.2   389  ASN389      0.2621
    104  O        -19.9690  -30.7430   14.3960 O.2   389  ASN389     -0.2715
    105  CB       -17.9440  -32.5280   15.6500 C.3   389  ASN389      0.1195
    106  CG       -16.8010  -33.1860   16.4020 C.2   389  ASN389      0.2630
    107  OD1      -16.2730  -32.7010   17.4460 O.2   389  ASN389     -0.2716
    108  ND2      -16.4030  -34.3380   15.9000 N.am  389  ASN389     -0.0877
    109  N        -18.2260  -29.3220   14.3850 N.am  390  GLY390     -0.1954
    110  CA       -18.6330  -28.6330   13.1620 C.3   390  GLY390      0.1869
    111  C        -18.1570  -29.4440   11.9620 C.2   390  GLY390      0.2309
    112  O        -16.9790  -29.7840   11.8800 O.2   390  GLY390     -0.2863
    113  N        -16.8700  -29.4730    8.7750 N.3   392  TRP392     -0.1241
    114  CA       -16.1600  -28.4390    8.0430 C.3   392  TRP392      0.1605
    115  C        -15.6920  -28.7040    6.6180 C.2   392  TRP392      0.2264
    116  O        -15.0160  -27.8520    6.0390 O.2   392  TRP392     -0.2867
    117  CB       -15.0230  -27.9070    8.9220 C.3   392  TRP392      0.0550
    118  CG       -14.0270  -28.9340    9.3810 C.ar  392  TRP392      0.0003
    119  CD1      -14.0780  -29.6710   10.5310 C.ar  392  TRP392      0.0946
    120  CD2      -12.7270  -29.1500    8.8260 C.ar  392  TRP392      0.0152
    121  NE1      -12.9120  -30.3890   10.6860 N.ar  392  TRP392     -0.2442
    122  CE2      -12.0560  -30.0690    9.6650 C.ar  392  TRP392      0.0810
    123  CE3      -12.0660  -28.6690    7.6780 C.ar  392  TRP392      0.0012
    124  CZ2      -10.7520  -30.5150    9.3990 C.ar  392  TRP392      0.0191
    125  CZ3      -10.7540  -29.0670    7.4500 C.ar  392  TRP392      0.0001
    126  CH2      -10.1270  -30.0070    8.2840 C.ar  392  TRP392      0.0015
    127  N        -15.9740  -34.7970   10.4470 N.3   399  THR399     -0.1218
    128  CA       -14.9130  -34.7530   11.4650 C.3   399  THR399      0.1862
    129  C        -14.5080  -36.1290   11.9840 C.2   399  THR399      0.2287
    130  O        -13.6870  -36.1900   12.8970 O.2   399  THR399     -0.2866
    131  CB       -15.4280  -33.9220   12.6580 C.3   399  THR399      0.1770
    132  OG1      -16.6820  -34.4780   13.1000 O.3   399  THR399     -0.2211
    133  CG2      -15.5740  -32.4500   12.3090 C.3   399  THR399      0.0375
    134  N        -11.0000  -35.9470   14.2570 N.3   403  GLU403     -0.1245
    135  CA       -11.2740  -36.0650   15.7000 C.3   403  GLU403      0.1567
    136  C        -11.1470  -37.4900   16.2390 C.2   403  GLU403      0.2260
    137  O        -10.5440  -37.6850   17.2910 O.2   403  GLU403     -0.2867
    138  CB       -12.6820  -35.5190   16.0370 C.3   403  GLU403      0.0388
    139  CG       -12.9320  -34.0770   15.6050 C.3   403  GLU403      0.1160
    140  CD       -12.2070  -32.9470   16.3070 C.2   403  GLU403      0.3649
    141  OE1      -11.3620  -33.1940   17.2010 O.co2 403  GLU403     -0.2457
    142  OE2      -12.4860  -31.7850   15.9400 O.co2 403  GLU403     -0.2457
    143  N         -7.3010  -36.7650   18.6440 N.3   409  GLN409     -0.1245
    144  CA        -7.3330  -36.5730   20.0910 C.3   409  GLN409      0.1566
    145  C         -8.2200  -37.5470   20.8940 C.2   409  GLN409      0.2260
    146  O         -7.8860  -37.8610   22.0310 O.2   409  GLN409     -0.2867
    147  CB        -7.5960  -35.0990   20.4380 C.3   409  GLN409      0.0367
    148  CG        -8.9700  -34.5750   19.9400 C.3   409  GLN409      0.0905
    149  CD        -9.3520  -33.1840   20.4320 C.2   409  GLN409      0.2608
    150  OE1      -10.2030  -32.5070   19.8430 O.2   409  GLN409     -0.2717
    151  NE2       -8.7560  -32.7260   21.5160 N.am  409  GLN409     -0.0878
    152  N        -21.3690  -22.6150   12.2900 N.3   479  GLU479     -0.1245
    153  CA       -21.0420  -22.0100   13.5840 C.3   479  GLU479      0.1567
    154  C        -20.1830  -20.7370   13.5150 C.2   479  GLU479      0.2260
    155  O        -19.0790  -20.6620   14.0880 O.2   479  GLU479     -0.2867
    156  CB       -20.4410  -23.0510   14.5400 C.3   479  GLU479      0.0388
    157  CG       -19.0890  -23.5770   14.1040 C.3   479  GLU479      0.1160
    158  CD       -18.8370  -24.8990   14.7760 C.2   479  GLU479      0.3649
    159  OE1      -19.4070  -25.9180   14.3300 O.co2 479  GLU479     -0.2457
    160  OE2      -18.2140  -24.8760   15.8560 O.co2 479  GLU479     -0.2457
@<TRIPOS>BOND
     1   116   115    2
     2   115   114    1
     3   125   123   ar
     4   125   126   ar
     5   123   120   ar
     6    43    44    1
     7   114   113    1
     8   114   117    1
     9   126   124   ar
    10   120   118   ar
    11   120   122   ar
    12   117   118    1
    13    44    45    1
    14    44    47    1
    15    34    33    2
    16    45    46    2
    17   118   119   ar
    18   124   122   ar
    19   122   121   ar
    20    33    32    1
    21    49    48   ar
    22    49    51   ar
    23    47    48    1
    24   127   128    1
    25   119   121   ar
    26    48    50   ar
    27    51    52   ar
    28   128   129    1
    29   128   131    1
    30    32    35    1
    31    32    31    1
    32    50    52   ar
    33    50    53   ar
    34    52    54   ar
    35   112   111    2
    36   111   110    1
    37   129   130    2
    38    35    36    1
    39   152   153    1
    40   133   131    1
    41    53    55   ar
    42    54    56   ar
    43   131   132    1
    44     8     6    1
    45   110   109    1
    46    55    56   ar
    47    36    37   ar
    48    36    38   ar
    49   154   153    1
    50   154   155    2
    51   153   156    1
    52     6     5    1
    53    37    39   ar
    54   157   156    1
    55   157   158    1
    56    38    40   ar
    57   134   135    1
    58    26    25    2
    59   159   158   ar
    60   109   103   am
    61   104   103    2
    62   158   160   ar
    63   103   102    1
    64     7     5    1
    65     5     2    1
    66    25    24    1
    67    39    41   ar
    68    40    41   ar
    69   139   138    1
    70   139   140    1
    71   105   102    1
    72   105   106    1
    73   135   138    1
    74   135   136    1
    75    41    42    1
    76   108   106   am
    77   142   140   ar
    78     2     1    1
    79     2     3    1
    80   102   101    1
    81   136   137    2
    82   140   141   ar
    83   106   107    2
    84    24    27    1
    85    24    23    1
    86    12    11    2
    87    27    28    1
    88     3     9   am
    89     3     4    2
    90     9    10    1
    91   101    97   am
    92    11    10    1
    93    11    15   am
    94    18    17    2
    95    10    13    1
    96    21    20    2
    97    97    98    2
    98    97    96    1
    99    28    30    1
   100    28    29    1
   101    16    17    1
   102    16    15    1
   103    16    19    1
   104   143   144    1
   105   100    99    1
   106    20    19    1
   107    20    22   am
   108    99    96    1
   109    94    92   ar
   110    94    93   ar
   111    14    13    1
   112    96    95    1
   113    92    90   ar
   114   150   149    2
   115   148   149    1
   116   148   147    1
   117    93    91   ar
   118   144   147    1
   119   144   145    1
   120   149   151   am
   121    90    89   ar
   122    90    88   ar
   123    95    83   am
   124   145   146    2
   125    91    88   ar
   126    89    87   ar
   127    88    86   ar
   128    83    84    2
   129    83    82    1
   130    87    86   ar
   131    86    85    1
   132    68    67    1
   133    77    75   ar
   134    77    79   ar
   135    75    74   ar
   136    85    82    1
   137    80    79    1
   138    82    81    1
   139    67    66   ar
   140    67    65   ar
   141    79    78   ar
   142    66    64   ar
   143    74    73    1
   144    74    76   ar
   145    60    59    2
   146    65    63   ar
   147    73    70    1
   148    70    71    1
   149    70    69    1
   150    64    62   ar
   151    78    76   ar
   152    71    72    2
   153    59    69   am
   154    59    58    1
   155    63    62   ar
   156    62    61    1
   157    58    61    1
   158    58    57    1
