@<TRIPOS>MOLECULE
tmp/4ra1A03.pdb
 118 117 0 0 0
SMALL
GASTEIGER

@<TRIPOS>ATOM
      1  N         -9.8050  -18.6990   23.5230 N.3    13  ASN13      -0.1240
      2  CA        -8.7010  -18.2280   24.3630 C.3    13  ASN13       0.1653
      3  C         -7.5750  -17.6160   23.5000 C.2    13  ASN13       0.2266
      4  O         -6.5980  -17.0780   24.0280 O.2    13  ASN13      -0.2867
      5  CB        -8.1740  -19.3310   25.3040 C.3    13  ASN13       0.1155
      6  CG        -7.7470  -20.6280   24.6630 C.2    13  ASN13       0.2627
      7  OD1       -7.3180  -20.6920   23.4980 O.2    13  ASN13      -0.2716
      8  ND2       -7.8050  -21.6960   25.4520 N.am   13  ASN13      -0.0877
      9  N        -19.8410  -26.6790   30.7310 N.3   341  MET341     -0.1245
     10  CA       -19.5050  -25.2830   30.9850 C.3   341  MET341      0.1570
     11  C        -20.7630  -24.4620   30.9100 C.2   341  MET341      0.2261
     12  O        -20.9650  -23.7170   29.9330 O.2   341  MET341     -0.2867
     13  CB       -18.4520  -24.8070   29.9820 C.3   341  MET341      0.0387
     14  CG       -17.7430  -23.5650   30.4070 C.3   341  MET341      0.0595
     15  SD       -17.0730  -22.7300   28.9790 S.3   341  MET341     -0.1393
     16  CE       -15.5430  -23.5630   28.8260 C.3   341  MET341      0.0692
     17  N        -22.7960  -22.9770   27.6110 N.3   344  TYR344     -0.1241
     18  CA       -21.9260  -22.7030   26.4550 C.3   344  TYR344      0.1605
     19  C        -22.6210  -23.3030   25.2340 C.2   344  TYR344      0.2264
     20  O        -22.6740  -22.6640   24.1800 O.2   344  TYR344     -0.2867
     21  CB       -20.5340  -23.3270   26.6450 C.3   344  TYR344      0.0534
     22  CG       -19.6160  -23.2280   25.4400 C.ar  344  TYR344     -0.0201
     23  CD1      -18.7700  -22.1310   25.2660 C.ar  344  TYR344     -0.0009
     24  CD2      -19.5110  -24.2800   24.5300 C.ar  344  TYR344     -0.0009
     25  CE1      -17.8570  -22.0790   24.2090 C.ar  344  TYR344      0.0417
     26  CE2      -18.6490  -24.2100   23.4370 C.ar  344  TYR344      0.0417
     27  CZ       -17.8130  -23.1150   23.2870 C.ar  344  TYR344      0.1957
     28  OH       -16.9380  -23.0790   22.2330 O.3   344  TYR344     -0.2866
     29  N        -18.2880  -26.1920   35.2400 N.3   371  TYR371     -0.1241
     30  CA       -16.9780  -25.5580   35.2500 C.3   371  TYR371      0.1605
     31  C        -17.0540  -24.2090   34.5380 C.2   371  TYR371      0.2264
     32  O        -17.7980  -24.0720   33.5660 O.2   371  TYR371     -0.2867
     33  CB       -15.8550  -26.4550   34.7060 C.3   371  TYR371      0.0534
     34  CG       -15.9490  -26.7880   33.2330 C.ar  371  TYR371     -0.0201
     35  CD1      -15.2470  -26.0480   32.2830 C.ar  371  TYR371     -0.0009
     36  CD2      -16.6900  -27.8820   32.7920 C.ar  371  TYR371     -0.0009
     37  CE1      -15.2960  -26.3750   30.9310 C.ar  371  TYR371      0.0417
     38  CE2      -16.7600  -28.2100   31.4390 C.ar  371  TYR371      0.0417
     39  CZ       -16.0590  -27.4550   30.5110 C.ar  371  TYR371      0.1957
     40  OH       -16.1200  -27.7830   29.1850 O.3   371  TYR371     -0.2866
     41  N        -11.6110  -25.9410   33.1570 N.3   376  PHE376     -0.1241
     42  CA       -11.8030  -27.3530   32.7970 C.3   376  PHE376      0.1605
     43  C        -10.7070  -28.0940   33.5600 C.2   376  PHE376      0.2264
     44  O         -9.5280  -27.7490   33.4230 O.2   376  PHE376     -0.2867
     45  CB       -11.7050  -27.6140   31.2870 C.3   376  PHE376      0.0534
     46  CG       -11.9180  -29.0710   30.9170 C.ar  376  PHE376     -0.0203
     47  CD1      -10.8340  -29.9060   30.6460 C.ar  376  PHE376     -0.0042
     48  CD2      -13.2030  -29.6080   30.8400 C.ar  376  PHE376     -0.0042
     49  CE1      -11.0280  -31.2580   30.3490 C.ar  376  PHE376     -0.0003
     50  CE2      -13.3990  -30.9490   30.4820 C.ar  376  PHE376     -0.0003
     51  CZ       -12.3120  -31.7670   30.2470 C.ar  376  PHE376     -0.0000
     52  N        -18.3330  -35.7660   29.3760 N.3   385  ARG385     -0.1231
     53  CA       -18.3620  -34.3330   29.0930 C.3   385  ARG385      0.1694
     54  C        -19.1870  -34.0990   27.8490 C.2   385  ARG385      0.2592
     55  O        -19.3020  -34.9950   27.0090 O.2   385  ARG385     -0.2718
     56  CB       -16.9460  -33.7330   28.9500 C.3   385  ARG385      0.0321
     57  CG       -16.2260  -34.0920   27.6460 C.3   385  ARG385      0.0489
     58  CD       -14.7360  -33.7790   27.7130 C.3   385  ARG385      0.2205
     59  NE       -14.1100  -34.0990   26.4330 N.pl3 385  ARG385     -0.0865
     60  CZ       -13.6830  -35.3080   26.0960 C.cat 385  ARG385      0.5346
     61  NH1      -13.7470  -36.3120   26.9680 N.pl3 385  ARG385      0.1354
     62  NH2      -13.1900  -35.5270   24.8870 N.pl3 385  ARG385      0.1354
     63  N        -19.7010  -32.8900   27.6840 N.am  386  ASN386     -0.1960
     64  CA       -20.3680  -32.5860   26.4160 C.3   386  ASN386      0.1819
     65  C        -19.3480  -31.9210   25.4670 C.2   386  ASN386      0.2621
     66  O        -18.2590  -31.4900   25.8990 O.2   386  ASN386     -0.2715
     67  CB       -21.6300  -31.7530   26.6190 C.3   386  ASN386      0.1195
     68  CG       -21.4550  -30.4920   27.4280 C.2   386  ASN386      0.2630
     69  OD1      -20.3470  -30.0060   27.6550 O.2   386  ASN386     -0.2716
     70  ND2      -22.5650  -29.9660   27.9120 N.am  386  ASN386     -0.0877
     71  N        -19.6580  -31.9450   24.1660 N.am  387  TRP387     -0.1974
     72  CA       -18.8310  -31.3910   23.1030 C.3   387  TRP387      0.1640
     73  C        -19.7190  -31.2060   21.8700 C.2   387  TRP387      0.2290
     74  O        -20.9420  -31.4470   21.8900 O.2   387  TRP387     -0.2864
     75  CB       -17.6540  -32.3820   22.8240 C.3   387  TRP387      0.0576
     76  CG       -16.4950  -31.8630   22.0070 C.ar  387  TRP387      0.0006
     77  CD1      -16.0850  -30.5650   21.8780 C.ar  387  TRP387      0.0946
     78  CD2      -15.5990  -32.6530   21.1990 C.ar  387  TRP387      0.0152
     79  NE1      -14.9960  -30.4930   21.0280 N.ar  387  TRP387     -0.2442
     80  CE2      -14.6920  -31.7580   20.5800 C.ar  387  TRP387      0.0810
     81  CE3      -15.5050  -34.0320   20.9050 C.ar  387  TRP387      0.0012
     82  CZ2      -13.6490  -32.2020   19.7470 C.ar  387  TRP387      0.0191
     83  CZ3      -14.4740  -34.4740   20.0730 C.ar  387  TRP387      0.0001
     84  CH2      -13.5800  -33.5630   19.4770 C.ar  387  TRP387      0.0015
     85  N         -7.3010  -36.7650   18.6440 N.3   409  GLN409     -0.1245
     86  CA        -7.3330  -36.5730   20.0910 C.3   409  GLN409      0.1566
     87  C         -8.2200  -37.5470   20.8940 C.2   409  GLN409      0.2260
     88  O         -7.8860  -37.8610   22.0310 O.2   409  GLN409     -0.2867
     89  CB        -7.5960  -35.0990   20.4380 C.3   409  GLN409      0.0367
     90  CG        -8.9700  -34.5750   19.9400 C.3   409  GLN409      0.0905
     91  CD        -9.3520  -33.1840   20.4320 C.2   409  GLN409      0.2608
     92  OE1      -10.2030  -32.5070   19.8430 O.2   409  GLN409     -0.2717
     93  NE2       -8.7560  -32.7260   21.5160 N.am  409  GLN409     -0.0878
     94  N         -5.4590  -38.6770   23.2090 N.3   413  ARG413     -0.1231
     95  CA        -5.6180  -37.9640   24.4680 C.3   413  ARG413      0.1694
     96  C         -6.6570  -38.6390   25.3460 C.2   413  ARG413      0.2592
     97  O         -6.3790  -38.8910   26.5180 O.2   413  ARG413     -0.2718
     98  CB        -6.0070  -36.4970   24.2040 C.3   413  ARG413      0.0321
     99  CG        -6.1830  -35.6620   25.4680 C.3   413  ARG413      0.0489
    100  CD        -6.4920  -34.2280   25.1400 C.3   413  ARG413      0.2205
    101  NE        -6.8940  -33.5050   26.3460 N.pl3 413  ARG413     -0.0865
    102  CZ        -7.2260  -32.2210   26.3860 C.cat 413  ARG413      0.5346
    103  NH1       -7.2110  -31.4910   25.2780 N.pl3 413  ARG413      0.1354
    104  NH2       -7.5830  -31.6560   27.5370 N.pl3 413  ARG413      0.1354
    105  N         -7.8370  -38.9420   24.7770 N.am  414  TRP414     -0.1976
    106  CA        -8.9780  -39.4910   25.5120 C.3   414  TRP414      0.1640
    107  C         -9.0510  -41.0090   25.6550 C.2   414  TRP414      0.2290
    108  O         -9.9820  -41.5310   26.2500 O.2   414  TRP414     -0.2864
    109  CB       -10.2840  -38.8210   25.0600 C.3   414  TRP414      0.0576
    110  CG       -10.2610  -37.3270   25.2800 C.ar  414  TRP414      0.0006
    111  CD1      -10.0860  -36.3580   24.3360 C.ar  414  TRP414      0.0946
    112  CD2      -10.3300  -36.6470   26.5480 C.ar  414  TRP414      0.0152
    113  NE1      -10.0720  -35.1090   24.9310 N.ar  414  TRP414     -0.2442
    114  CE2      -10.2340  -35.2590   26.2870 C.ar  414  TRP414      0.0810
    115  CE3      -10.4920  -37.0780   27.8820 C.ar  414  TRP414      0.0012
    116  CZ2      -10.2810  -34.2990   27.3100 C.ar  414  TRP414      0.0191
    117  CZ3      -10.5520  -36.1260   28.8900 C.ar  414  TRP414      0.0001
    118  CH2      -10.4720  -34.7520   28.5960 C.ar  414  TRP414      0.0015
@<TRIPOS>BOND
     1    85    86    1
     2    84    82   ar
     3    84    83   ar
     4    82    80   ar
     5    92    91    2
     6    90    91    1
     7    90    89    1
     8    83    81   ar
     9    86    89    1
    10    86    87    1
    11    91    93   am
    12    80    79   ar
    13    80    78   ar
    14    87    88    2
    15    81    78   ar
    16    79    77   ar
    17    78    76   ar
    18    73    74    2
    19    73    72    1
    20    77    76   ar
    21    76    75    1
    22    28    27    1
    23    75    72    1
    24    72    71    1
    25    94    95    1
    26    27    26   ar
    27    27    25   ar
    28    26    24   ar
    29     7     6    2
    30     3     4    2
    31     3     2    1
    32     1     2    1
    33    71    65   am
    34    20    19    2
    35    98    95    1
    36    98    99    1
    37    25    23   ar
    38   111   113   ar
    39   111   110   ar
    40     2     5    1
    41    95    96    1
    42    24    22   ar
    43     6     5    1
    44     6     8   am
    45   105    96   am
    46   105   106    1
    47    62    60    1
    48   113   114   ar
    49   109   110    1
    50   109   106    1
    51   100    99    1
    52   100   101    1
    53    19    18    1
    54    23    22   ar
    55   103   102    1
    56   110   112   ar
    57    96    97    2
    58    22    21    1
    59    65    66    2
    60    65    64    1
    61   106   107    1
    62   107   108    2
    63    60    59    2
    64    60    61    1
    65   114   112   ar
    66   114   116   ar
    67   101   102    2
    68   102   104    1
    69    64    67    1
    70    64    63    1
    71    59    58    1
    72    18    21    1
    73    18    17    1
    74   112   115   ar
    75    67    68    1
    76    55    54    2
    77   116   118   ar
    78    68    69    2
    79    68    70   am
    80    57    58    1
    81    57    56    1
    82    63    54   am
    83    54    53    1
    84   115   117   ar
    85   118   117   ar
    86    16    15    1
    87    56    53    1
    88    15    14    1
    89    53    52    1
    90    40    39    1
    91    12    11    2
    92    13    14    1
    93    13    10    1
    94    51    49   ar
    95    51    50   ar
    96    49    47   ar
    97    50    48   ar
    98    39    37   ar
    99    39    38   ar
   100    47    46   ar
   101     9    10    1
   102    48    46   ar
   103    11    10    1
   104    46    45    1
   105    37    35   ar
   106    45    42    1
   107    38    36   ar
   108    35    34   ar
   109    36    34   ar
   110    42    41    1
   111    42    43    1
   112    34    33    1
   113    44    43    2
   114    32    31    2
   115    31    30    1
   116    33    30    1
   117    29    30    1
