@<TRIPOS>MOLECULE
tmp/4ra3B00.pdb
 85 83 0 0 0
SMALL
GASTEIGER

@<TRIPOS>ATOM
      1  N         49.5420    2.0170  -16.3430 N.3    26  TYR26      -0.1241
      2  CA        48.8100    0.7870  -16.7080 C.3    26  TYR26       0.1605
      3  C         49.2550    0.3160  -18.0590 C.2    26  TYR26       0.2264
      4  O         49.0920    1.0190  -19.0660 O.2    26  TYR26      -0.2867
      5  CB        47.3060    1.0190  -16.7470 C.3    26  TYR26       0.0534
      6  CG        46.4640   -0.1950  -17.0480 C.ar   26  TYR26      -0.0201
      7  CD1       46.7250   -1.4150  -16.4520 C.ar   26  TYR26      -0.0009
      8  CD2       45.3620   -0.1080  -17.9150 C.ar   26  TYR26      -0.0009
      9  CE1       45.9280   -2.5140  -16.7290 C.ar   26  TYR26       0.0417
     10  CE2       44.5760   -1.2070  -18.2010 C.ar   26  TYR26       0.0417
     11  CZ        44.8590   -2.3970  -17.6070 C.ar   26  TYR26       0.1957
     12  OH        44.0600   -3.4810  -17.8860 O.3    26  TYR26      -0.2866
     13  N         50.6330   -4.2550   -9.0280 N.3    52  SER52      -0.1202
     14  CA        49.7120   -5.3700   -9.0400 C.3    52  SER52       0.2020
     15  C         50.4620   -6.6230   -9.4000 C.2    52  SER52       0.2618
     16  O         51.6500   -6.5960   -9.7160 O.2    52  SER52      -0.2717
     17  CB        48.6280   -5.1480  -10.0740 C.3    52  SER52       0.2103
     18  OG        49.1480   -5.3450  -11.3670 O.3    52  SER52      -0.2182
     19  N         49.7490   -7.7290   -9.3750 N.am   53  ASP53      -0.1973
     20  CA        50.2450   -8.9310   -9.9780 C.3    53  ASP53       0.1709
     21  C         50.0100   -8.8120  -11.4700 C.2    53  ASP53       0.2293
     22  O         49.4970   -7.8080  -11.9280 O.2    53  ASP53      -0.2864
     23  CB        49.5370  -10.1400   -9.3910 C.3    53  ASP53       0.1436
     24  CG        49.8940  -10.3600   -7.9500 C.2    53  ASP53       0.3671
     25  OD1       50.8660   -9.7440   -7.4630 O.co2  53  ASP53      -0.2456
     26  OD2       49.2200  -11.1660   -7.2920 O.co2  53  ASP53      -0.2456
     27  N         48.2040  -10.3200  -14.6360 N.3    55  SER55      -0.1202
     28  CA        47.0520  -11.1440  -14.9370 C.3    55  SER55       0.2020
     29  C         46.9980  -11.3410  -16.4370 C.2    55  SER55       0.2619
     30  O         47.6420  -10.5900  -17.1760 O.2    55  SER55      -0.2717
     31  CB        45.7770  -10.4830  -14.4160 C.3    55  SER55       0.2103
     32  OG        45.7460   -9.1150  -14.7740 O.3    55  SER55      -0.2182
     33  N         46.2320  -12.3420  -16.8780 N.am   56  PHE56      -0.1961
     34  CA        46.1570  -12.6790  -18.2930 C.3    56  PHE56       0.1771
     35  C         44.8330  -13.3000  -18.7560 C.2    56  PHE56       0.2620
     36  O         44.0860  -13.8840  -17.9680 O.2    56  PHE56      -0.2715
     37  CB        47.3400  -13.5760  -18.6730 C.3    56  PHE56       0.0574
     38  CG        47.4590  -14.8180  -17.8490 C.ar   56  PHE56      -0.0200
     39  CD1       46.7150  -15.9320  -18.1640 C.ar   56  PHE56      -0.0042
     40  CD2       48.3080  -14.8780  -16.7630 C.ar   56  PHE56      -0.0042
     41  CE1       46.8190  -17.0900  -17.4170 C.ar   56  PHE56      -0.0003
     42  CE2       48.4110  -16.0320  -16.0070 C.ar   56  PHE56      -0.0003
     43  CZ        47.6730  -17.1390  -16.3390 C.ar   56  PHE56      -0.0000
     44  N         44.5680  -13.1540  -20.0560 N.am   57  SER57      -0.1950
     45  CA        43.3660  -13.6840  -20.7100 C.3    57  SER57       0.1924
     46  C         43.5760  -15.1250  -21.0560 C.2    57  SER57       0.2314
     47  O         44.7000  -15.6270  -20.9770 O.2    57  SER57      -0.2863
     48  CB        43.0450  -12.8930  -21.9910 C.3    57  SER57       0.2116
     49  OG        43.9870  -13.1070  -23.0400 O.3    57  SER57      -0.2180
     50  N         43.4890  -15.9450  -24.1630 N.3    59  ASP59      -0.1239
     51  CA        44.3310  -15.8010  -25.3370 C.3    59  ASP59       0.1674
     52  C         45.7390  -15.2970  -24.9780 C.2    59  ASP59       0.2266
     53  O         46.5080  -14.9540  -25.8690 O.2    59  ASP59      -0.2867
     54  CB        43.6500  -14.9310  -26.4070 C.3    59  ASP59       0.1410
     55  CG        43.6340  -13.4570  -26.0620 C.2    59  ASP59       0.3668
     56  OD1       44.5980  -12.7460  -26.4260 O.co2  59  ASP59      -0.2456
     57  OD2       42.6440  -13.0040  -25.4500 O.co2  59  ASP59      -0.2456
     58  N         48.2950   -8.1950  -18.4840 N.3    63  TYR63      -0.1227
     59  CA        47.8960   -6.8920  -17.9330 C.3    63  TYR63       0.1736
     60  C         48.6080   -6.6650  -16.6060 C.2    63  TYR63       0.2595
     61  O         48.7750   -7.6080  -15.8350 O.2    63  TYR63      -0.2718
     62  CB        46.3980   -6.8500  -17.7380 C.3    63  TYR63       0.0548
     63  CG        45.6120   -7.2250  -18.9840 C.ar   63  TYR63      -0.0200
     64  CD1       45.3790   -8.5650  -19.3110 C.ar   63  TYR63      -0.0009
     65  CD2       45.0920   -6.2390  -19.8380 C.ar   63  TYR63      -0.0009
     66  CE1       44.6510   -8.9100  -20.4440 C.ar   63  TYR63       0.0417
     67  CE2       44.3560   -6.5840  -20.9650 C.ar   63  TYR63       0.0417
     68  CZ        44.1350   -7.9180  -21.2660 C.ar   63  TYR63       0.1957
     69  OH        43.4210   -8.2780  -22.3900 O.3    63  TYR63      -0.2866
     70  N         49.0670   -5.4290  -16.3630 N.am   64  LEU64      -0.1966
     71  CA        49.9420   -5.1180  -15.2180 C.3    64  LEU64       0.1728
     72  C         49.9320   -3.6250  -14.8420 C.2    64  LEU64       0.2616
     73  O         49.9990   -2.7720  -15.7230 O.2    64  LEU64      -0.2715
     74  CB        51.3530   -5.5150  -15.5780 C.3    64  LEU64       0.0311
     75  CG        52.4620   -5.7250  -14.5410 C.3    64  LEU64       0.0022
     76  CD1       53.6170   -4.7790  -14.8150 C.3    64  LEU64       0.0001
     77  CD2       52.0700   -5.6830  -13.0670 C.3    64  LEU64       0.0001
     78  N         49.8560   -3.3260  -13.5420 N.am   65  LEU65      -0.1977
     79  CA        49.7460   -1.9330  -13.0250 C.3    65  LEU65       0.1596
     80  C         50.8500   -1.5720  -12.0290 C.2    65  LEU65       0.2287
     81  O         51.0810   -2.2930  -11.0670 O.2    65  LEU65      -0.2864
     82  CB        48.3900   -1.7540  -12.3430 C.3    65  LEU65       0.0297
     83  CG        47.7220   -0.3850  -12.1990 C.3    65  LEU65       0.0022
     84  CD1       46.6850   -0.2880  -11.0820 C.3    65  LEU65       0.0001
     85  CD2       48.8000    0.6320  -11.9790 C.3    65  LEU65       0.0001
@<TRIPOS>BOND
     1    56    55   ar
     2    54    55    1
     3    54    51    1
     4    55    57   ar
     5    53    52    2
     6    51    52    1
     7    51    50    1
     8    49    48    1
     9    69    68    1
    10    48    45    1
    11    68    67   ar
    12    68    66   ar
    13    46    47    2
    14    46    45    1
    15    67    65   ar
    16    45    44    1
    17    66    64   ar
    18    44    35   am
    19    65    63   ar
    20    64    63   ar
    21     4     3    2
    22    63    62    1
    23    35    34    1
    24    35    36    2
    25    37    34    1
    26    37    38    1
    27    58    59    1
    28    34    33    1
    29    10     8   ar
    30    10    11   ar
    31    39    38   ar
    32    39    41   ar
    33     3     2    1
    34    59    62    1
    35    59    60    1
    36     8     6   ar
    37    12    11    1
    38    38    40   ar
    39    11     9   ar
    40    41    43   ar
    41    30    29    2
    42     6     5    1
    43     6     7   ar
    44    33    29   am
    45    40    42   ar
    46     5     2    1
    47     9     7   ar
    48     2     1    1
    49    60    70   am
    50    60    61    2
    51    29    28    1
    52    70    71    1
    53    43    42   ar
    54    73    72    2
    55    74    71    1
    56    74    75    1
    57    71    72    1
    58    28    27    1
    59    28    31    1
    60    72    78   am
    61    76    75    1
    62    32    31    1
    63    75    77    1
    64    78    79    1
    65    79    82    1
    66    79    80    1
    67    82    83    1
    68    83    85    1
    69    83    84    1
    70    80    81    2
    71    22    21    2
    72    21    20    1
    73    18    17    1
    74    17    14    1
    75    20    23    1
    76    20    19    1
    77    16    15    2
    78    15    19   am
    79    15    14    1
    80    23    24    1
    81    14    13    1
    82    24    25   ar
    83    24    26   ar
