@<TRIPOS>MOLECULE
tmp/4ra5B00.pdb
 153 144 0 0 0
SMALL
GASTEIGER

@<TRIPOS>ATOM
      1  N        -17.4270   -6.6950    5.9260 N.3    12  LEU12      -0.1231
      2  CA       -17.5310   -5.3110    5.4460 C.3    12  LEU12       0.1693
      3  C        -17.4150   -4.2730    6.5640 C.2    12  LEU12       0.2593
      4  O        -17.3000   -3.0740    6.2860 O.2    12  LEU12      -0.2718
      5  CB       -18.8650   -5.1140    4.7170 C.3    12  LEU12       0.0284
      6  CG       -19.1040   -5.9990    3.4930 C.3    12  LEU12       0.0019
      7  CD1      -20.5800   -5.9990    3.1110 C.3    12  LEU12       0.0001
      8  CD2      -18.2510   -5.5440    2.3240 C.3    12  LEU12       0.0001
      9  N        -17.4580   -4.7220    7.8180 N.am   13  GLY13      -0.1942
     10  CA       -17.4000   -3.8120    8.9610 C.3    13  GLY13       0.2014
     11  C        -17.6080   -4.5120   10.2900 C.2    13  GLY13       0.2638
     12  O        -18.2050   -5.5900   10.3450 O.2    13  GLY13      -0.2714
     13  N        -17.1100   -3.8850   11.3530 N.am   14  LYS14      -0.1977
     14  CA       -17.1740   -4.4260   12.7120 C.3    14  LYS14       0.1596
     15  C        -17.4850   -3.3070   13.7020 C.2    14  LYS14       0.2287
     16  O        -17.1640   -2.1410   13.4620 O.2    14  LYS14      -0.2864
     17  CB       -15.8410   -5.0850   13.0800 C.3    14  LYS14       0.0298
     18  CG       -15.8850   -5.9510   14.3330 C.3    14  LYS14       0.0038
     19  CD       -14.5980   -6.7330   14.5140 C.3    14  LYS14       0.0206
     20  CE       -14.6450   -7.6030   15.7590 C.3    14  LYS14       0.1093
     21  NZ       -13.3880   -8.3790   15.9470 N.3    14  LYS14      -0.1314
     22  N        -21.7850   -3.3860   18.3210 N.3    17  PHE17      -0.1241
     23  CA       -23.0220   -4.0740   17.9040 C.3    17  PHE17       0.1605
     24  C        -22.7830   -5.4850   17.3320 C.2    17  PHE17       0.2264
     25  O        -23.4900   -6.4290   17.6890 O.2    17  PHE17      -0.2867
     26  CB       -23.8350   -3.2130   16.9030 C.3    17  PHE17       0.0534
     27  CG       -23.1080   -2.8970   15.6060 C.ar   17  PHE17      -0.0203
     28  CD1      -23.2070   -3.7480   14.5040 C.ar   17  PHE17      -0.0042
     29  CD2      -22.3410   -1.7370   15.4830 C.ar   17  PHE17      -0.0042
     30  CE1      -22.5370   -3.4600   13.3110 C.ar   17  PHE17      -0.0003
     31  CE2      -21.6710   -1.4400   14.2920 C.ar   17  PHE17      -0.0003
     32  CZ       -21.7690   -2.3020   13.2060 C.ar   17  PHE17      -0.0000
     33  N        -20.8380   -6.8010    9.8340 N.3    20  VAL20      -0.1245
     34  CA       -21.5480   -6.7920    8.5470 C.3    20  VAL20       0.1561
     35  C        -20.7880   -7.6830    7.5630 C.2    20  VAL20       0.2260
     36  O        -19.5700   -7.5520    7.4200 O.2    20  VAL20      -0.2867
     37  CB       -21.6790   -5.3750    7.9520 C.3    20  VAL20       0.0252
     38  CG1      -22.5110   -5.4070    6.6700 C.3    20  VAL20       0.0019
     39  CG2      -22.3160   -4.4180    8.9570 C.3    20  VAL20       0.0019
     40  N        -25.6910   -7.9450    1.6710 N.3    33  ALA33      -0.1245
     41  CA       -25.0440   -7.4940    2.9030 C.3    33  ALA33       0.1562
     42  C        -25.8380   -8.0560    4.0780 C.2    33  ALA33       0.2260
     43  O        -27.0480   -7.8500    4.1440 O.2    33  ALA33      -0.2867
     44  CB       -25.0210   -5.9810    2.9630 C.3    33  ALA33       0.0290
     45  N        -26.1290   -7.9000    8.2010 N.3    35  LYS35      -0.1245
     46  CA       -25.7950   -7.3800    9.5340 C.3    35  LYS35       0.1561
     47  C        -26.0490   -8.4730   10.5840 C.2    35  LYS35       0.2260
     48  O        -27.2030   -8.8140   10.8480 O.2    35  LYS35      -0.2867
     49  CB       -26.6280   -6.1280    9.8680 C.3    35  LYS35       0.0271
     50  CG       -26.3080   -5.4980   11.2450 C.3    35  LYS35       0.0035
     51  CD       -27.2940   -4.3980   11.6450 C.3    35  LYS35       0.0206
     52  CE       -26.9250   -3.0470   11.0620 C.3    35  LYS35       0.1093
     53  NZ       -27.8170   -1.9770   11.5800 N.3    35  LYS35      -0.1314
     54  N        -32.1510    2.0430    2.8500 N.3    68  THR68      -0.1218
     55  CA       -31.5790    0.7030    2.6720 C.3    68  THR68       0.1862
     56  C        -32.6700   -0.3740    2.6290 C.2    68  THR68       0.2287
     57  O        -33.4090   -0.5710    3.6020 O.2    68  THR68      -0.2866
     58  CB       -30.5830    0.3420    3.7920 C.3    68  THR68       0.1770
     59  OG1      -31.1910    0.5450    5.0740 O.3    68  THR68      -0.2211
     60  CG2      -29.3330    1.1880    3.6880 C.3    68  THR68       0.0375
     61  N        -29.6550   -7.5980    3.7860 N.3    84  MET84      -0.1230
     62  CA       -29.7730   -6.2710    3.1780 C.3    84  MET84       0.1702
     63  C        -29.1620   -6.2720    1.7810 C.2    84  MET84       0.2592
     64  O        -28.2700   -7.0730    1.4920 O.2    84  MET84      -0.2718
     65  CB       -29.0140   -5.2410    4.0300 C.3    84  MET84       0.0401
     66  CG       -29.4000   -5.1840    5.5130 C.3    84  MET84       0.0596
     67  SD       -31.0490   -4.5390    5.8480 S.3    84  MET84      -0.1393
     68  CE       -30.9600   -2.8920    5.1600 C.3    84  MET84       0.0692
     69  N        -29.6280   -5.3610    0.9270 N.am   85  GLU85      -0.1966
     70  CA       -28.9940   -5.1200   -0.3760 C.3    85  GLU85       0.1733
     71  C        -27.5540   -4.6360   -0.1710 C.2    85  GLU85       0.2616
     72  O        -27.2890   -3.8750    0.7510 O.2    85  GLU85      -0.2715
     73  CB       -29.7860   -4.0960   -1.2090 C.3    85  GLU85       0.0429
     74  CG       -29.8530   -2.6710   -0.6180 C.3    85  GLU85       0.1163
     75  CD       -30.5480   -1.6670   -1.5180 C.2    85  GLU85       0.3649
     76  OE1      -30.4410   -1.7780   -2.7590 O.co2  85  GLU85      -0.2457
     77  OE2      -31.1860   -0.7420   -0.9750 O.co2  85  GLU85      -0.2457
     78  N        -26.6400   -5.0790   -1.0300 N.am   86  TYR86      -0.1960
     79  CA       -25.2170   -4.7460   -0.9070 C.3    86  TYR86       0.1771
     80  C        -24.9130   -3.3790   -1.5230 C.2    86  TYR86       0.2619
     81  O        -25.0820   -3.1860   -2.7290 O.2    86  TYR86      -0.2715
     82  CB       -24.3680   -5.8360   -1.5690 C.3    86  TYR86       0.0574
     83  CG       -22.8800   -5.5640   -1.6120 C.ar   86  TYR86      -0.0198
     84  CD1      -22.1880   -5.1370   -0.4710 C.ar   86  TYR86      -0.0009
     85  CD2      -22.1530   -5.7580   -2.7870 C.ar   86  TYR86      -0.0009
     86  CE1      -20.8130   -4.8930   -0.5060 C.ar   86  TYR86       0.0417
     87  CE2      -20.7760   -5.5200   -2.8310 C.ar   86  TYR86       0.0417
     88  CZ       -20.1140   -5.0920   -1.6850 C.ar   86  TYR86       0.1957
     89  OH       -18.7630   -4.8530   -1.7220 O.3    86  TYR86      -0.2866
     90  N        -24.4540   -2.4430   -0.6900 N.am   87  LEU87      -0.1977
     91  CA       -24.1370   -1.0750   -1.1200 C.3    87  LEU87       0.1596
     92  C        -22.6490   -0.7810   -0.9010 C.2    87  LEU87       0.2287
     93  O        -22.2090   -0.6520    0.2380 O.2    87  LEU87      -0.2864
     94  CB       -24.9960   -0.0740   -0.3460 C.3    87  LEU87       0.0297
     95  CG       -26.5100   -0.2770   -0.4310 C.3    87  LEU87       0.0022
     96  CD1      -27.1930    0.6220    0.5900 C.3    87  LEU87       0.0001
     97  CD2      -27.0390   -0.0130   -1.8390 C.3    87  LEU87       0.0001
     98  N        -19.7360    5.0050    2.9020 N.3    91  ASP91      -0.1239
     99  CA       -20.5470    5.9940    3.6280 C.3    91  ASP91       0.1674
    100  C        -19.9670    7.3890    3.4500 C.2    91  ASP91       0.2266
    101  O        -18.8310    7.5360    3.0090 O.2    91  ASP91      -0.2867
    102  CB       -20.7260    5.6360    5.1170 C.3    91  ASP91       0.1410
    103  CG       -19.4160    5.5050    5.8710 C.2    91  ASP91       0.3668
    104  OD1      -19.1530    4.4100    6.4170 O.co2  91  ASP91      -0.2456
    105  OD2      -18.6560    6.4910    5.9280 O.co2  91  ASP91      -0.2456
    106  N        -21.7600    8.9920    8.7720 N.3   134  ASP134     -0.1225
    107  CA       -21.4510    7.5500    8.7130 C.3   134  ASP134      0.1805
    108  C        -22.6850    6.6220    8.6740 C.2   134  ASP134      0.2597
    109  O        -22.5370    5.4260    8.4410 O.2   134  ASP134     -0.2718
    110  CB       -20.4630    7.1190    9.8150 C.3   134  ASP134      0.1424
    111  CG       -20.9390    7.4570   11.2110 C.2   134  ASP134      0.3668
    112  OD1      -20.7470    8.6220   11.6330 O.co2 134  ASP134     -0.2456
    113  OD2      -21.4770    6.5560   11.8920 O.co2 134  ASP134     -0.2456
    114  N        -23.8860    7.1630    8.8910 N.am  135  ASN135     -0.1974
    115  CA       -25.1370    6.4160    8.6560 C.3   135  ASN135      0.1688
    116  C        -25.7000    6.5750    7.2390 C.2   135  ASN135      0.2292
    117  O        -26.5530    5.7820    6.8290 O.2   135  ASN135     -0.2864
    118  CB       -26.2100    6.7900    9.6930 C.3   135  ASN135      0.1181
    119  CG       -26.0360    6.0580   11.0200 C.2   135  ASN135      0.2629
    120  OD1      -25.2230    5.1360   11.1470 O.2   135  ASN135     -0.2716
    121  ND2      -26.8110    6.4710   12.0190 N.am  135  ASN135     -0.0877
    122  N        -25.1470    5.8820    3.5800 N.3   137  LEU137     -0.1245
    123  CA       -24.3910    5.0940    2.6020 C.3   137  LEU137      0.1561
    124  C        -24.6040    5.6640    1.2070 C.2   137  LEU137      0.2260
    125  O        -25.5110    6.4680    0.9980 O.2   137  LEU137     -0.2867
    126  CB       -24.8330    3.6300    2.6320 C.3   137  LEU137      0.0270
    127  CG       -24.4790    2.8350    3.8910 C.3   137  LEU137      0.0019
    128  CD1      -25.2890    1.5490    3.9660 C.3   137  LEU137      0.0001
    129  CD2      -22.9950    2.5130    3.9330 C.3   137  LEU137      0.0001
    130  N        -29.1790    4.3640    6.4160 N.3   147  ALA147     -0.1231
    131  CA       -29.0530    3.0660    7.0930 C.3   147  ALA147      0.1694
    132  C        -29.1050    3.2320    8.6060 C.2   147  ALA147      0.2592
    133  O        -29.0650    4.3540    9.1050 O.2   147  ALA147     -0.2718
    134  CB       -27.7460    2.4090    6.7000 C.3   147  ALA147      0.0304
    135  N        -29.1640    2.1010    9.3160 N.am  148  ASP148     -0.1974
    136  CA       -29.2120    2.0410   10.7920 C.3   148  ASP148      0.1709
    137  C        -30.4530    2.7240   11.3830 C.2   148  ASP148      0.2293
    138  O        -30.3670    3.8100   11.9660 O.2   148  ASP148     -0.2864
    139  CB       -27.9110    2.5810   11.4370 C.3   148  ASP148      0.1436
    140  CG       -26.8140    1.5310   11.5440 C.2   148  ASP148      0.3671
    141  OD1      -26.8640    0.4990   10.8400 O.co2 148  ASP148     -0.2456
    142  OD2      -25.8850    1.7530   12.3490 O.co2 148  ASP148     -0.2456
    143  N        -13.7840   -0.7130    1.9500 N.3   285  PHE285     -0.1241
    144  CA       -13.9690   -1.4010    3.2300 C.3   285  PHE285      0.1605
    145  C        -12.6320   -2.0190    3.6710 C.2   285  PHE285      0.2264
    146  O        -11.6090   -1.8440    2.9950 O.2   285  PHE285     -0.2867
    147  CB       -15.0570   -2.4790    3.0960 C.3   285  PHE285      0.0534
    148  CG       -16.3960   -1.9510    2.6350 C.ar  285  PHE285     -0.0203
    149  CD1      -17.1000   -1.0280    3.4090 C.ar  285  PHE285     -0.0042
    150  CD2      -16.9620   -2.3840    1.4330 C.ar  285  PHE285     -0.0042
    151  CE1      -18.3480   -0.5350    2.9890 C.ar  285  PHE285     -0.0003
    152  CE2      -18.2090   -1.9020    1.0060 C.ar  285  PHE285     -0.0003
    153  CZ       -18.9020   -0.9740    1.7860 C.ar  285  PHE285     -0.0000
@<TRIPOS>BOND
     1    87    85   ar
     2    87    88   ar
     3    85    83   ar
     4    76    75   ar
     5    81    80    2
     6    97    95    1
     7    89    88    1
     8    88    86   ar
     9    83    82    1
    10    83    84   ar
    11    82    79    1
    12    80    79    1
    13    80    90   am
    14    75    77   ar
    15    75    74    1
    16    73    74    1
    17    73    70    1
    18    91    92    1
    19    91    90    1
    20    91    94    1
    21    78    79    1
    22    78    71   am
    23    92    93    2
    24    86    84   ar
    25    95    94    1
    26    95    96    1
    27    70    71    1
    28    70    69    1
    29    71    72    2
    30    69    63   am
    31   125   124    2
    32   152   150   ar
    33   152   153   ar
    34   124   123    1
    35   150   148   ar
    36    64    63    2
    37    40    41    1
    38    63    62    1
    39   153   151   ar
    40   143   144    1
    41     8     6    1
    42   123   126    1
    43   123   122    1
    44    56    55    1
    45    56    57    2
    46   126   127    1
    47   148   147    1
    48   148   149   ar
    49    55    54    1
    50    55    58    1
    51    98    99    1
    52    41    44    1
    53    41    42    1
    54   151   149   ar
    55   146   145    2
    56   101   100    2
    57   147   144    1
    58     7     6    1
    59    62    61    1
    60    62    65    1
    61   144   145    1
    62   100    99    1
    63     6     5    1
    64    99   102    1
    65    60    58    1
    66    58    59    1
    67   127   129    1
    68   127   128    1
    69    65    66    1
    70    42    43    2
    71     5     2    1
    72   102   103    1
    73    68    67    1
    74     2     1    1
    75     2     3    1
    76    66    67    1
    77   103   105   ar
    78   103   104   ar
    79     4     3    2
    80   130   131    1
    81     3     9   am
    82    38    37    1
    83   134   131    1
    84   117   116    2
    85   131   132    1
    86   116   115    1
    87    36    35    2
    88    35    34    1
    89     9    10    1
    90    37    34    1
    91    37    39    1
    92    45    46    1
    93   109   108    2
    94    34    33    1
    95   132   133    2
    96   132   135   am
    97   115   114    1
    98   115   118    1
    99   108   107    1
   100   108   114   am
   101   107   106    1
   102   107   110    1
   103    10    11    1
   104   135   136    1
   105    46    49    1
   106    46    47    1
   107   118   119    1
   108   110   111    1
   109    49    50    1
   110    11    12    2
   111    11    13   am
   112    47    48    2
   113   136   137    1
   114   136   139    1
   115   141   140   ar
   116   119   120    2
   117   119   121   am
   118    52    53    1
   119    52    51    1
   120   111   112   ar
   121   111   113   ar
   122    50    51    1
   123    13    14    1
   124   137   138    2
   125   139   140    1
   126   140   142   ar
   127    14    17    1
   128    14    15    1
   129    17    18    1
   130    32    30   ar
   131    32    31   ar
   132    30    28   ar
   133    16    15    2
   134    31    29   ar
   135    18    19    1
   136    28    27   ar
   137    19    20    1
   138    29    27   ar
   139    27    26    1
   140    20    21    1
   141    26    23    1
   142    24    25    2
   143    24    23    1
   144    23    22    1
