@<TRIPOS>MOLECULE
tmp/4ra7A00.pdb
 172 165 0 0 0
SMALL
GASTEIGER

@<TRIPOS>ATOM
      1  N        -31.8690   17.5180  -45.8620 N.3   142  GLY142     -0.1210
      2  CA       -32.7460   18.4490  -45.1730 C.3   142  GLY142      0.1956
      3  C        -32.3500   19.9150  -45.3940 C.2   142  GLY142      0.2612
      4  O        -31.8690   20.3040  -46.4740 O.2   142  GLY142     -0.2717
      5  N        -32.5300   20.7230  -44.3570 N.am  143  SER143     -0.1952
      6  CA       -32.3990   22.1850  -44.5100 C.3   143  SER143      0.1924
      7  C        -30.9800   22.6600  -44.8830 C.2   143  SER143      0.2314
      8  O        -30.8140   23.8180  -45.2280 O.2   143  SER143     -0.2863
      9  CB       -32.7770   22.9100  -43.2010 C.3   143  SER143      0.2116
     10  OG       -34.0190   22.4390  -42.7240 O.3   143  SER143     -0.2180
     11  N        -30.9280   24.2120  -48.2010 N.3   146  LYS146     -0.1245
     12  CA       -31.4600   25.5570  -48.4570 C.3   146  LYS146      0.1561
     13  C        -30.3710   26.5310  -48.9250 C.2   146  LYS146      0.2260
     14  O        -30.6790   27.5670  -49.4780 O.2   146  LYS146     -0.2867
     15  CB       -32.1890   26.0930  -47.2250 C.3   146  LYS146      0.0271
     16  CG       -33.4760   25.2810  -46.8850 C.3   146  LYS146      0.0035
     17  CD       -34.0440   25.6470  -45.5090 C.3   146  LYS146      0.0206
     18  CE       -35.3050   24.8350  -45.1850 C.3   146  LYS146      0.1093
     19  NZ       -35.7630   25.2430  -43.8530 N.3   146  LYS146     -0.1314
     20  N        -44.9450   22.5150  -43.5910 N.3   178  HIS178     -0.1226
     21  CA       -44.9640   23.0100  -42.2290 C.3   178  HIS178      0.1752
     22  C        -43.5590   23.3880  -41.7750 C.2   178  HIS178      0.2596
     23  O        -42.5520   22.7730  -42.1820 O.2   178  HIS178     -0.2718
     24  CB       -45.5320   21.9370  -41.2960 C.3   178  HIS178      0.0759
     25  CG       -44.6600   20.7330  -41.1790 C.ar  178  HIS178      0.0818
     26  ND1      -44.7870   19.6420  -42.0100 N.ar  178  HIS178     -0.2268
     27  CD2      -43.6130   20.4610  -40.3640 C.ar  178  HIS178      0.1154
     28  CE1      -43.8390   18.7610  -41.7320 C.ar  178  HIS178      0.1986
     29  NE2      -43.1230   19.2280  -40.7240 N.ar  178  HIS178     -0.2212
     30  N        -43.4800   24.4000  -40.9240 N.am  179  ASN179     -0.1960
     31  CA       -42.2370   24.6860  -40.2140 C.3   179  ASN179      0.1819
     32  C        -42.1400   23.6500  -39.1500 C.2   179  ASN179      0.2621
     33  O        -43.1630   23.0180  -38.7670 O.2   179  ASN179     -0.2715
     34  CB       -42.2470   26.0570  -39.5340 C.3   179  ASN179      0.1195
     35  CG       -42.0900   27.2180  -40.5160 C.2   179  ASN179      0.2630
     36  OD1      -41.5270   27.0550  -41.6060 O.2   179  ASN179     -0.2716
     37  ND2      -42.6010   28.4090  -40.1240 N.am  179  ASN179     -0.0877
     38  N        -40.9250   23.5110  -38.6390 N.am  180  TYR180     -0.1974
     39  CA       -40.6760   22.6640  -37.5120 C.3   180  TYR180      0.1639
     40  C        -41.5520   23.0560  -36.3570 C.2   180  TYR180      0.2290
     41  O        -41.6970   24.2420  -36.0850 O.2   180  TYR180     -0.2864
     42  CB       -39.2420   22.8290  -37.0730 C.3   180  TYR180      0.0560
     43  CG       -38.8990   22.0430  -35.8430 C.ar  180  TYR180     -0.0198
     44  CD1      -39.0150   20.6620  -35.8350 C.ar  180  TYR180     -0.0009
     45  CD2      -38.4090   22.6700  -34.6920 C.ar  180  TYR180     -0.0009
     46  CE1      -38.6730   19.9150  -34.7140 C.ar  180  TYR180      0.0417
     47  CE2      -38.0560   21.9320  -33.5510 C.ar  180  TYR180      0.0417
     48  CZ       -38.1920   20.5540  -33.5720 C.ar  180  TYR180      0.1957
     49  OH       -37.8610   19.7990  -32.4740 O.3   180  TYR180     -0.2866
     50  N        -33.4190   30.9780  -39.1970 N.3   195  ARG195     -0.1231
     51  CA       -34.3130   30.2040  -38.3520 C.3   195  ARG195      0.1694
     52  C        -34.7570   28.9490  -39.0320 C.2   195  ARG195      0.2592
     53  O        -35.4500   28.1300  -38.4660 O.2   195  ARG195     -0.2718
     54  CB       -35.5260   31.0430  -37.9060 C.3   195  ARG195      0.0321
     55  CG       -35.0850   32.1190  -36.9290 C.3   195  ARG195      0.0489
     56  CD       -36.1300   33.1710  -36.6830 C.3   195  ARG195      0.2205
     57  NE       -37.3110   32.6310  -36.0260 N.pl3 195  ARG195     -0.0865
     58  CZ       -38.4220   33.3370  -35.8210 C.cat 195  ARG195      0.5346
     59  NH1      -39.4700   32.7670  -35.2630 N.pl3 195  ARG195      0.1354
     60  NH2      -38.5070   34.6030  -36.1900 N.pl3 195  ARG195      0.1354
     61  N        -34.3620   28.8140  -40.2780 N.am  196  SER196     -0.1952
     62  CA       -34.6590   27.6790  -41.1010 C.3   196  SER196      0.1924
     63  C        -36.1620   27.3660  -41.2600 C.2   196  SER196      0.2314
     64  O        -36.5590   26.2320  -41.0420 O.2   196  SER196     -0.2863
     65  CB       -33.8850   26.4540  -40.6140 C.3   196  SER196      0.2116
     66  OG       -33.6810   25.5580  -41.6980 O.3   196  SER196     -0.2180
     67  N        -39.1930   26.1800  -43.2620 N.3   198  ASN198     -0.1240
     68  CA       -39.6450   25.4470  -44.4620 C.3   198  ASN198      0.1653
     69  C        -40.6920   26.2190  -45.2760 C.2   198  ASN198      0.2266
     70  O        -40.6160   26.2640  -46.5150 O.2   198  ASN198     -0.2867
     71  CB       -40.2170   24.0180  -44.1340 C.3   198  ASN198      0.1155
     72  CG       -39.2010   23.1190  -43.4540 C.2   198  ASN198      0.2627
     73  OD1      -38.0360   23.1300  -43.7840 O.2   198  ASN198     -0.2716
     74  ND2      -39.6470   22.3740  -42.4630 N.am  198  ASN198     -0.0877
     75  N        -40.9520   20.8260  -51.2440 N.3   248  TRP248     -0.1241
     76  CA       -40.1160   20.0880  -50.2940 C.3   248  TRP248      0.1605
     77  C        -38.6530   19.9220  -50.6910 C.2   248  TRP248      0.2264
     78  O        -37.7880   19.9220  -49.8240 O.2   248  TRP248     -0.2867
     79  CB       -40.7270   18.7120  -50.0020 C.3   248  TRP248      0.0550
     80  CG       -41.7920   18.7370  -48.9620 C.ar  248  TRP248      0.0003
     81  CD1      -43.0600   18.2730  -49.0890 C.ar  248  TRP248      0.0946
     82  CD2      -41.6670   19.2010  -47.6160 C.ar  248  TRP248      0.0152
     83  NE1      -43.7360   18.4300  -47.9090 N.ar  248  TRP248     -0.2442
     84  CE2      -42.9110   19.0080  -46.9920 C.ar  248  TRP248      0.0810
     85  CE3      -40.6260   19.7740  -46.8780 C.ar  248  TRP248      0.0012
     86  CZ2      -43.1440   19.3680  -45.6710 C.ar  248  TRP248      0.0191
     87  CZ3      -40.8500   20.1280  -45.5700 C.ar  248  TRP248      0.0001
     88  CH2      -42.1090   19.9490  -44.9810 C.ar  248  TRP248      0.0015
     89  N        -36.4010   22.5440  -49.5970 N.3   251  CYS251     -0.1235
     90  CA       -36.0690   22.4510  -48.1610 C.3   251  CYS251      0.1677
     91  C        -35.1780   21.2250  -47.8740 C.2   251  CYS251      0.2270
     92  O        -34.9670   20.8580  -46.7190 O.2   251  CYS251     -0.2867
     93  CB       -37.3530   22.3130  -47.3510 C.3   251  CYS251      0.0956
     94  SG       -38.4630   23.7320  -47.5370 S.3   251  CYS251     -0.0801
     95  N        -35.8160   17.9090  -48.7450 N.3   253  LEU253     -0.1245
     96  CA       -36.4990   16.6420  -48.5280 C.3   253  LEU253      0.1561
     97  C        -37.0230   16.0380  -49.8270 C.2   253  LEU253      0.2260
     98  O        -37.9510   16.6040  -50.4730 O.2   253  LEU253     -0.2867
     99  CB       -37.6350   16.7930  -47.5440 C.3   253  LEU253      0.0270
    100  CG       -38.3850   15.4410  -47.3960 C.3   253  LEU253      0.0019
    101  CD1      -37.4520   14.3740  -46.8190 C.3   253  LEU253      0.0001
    102  CD2      -39.6930   15.4560  -46.5400 C.3   253  LEU253      0.0001
    103  N        -30.2910   28.8730  -35.9760 N.3   330  THR330     -0.1218
    104  CA       -30.3160   27.4840  -35.5150 C.3   330  THR330      0.1862
    105  C        -28.8990   26.8980  -35.3320 C.2   330  THR330      0.2287
    106  O        -28.7490   25.7580  -34.9050 O.2   330  THR330     -0.2866
    107  CB       -31.0500   26.6190  -36.5490 C.3   330  THR330      0.1770
    108  OG1      -30.3490   26.7400  -37.7860 O.3   330  THR330     -0.2211
    109  CG2      -32.5030   27.0840  -36.7260 C.3   330  THR330      0.0375
    110  N        -24.7150   26.4390  -42.2380 N.3   343  LYS343     -0.1231
    111  CA       -26.1240   26.1250  -42.3240 C.3   343  LYS343      0.1693
    112  C        -26.3050   24.7180  -41.7760 C.2   343  LYS343      0.2593
    113  O        -25.4930   23.8220  -42.0320 O.2   343  LYS343     -0.2718
    114  CB       -26.6420   26.2200  -43.7590 C.3   343  LYS343      0.0285
    115  CG       -28.1390   25.8750  -43.9180 C.3   343  LYS343      0.0035
    116  CD       -29.0520   26.9070  -43.2220 C.3   343  LYS343      0.0206
    117  CE       -30.5200   26.5640  -43.3090 C.3   343  LYS343      0.1093
    118  NZ       -30.9210   25.6160  -42.2250 N.3   343  LYS343     -0.1314
    119  N        -27.3690   24.5580  -40.9740 N.am  344  THR344     -0.1939
    120  CA       -27.7260   23.3190  -40.3430 C.3   344  THR344      0.2028
    121  C        -28.7610   22.5990  -41.1470 C.2   344  THR344      0.2643
    122  O        -29.4510   23.2160  -41.9880 O.2   344  THR344     -0.2714
    123  CB       -28.4150   23.5650  -38.9820 C.3   344  THR344      0.1808
    124  OG1      -29.5070   24.4960  -39.1560 O.3   344  THR344     -0.2208
    125  CG2      -27.4360   24.1510  -38.0400 C.3   344  THR344      0.0379
    126  N        -28.9490   21.3170  -40.8130 N.am  345  GLY345     -0.1939
    127  CA       -30.0430   20.5380  -41.3600 C.3   345  GLY345      0.2014
    128  C        -30.4450   19.3760  -40.4980 C.2   345  GLY345      0.2640
    129  O        -29.6050   18.8440  -39.7510 O.2   345  GLY345     -0.2714
    130  N        -31.7340   19.0090  -40.5890 N.am  346  THR346     -0.1936
    131  CA       -32.2550   17.8070  -39.9470 C.3   346  THR346      0.2028
    132  C        -33.1910   17.0530  -40.8830 C.2   346  THR346      0.2642
    133  O        -33.9820   17.6700  -41.5740 O.2   346  THR346     -0.2714
    134  CB       -33.0070   18.1360  -38.6300 C.3   346  THR346      0.1808
    135  OG1      -32.1770   18.9400  -37.7840 O.3   346  THR346     -0.2208
    136  CG2      -33.3700   16.8620  -37.8440 C.3   346  THR346      0.0379
    137  N        -33.0880   15.7300  -40.9360 N.am  347  ALA347     -0.1963
    138  CA       -33.9570   14.9600  -41.8130 C.3   347  ALA347      0.1728
    139  C        -34.2880   13.5780  -41.2880 C.2   347  ALA347      0.2616
    140  O        -33.4120   12.8760  -40.7090 O.2   347  ALA347     -0.2715
    141  CB       -33.3390   14.8470  -43.1630 C.3   347  ALA347      0.0334
    142  N        -35.5490   13.1810  -41.5140 N.am  348  ASP348     -0.1971
    143  CA       -36.0450   11.8750  -41.0570 C.3   348  ASP348      0.1709
    144  C        -35.5220   10.7400  -41.8880 C.2   348  ASP348      0.2293
    145  O        -35.2780   10.8750  -43.0920 O.2   348  ASP348     -0.2864
    146  CB       -37.5650   11.7640  -41.1680 C.3   348  ASP348      0.1436
    147  CG       -38.2860   12.5150  -40.1000 C.2   348  ASP348      0.3671
    148  OD1      -37.9740   12.3430  -38.8890 O.co2 348  ASP348     -0.2456
    149  OD2      -39.1830   13.2850  -40.4870 O.co2 348  ASP348     -0.2456
    150  N        -33.6960   10.1620  -37.0590 N.3   354  PHE354     -0.1241
    151  CA       -33.3150   11.2680  -37.9300 C.3   354  PHE354      0.1605
    152  C        -31.8460   11.6040  -37.7930 C.2   354  PHE354      0.2264
    153  O        -31.2010   11.1930  -36.8270 O.2   354  PHE354     -0.2867
    154  CB       -34.2050   12.4990  -37.7090 C.3   354  PHE354      0.0534
    155  CG       -34.1480   13.0730  -36.3140 C.ar  354  PHE354     -0.0203
    156  CD1      -33.0240   13.7870  -35.8830 C.ar  354  PHE354     -0.0042
    157  CD2      -35.2470   12.9470  -35.4460 C.ar  354  PHE354     -0.0042
    158  CE1      -32.9740   14.3310  -34.6010 C.ar  354  PHE354     -0.0003
    159  CE2      -35.2060   13.4920  -34.1670 C.ar  354  PHE354     -0.0003
    160  CZ       -34.0620   14.1690  -33.7410 C.ar  354  PHE354     -0.0000
    161  N        -30.6280   16.0820  -32.2480 N.3   383  LEU383     -0.1231
    162  CA       -30.9770   17.4120  -32.7630 C.3   383  LEU383      0.1693
    163  C        -29.8850   18.4610  -32.4690 C.2   383  LEU383      0.2592
    164  O        -29.5300   18.6740  -31.3010 O.2   383  LEU383     -0.2718
    165  CB       -32.2840   17.8680  -32.1470 C.3   383  LEU383      0.0284
    166  CG       -32.9360   19.0570  -32.8170 C.3   383  LEU383      0.0019
    167  CD1      -33.4660   18.6050  -34.1720 C.3   383  LEU383      0.0001
    168  CD2      -34.0600   19.6290  -31.9740 C.3   383  LEU383      0.0001
    169  N        -29.3570   19.0970  -33.5130 N.am  384  GLY384     -0.1957
    170  CA       -28.3580   20.1310  -33.3470 C.3   384  GLY384      0.1869
    171  C        -26.9120   19.6400  -33.1850 C.2   384  GLY384      0.2309
    172  O        -25.9910   20.4610  -33.0960 O.2   384  GLY384     -0.2863
@<TRIPOS>BOND
     1    75    76    1
     2    77    76    1
     3    77    78    2
     4    98    97    2
     5    76    79    1
     6    79    80    1
     7    97    96    1
     8    89    90    1
     9    14    13    2
    10    81    80   ar
    11    81    83   ar
    12    80    82   ar
    13    13    12    1
    14    95    96    1
    15    96    99    1
    16    12    11    1
    17    12    15    1
    18    90    91    1
    19    90    93    1
    20    83    84   ar
    21    91    92    2
    22    82    84   ar
    23    82    85   ar
    24    99   100    1
    25    94    93    1
    26   100   101    1
    27   100   102    1
    28    15    16    1
    29    84    86   ar
    30    16    17    1
    31    85    87   ar
    32    70    69    2
    33     4     3    2
    34     1     2    1
    35    86    88   ar
    36    87    88   ar
    37    17    18    1
    38     3     2    1
    39     3     5   am
    40    69    68    1
    41     8     7    2
    42    18    19    1
    43     7     6    1
    44     6     5    1
    45     6     9    1
    46    68    71    1
    47    68    67    1
    48    71    72    1
    49   115   114    1
    50   115   116    1
    51    73    72    2
    52   114   111    1
    53    20    21    1
    54    72    74   am
    55   117   116    1
    56   117   118    1
    57     9    10    1
    58   141   138    1
    59   145   144    2
    60   111   110    1
    61   111   112    1
    62    21    22    1
    63    21    24    1
    64    23    22    2
    65   113   112    2
    66    26    28   ar
    67    26    25   ar
    68   122   121    2
    69   144   143    1
    70   138   139    1
    71   138   137    1
    72   112   119   am
    73    22    30   am
    74    28    29   ar
    75    66    65    1
    76    36    35    2
    77   133   132    2
    78   142   139   am
    79   142   143    1
    80   127   126    1
    81   127   128    1
    82    24    25    1
    83   139   140    2
    84    63    62    1
    85    63    64    2
    86    25    27   ar
    87   146   143    1
    88   146   147    1
    89   121   126   am
    90   121   120    1
    91    62    65    1
    92    62    61    1
    93   119   120    1
    94   137   132   am
    95    30    31    1
    96   132   131    1
    97    29    27   ar
    98   130   128   am
    99   130   131    1
   100    35    37   am
   101    35    34    1
   102   128   129    2
   103   149   147   ar
   104   120   123    1
   105    61    52   am
   106    31    34    1
   107    31    32    1
   108   147   148   ar
   109   131   134    1
   110    50    51    1
   111   124   123    1
   112    32    33    2
   113    32    38   am
   114    52    53    2
   115    52    51    1
   116   123   125    1
   117    38    39    1
   118   134   136    1
   119   134   135    1
   120    51    54    1
   121   151   152    1
   122   151   154    1
   123   151   150    1
   124    54    55    1
   125   152   153    2
   126   108   107    1
   127   154   155    1
   128    39    42    1
   129    39    40    1
   130    42    43    1
   131    55    56    1
   132   109   107    1
   133    56    57    1
   134   107   104    1
   135    40    41    2
   136   155   156   ar
   137   155   157   ar
   138    60    58    1
   139    57    58    2
   140   103   104    1
   141   156   158   ar
   142    43    44   ar
   143    43    45   ar
   144    44    46   ar
   145    58    59    1
   146   104   105    1
   147   157   159   ar
   148   105   106    2
   149    46    48   ar
   150    45    47   ar
   151   158   160   ar
   152   167   166    1
   153   159   160   ar
   154    48    47   ar
   155    48    49    1
   156   169   170    1
   157   169   163   am
   158   170   171    1
   159   171   172    2
   160   166   165    1
   161   166   168    1
   162   162   163    1
   163   162   161    1
   164   162   165    1
   165   163   164    2
