@<TRIPOS>MOLECULE
tmp/4ra9A00.pdb
 74 69 0 0 0
SMALL
GASTEIGER

@<TRIPOS>ATOM
      1  N         38.2540  -26.3320   -7.3620 N.3    10  GLY10      -0.1210
      2  CA        37.4180  -26.3140   -6.1710 C.3    10  GLY10       0.1956
      3  C         36.0110  -26.8390   -6.3960 C.2    10  GLY10       0.2612
      4  O         35.6310  -27.1790   -7.5140 O.2    10  GLY10      -0.2717
      5  N         35.2320  -26.9060   -5.3230 N.am   11  THR11      -0.1952
      6  CA        33.8840  -27.4620   -5.3870 C.3    11  THR11       0.1897
      7  C         33.0260  -26.7120   -6.3810 C.2    11  THR11       0.2313
      8  O         32.2120  -27.3170   -7.0910 O.2    11  THR11      -0.2863
      9  CB        33.2110  -27.3990   -3.9790 C.3    11  THR11       0.1794
     10  OG1       33.7400  -28.4510   -3.1700 O.3    11  THR11      -0.2208
     11  CG2       31.7180  -27.5640   -4.0890 C.3    11  THR11       0.0378
     12  N         41.2270  -29.7710   -6.3400 N.3    51  ASP51      -0.1225
     13  CA        40.6950  -29.6780   -4.9830 C.3    51  ASP51       0.1805
     14  C         41.6570  -28.7910   -4.1960 C.2    51  ASP51       0.2598
     15  O         42.8700  -29.0370   -4.2070 O.2    51  ASP51      -0.2718
     16  CB        40.6850  -31.0580   -4.3180 C.3    51  ASP51       0.1424
     17  CG        39.8600  -32.0810   -5.0820 C.2    51  ASP51       0.3668
     18  OD1       38.8430  -31.7050   -5.7080 O.co2  51  ASP51      -0.2456
     19  OD2       40.2260  -33.2750   -5.0450 O.co2  51  ASP51      -0.2456
     20  N         41.1490  -27.7740   -3.5040 N.am   52  SER52      -0.1938
     21  CA        42.0620  -26.8260   -2.8630 C.3    52  SER52       0.2055
     22  C         42.8630  -27.4270   -1.7120 C.2    52  SER52       0.2643
     23  O         43.8480  -26.8330   -1.2690 O.2    52  SER52      -0.2714
     24  CB        41.3440  -25.5460   -2.4240 C.3    52  SER52       0.2130
     25  OG        40.6660  -25.7360   -1.1880 O.3    52  SER52      -0.2179
     26  N         42.4530  -28.5980   -1.2300 N.am   53  THR53      -0.1950
     27  CA        43.2210  -29.3000   -0.2090 C.3    53  THR53       0.1897
     28  C         44.6170  -29.6750   -0.7140 C.2    53  THR53       0.2313
     29  O         45.5300  -29.9180    0.0820 O.2    53  THR53      -0.2863
     30  CB        42.4740  -30.5710    0.2800 C.3    53  THR53       0.1794
     31  OG1       41.3220  -30.1820    1.0460 O.3    53  THR53      -0.2208
     32  CG2       43.3830  -31.4310    1.1520 C.3    53  THR53       0.0378
     33  N         38.8440  -23.5220   -4.3740 N.3    82  GLY82      -0.1210
     34  CA        38.1780  -24.4200   -3.4310 C.3    82  GLY82       0.1956
     35  C         38.1610  -23.7810   -2.0430 C.2    82  GLY82       0.2613
     36  O         39.0720  -23.0170   -1.7020 O.2    82  GLY82      -0.2717
     37  N         37.1430  -24.0680   -1.2380 N.am   83  THR83      -0.1938
     38  CA        36.9850  -23.3470    0.0240 C.3    83  THR83       0.2028
     39  C         37.9360  -23.8220    1.1160 C.2    83  THR83       0.2642
     40  O         38.2220  -23.0750    2.0610 O.2    83  THR83      -0.2714
     41  CB        35.5470  -23.4500    0.5740 C.3    83  THR83       0.1808
     42  OG1       35.2910  -24.8100    0.9390 O.3    83  THR83      -0.2208
     43  CG2       34.5380  -23.0000   -0.4690 C.3    83  THR83       0.0379
     44  N         38.4300  -25.0540    1.0090 N.am   84  ASP84      -0.1971
     45  CA        39.3110  -25.5870    2.0620 C.3    84  ASP84       0.1709
     46  C         40.5800  -24.7750    2.3350 C.2    84  ASP84       0.2293
     47  O         40.9750  -24.6310    3.4850 O.2    84  ASP84      -0.2864
     48  CB        39.6720  -27.0570    1.8040 C.3    84  ASP84       0.1436
     49  CG        38.6140  -28.0120    2.3440 C.2    84  ASP84       0.3671
     50  OD1       37.5560  -27.5170    2.8130 O.co2  84  ASP84      -0.2456
     51  OD2       38.8300  -29.2420    2.2940 O.co2  84  ASP84      -0.2456
     52  N         32.4240  -21.7530   -3.6870 N.3   109  SER109     -0.1202
     53  CA        31.0880  -22.1200   -3.2500 C.3   109  SER109      0.2020
     54  C         31.0960  -23.4500   -2.5380 C.2   109  SER109      0.2618
     55  O         31.9960  -24.2680   -2.7390 O.2   109  SER109     -0.2717
     56  CB        30.0900  -22.1280   -4.4100 C.3   109  SER109      0.2103
     57  OG        30.3340  -23.2100   -5.2890 O.3   109  SER109     -0.2182
     58  N         30.0950  -23.6400   -1.6840 N.am  110  MET110     -0.1979
     59  CA        29.9530  -24.8680   -0.9230 C.3   110  MET110      0.1605
     60  C         29.2210  -25.9270   -1.7390 C.2   110  MET110      0.2287
     61  O         29.3570  -27.1190   -1.4740 O.2   110  MET110     -0.2864
     62  CB        29.2240  -24.5820    0.3980 C.3   110  MET110      0.0413
     63  CG        29.9840  -23.6090    1.2940 C.3   110  MET110      0.0598
     64  SD        31.6430  -24.1690    1.7570 S.3   110  MET110     -0.1393
     65  CE        31.2570  -25.4060    3.0070 C.3   110  MET110      0.0692
     66  N         37.8610  -19.7240    7.3520 N.3   154  LYS154     -0.1245
     67  CA        36.7530  -20.6570    7.1950 C.3   154  LYS154      0.1561
     68  C         36.3220  -21.1000    8.5850 C.2   154  LYS154      0.2260
     69  O         37.1280  -21.6540    9.3390 O.2   154  LYS154     -0.2867
     70  CB        37.1730  -21.8810    6.3750 C.3   154  LYS154      0.0271
     71  CG        36.0270  -22.8690    6.1180 C.3   154  LYS154      0.0035
     72  CD        36.3760  -23.8370    4.9530 C.3   154  LYS154      0.0206
     73  CE        35.1620  -24.6320    4.5040 C.3   154  LYS154      0.1093
     74  NZ        35.5440  -25.6620    3.4750 N.3   154  LYS154     -0.1314
@<TRIPOS>BOND
     1     4     3    2
     2     1     2    1
     3     8     7    2
     4     3     2    1
     5     3     5   am
     6     7     6    1
     7    12    13    1
     8    18    17   ar
     9     6     5    1
    10     6     9    1
    11    57    56    1
    12    17    19   ar
    13    17    16    1
    14    13    16    1
    15    13    14    1
    16    56    53    1
    17    33    34    1
    18    15    14    2
    19    14    20   am
    20    11     9    1
    21     9    10    1
    22    52    53    1
    23    20    21    1
    24    34    35    1
    25    53    54    1
    26    21    24    1
    27    21    22    1
    28    55    54    2
    29    54    58   am
    30    24    25    1
    31    35    36    2
    32    35    37   am
    33    60    61    2
    34    60    59    1
    35    22    23    2
    36    22    26   am
    37    58    59    1
    38    37    38    1
    39    26    27    1
    40    59    62    1
    41    28    27    1
    42    28    29    2
    43    43    41    1
    44    27    30    1
    45    38    41    1
    46    38    39    1
    47    30    31    1
    48    30    32    1
    49    62    63    1
    50    41    42    1
    51    44    39   am
    52    44    45    1
    53    39    40    2
    54    63    64    1
    55    64    65    1
    56    48    45    1
    57    48    49    1
    58    45    46    1
    59    51    49   ar
    60    46    47    2
    61    49    50   ar
    62    74    73    1
    63    73    72    1
    64    72    71    1
    65    71    70    1
    66    70    67    1
    67    67    66    1
    68    67    68    1
    69    68    69    2
