@<TRIPOS>MOLECULE
tmp/4rajA00.pdb
 205 194 0 0 0
SMALL
GASTEIGER

@<TRIPOS>ATOM
      1  N          1.0050   58.3420   48.6030 N.3    15  HIS15      -0.1241
      2  CA         1.2150   56.8910   48.5370 C.3    15  HIS15       0.1621
      3  C          1.7840   56.4040   49.8640 C.2    15  HIS15       0.2264
      4  O          1.3190   55.4150   50.4130 O.2    15  HIS15      -0.2867
      5  CB         2.1460   56.5090   47.3820 C.3    15  HIS15       0.0745
      6  CG         1.9490   55.1100   46.8770 C.ar   15  HIS15       0.0817
      7  ND1        1.2640   54.1480   47.5890 N.ar   15  HIS15      -0.2268
      8  CD2        2.3520   54.5120   45.7300 C.ar   15  HIS15       0.1154
      9  CE1        1.2530   53.0190   46.9020 C.ar   15  HIS15       0.1986
     10  NE2        1.9070   53.2120   45.7710 N.ar   15  HIS15      -0.2212
     11  N         -0.9460   56.4030   52.3510 N.3    18  SER18      -0.1217
     12  CA        -1.8400   55.2650   52.1300 C.3    18  SER18       0.1889
     13  C         -1.2740   53.9530   52.6780 C.2    18  SER18       0.2288
     14  O         -1.9560   53.1820   53.3480 O.2    18  SER18      -0.2866
     15  CB        -2.1050   55.1150   50.6430 C.3    18  SER18       0.2089
     16  OG        -2.9710   56.1160   50.1860 O.3    18  SER18      -0.2183
     17  N         -2.9910   51.4910   55.2800 N.3    22  VAL22      -0.1245
     18  CA        -3.2550   50.0780   54.9730 C.3    22  VAL22       0.1561
     19  C         -2.5050   49.1300   55.9130 C.2    22  VAL22       0.2260
     20  O         -3.1190   48.2500   56.5320 O.2    22  VAL22      -0.2867
     21  CB        -2.8910   49.7570   53.5280 C.3    22  VAL22       0.0252
     22  CG1       -3.0450   48.2650   53.2680 C.3    22  VAL22       0.0019
     23  CG2       -3.7760   50.5880   52.5720 C.3    22  VAL22       0.0019
     24  N         -3.8280   48.7660   59.3700 N.3    25  ARG25      -0.1231
     25  CA        -5.1190   48.0970   59.5070 C.3    25  ARG25       0.1694
     26  C         -5.0730   46.6050   59.1500 C.2    25  ARG25       0.2591
     27  O         -5.9580   45.8600   59.5360 O.2    25  ARG25      -0.2718
     28  CB        -6.1620   48.8130   58.6620 C.3    25  ARG25       0.0321
     29  CG        -6.7350   50.0370   59.3900 C.3    25  ARG25       0.0489
     30  CD        -7.5930   50.8910   58.4860 C.3    25  ARG25       0.2205
     31  NE        -8.0180   52.1280   59.1430 N.pl3  25  ARG25      -0.0865
     32  CZ        -7.2270   53.1780   59.3760 C.cat  25  ARG25       0.5346
     33  NH1       -5.9450   53.1560   59.0200 N.pl3  25  ARG25       0.1354
     34  NH2       -7.7180   54.2520   59.9810 N.pl3  25  ARG25       0.1354
     35  N         -4.0340   46.1780   58.4420 N.am   26  LEU26      -0.1980
     36  CA        -3.8590   44.7640   58.1030 C.3    26  LEU26       0.1596
     37  C         -3.9200   43.8250   59.2860 C.2    26  LEU26       0.2287
     38  O         -4.6010   42.8000   59.2220 O.2    26  LEU26      -0.2864
     39  CB        -2.5270   44.5410   57.4090 C.3    26  LEU26       0.0297
     40  CG        -2.4370   45.1150   56.0140 C.3    26  LEU26       0.0022
     41  CD1       -1.0890   44.7570   55.4190 C.3    26  LEU26       0.0001
     42  CD2       -3.5860   44.5950   55.1770 C.3    26  LEU26       0.0001
     43  N         -7.3390   43.4750   60.4090 N.3    29  LEU29      -0.1245
     44  CA        -8.1720   42.6950   59.4900 C.3    29  LEU29       0.1561
     45  C         -7.8510   41.2050   59.5220 C.2    29  LEU29       0.2260
     46  O         -8.7570   40.3740   59.4470 O.2    29  LEU29      -0.2867
     47  CB        -8.0260   43.2170   58.0670 C.3    29  LEU29       0.0270
     48  CG        -8.4490   44.6620   57.8280 C.3    29  LEU29       0.0019
     49  CD1       -8.2220   44.9650   56.3660 C.3    29  LEU29       0.0001
     50  CD2       -9.9020   44.8760   58.2150 C.3    29  LEU29       0.0001
     51  N        -11.7740   40.9420   57.5410 N.3    36  TYR36      -0.1241
     52  CA       -11.0010   41.0280   56.3190 C.3    36  TYR36       0.1605
     53  C        -11.9130   41.1050   55.0870 C.2    36  TYR36       0.2264
     54  O        -11.7660   41.9770   54.2260 O.2    36  TYR36      -0.2867
     55  CB       -10.0610   39.8180   56.2280 C.3    36  TYR36       0.0534
     56  CG        -9.3450   39.6920   54.9110 C.ar   36  TYR36      -0.0201
     57  CD1       -8.2520   40.4980   54.6110 C.ar   36  TYR36      -0.0009
     58  CD2       -9.7600   38.7670   53.9620 C.ar   36  TYR36      -0.0009
     59  CE1       -7.5890   40.3790   53.3920 C.ar   36  TYR36       0.0417
     60  CE2       -9.1080   38.6400   52.7520 C.ar   36  TYR36       0.0417
     61  CZ        -8.0250   39.4400   52.4740 C.ar   36  TYR36       0.1957
     62  OH        -7.3840   39.3140   51.2690 O.3    36  TYR36      -0.2866
     63  N        -13.9360   44.2670   54.7050 N.3    39  ALA39      -0.1231
     64  CA       -13.0690   45.3290   54.2050 C.3    39  ALA39       0.1694
     65  C        -12.8410   45.1750   52.7000 C.2    39  ALA39       0.2591
     66  O        -12.8930   46.1550   51.9640 O.2    39  ALA39      -0.2718
     67  CB       -11.7440   45.3370   54.9560 C.3    39  ALA39       0.0304
     68  N        -12.6060   43.9440   52.2470 N.am   40  LEU40      -0.1980
     69  CA       -12.5240   43.6500   50.8050 C.3    40  LEU40       0.1596
     70  C        -13.7760   44.1080   50.0750 C.2    40  LEU40       0.2287
     71  O        -13.7110   44.6000   48.9410 O.2    40  LEU40      -0.2864
     72  CB       -12.3340   42.1480   50.5420 C.3    40  LEU40       0.0297
     73  CG       -10.9760   41.4590   50.6460 C.3    40  LEU40       0.0022
     74  CD1      -11.1060   40.0340   50.1390 C.3    40  LEU40       0.0001
     75  CD2       -9.9120   42.1790   49.8580 C.3    40  LEU40       0.0001
     76  N        -13.9110   47.5180   48.5140 N.3    43  PHE43      -0.1241
     77  CA       -13.2420   47.6590   47.2430 C.3    43  PHE43       0.1605
     78  C        -13.8400   46.7770   46.1560 C.2    43  PHE43       0.2264
     79  O        -13.6290   47.0250   44.9610 O.2    43  PHE43      -0.2867
     80  CB       -11.7500   47.4340   47.4670 C.3    43  PHE43       0.0534
     81  CG       -11.1380   48.5950   48.1660 C.ar   43  PHE43      -0.0203
     82  CD1      -10.6870   49.6830   47.4370 C.ar   43  PHE43      -0.0042
     83  CD2      -11.1590   48.6800   49.5460 C.ar   43  PHE43      -0.0042
     84  CE1      -10.1840   50.8060   48.0820 C.ar   43  PHE43      -0.0003
     85  CE2      -10.6610   49.8080   50.2000 C.ar   43  PHE43      -0.0003
     86  CZ       -10.1750   50.8660   49.4620 C.ar   43  PHE43      -0.0000
     87  N        -14.2900   48.5190   42.5920 N.3    47  PHE47      -0.1241
     88  CA       -14.0180   47.9390   41.2830 C.3    47  PHE47       0.1605
     89  C        -15.2820   47.6780   40.4560 C.2    47  PHE47       0.2264
     90  O        -15.2320   47.7920   39.2380 O.2    47  PHE47      -0.2867
     91  CB       -13.1800   46.6570   41.4270 C.3    47  PHE47       0.0534
     92  CG       -11.7350   46.9520   41.7000 C.ar   47  PHE47      -0.0203
     93  CD1      -10.8960   47.3610   40.6750 C.ar   47  PHE47      -0.0042
     94  CD2      -11.2280   46.8920   42.9840 C.ar   47  PHE47      -0.0042
     95  CE1       -9.5600   47.6760   40.9300 C.ar   47  PHE47      -0.0003
     96  CE2       -9.8920   47.2080   43.2480 C.ar   47  PHE47      -0.0003
     97  CZ        -9.0650   47.5980   42.2190 C.ar   47  PHE47      -0.0000
     98  N        -12.9530   39.8780   43.4520 N.3    82  PHE82      -0.1241
     99  CA       -13.4050   40.3640   44.7630 C.3    82  PHE82       0.1605
    100  C        -14.7060   39.6940   45.1800 C.2    82  PHE82       0.2264
    101  O        -14.8800   39.2960   46.3210 O.2    82  PHE82      -0.2867
    102  CB       -13.6130   41.8850   44.7550 C.3    82  PHE82       0.0534
    103  CG       -12.3570   42.6750   45.0300 C.ar   82  PHE82      -0.0203
    104  CD1      -11.5090   43.0180   43.9850 C.ar   82  PHE82      -0.0042
    105  CD2      -12.0390   43.0870   46.3270 C.ar   82  PHE82      -0.0042
    106  CE1      -10.3680   43.7440   44.2210 C.ar   82  PHE82      -0.0003
    107  CE2      -10.9030   43.8070   46.5730 C.ar   82  PHE82      -0.0003
    108  CZ       -10.0600   44.1410   45.5160 C.ar   82  PHE82      -0.0000
    109  N         -4.0370   53.7180   38.8270 N.3   129  THR129     -0.1203
    110  CA        -3.9040   53.7160   40.2750 C.3   129  THR129      0.1994
    111  C         -4.3880   52.4330   40.9480 C.2   129  THR129      0.2617
    112  O         -3.6900   51.8660   41.7850 O.2   129  THR129     -0.2717
    113  CB        -4.6920   54.8780   40.8940 C.3   129  THR129      0.1784
    114  OG1       -4.3330   56.1110   40.2380 O.3   129  THR129     -0.2211
    115  CG2       -4.4110   54.9860   42.3900 C.3   129  THR129      0.0376
    116  N         -5.5950   52.0100   40.5830 N.am  130  GLN130     -0.1979
    117  CA        -6.3020   50.9190   41.2540 C.3   130  GLN130      0.1601
    118  C         -5.8970   49.5540   40.7270 C.2   130  GLN130      0.2287
    119  O         -5.4760   48.6820   41.4810 O.2   130  GLN130     -0.2864
    120  CB        -7.8170   51.0920   41.0910 C.3   130  GLN130      0.0394
    121  CG        -8.3720   52.4640   41.5700 C.3   130  GLN130      0.0908
    122  CD        -8.4280   52.5760   43.0750 C.2   130  GLN130      0.2608
    123  OE1       -7.8670   51.7480   43.7890 O.2   130  GLN130     -0.2717
    124  NE2       -9.1250   53.6030   43.5770 N.am  130  GLN130     -0.0878
    125  N         -2.0570   48.5450   41.0830 N.3   133  ALA133     -0.1231
    126  CA        -1.6520   48.2570   42.4600 C.3   133  ALA133      0.1694
    127  C         -2.0780   46.8460   42.8710 C.2   133  ALA133      0.2591
    128  O         -1.3330   46.1500   43.5670 O.2   133  ALA133     -0.2718
    129  CB        -2.2230   49.2990   43.4190 C.3   133  ALA133      0.0304
    130  N         -3.2620   46.4120   42.4280 N.am  134  MET134     -0.1979
    131  CA        -3.7160   45.0450   42.7120 C.3   134  MET134      0.1605
    132  C         -2.7560   44.0130   42.1380 C.2   134  MET134      0.2287
    133  O         -2.5170   42.9530   42.7490 O.2   134  MET134     -0.2864
    134  CB        -5.1240   44.8250   42.1570 C.3   134  MET134      0.0413
    135  CG        -6.1460   45.7310   42.8430 C.3   134  MET134      0.0598
    136  SD        -6.3700   45.2470   44.5750 S.3   134  MET134     -0.1393
    137  CE        -6.9310   43.5760   44.2670 C.3   134  MET134      0.0692
    138  N         -0.7390   44.2160   45.8800 N.3   138  GLY138     -0.1225
    139  CA        -1.7890   43.2540   46.1880 C.3   138  GLY138      0.1811
    140  C         -1.2720   41.8340   46.3900 C.2   138  GLY138      0.2280
    141  O         -1.8760   41.0550   47.1290 O.2   138  GLY138     -0.2866
    142  N         -0.5260   41.2800   50.1530 N.3   141  VAL141     -0.1245
    143  CA        -1.7380   40.9920   50.9160 C.3   141  VAL141      0.1561
    144  C         -2.1700   39.5480   50.6830 C.2   141  VAL141      0.2260
    145  O         -2.5390   38.8390   51.6100 O.2   141  VAL141     -0.2867
    146  CB        -2.8900   41.9480   50.5210 C.3   141  VAL141      0.0252
    147  CG1       -4.1840   41.5400   51.1940 C.3   141  VAL141      0.0019
    148  CG2       -2.5290   43.3830   50.8840 C.3   141  VAL141      0.0019
    149  N         -6.7910   38.9520   44.1410 N.3   160  PHE160     -0.1241
    150  CA        -5.3790   39.1910   43.8460 C.3   160  PHE160      0.1605
    151  C         -4.7680   38.1660   42.8720 C.2   160  PHE160      0.2264
    152  O         -3.5540   38.1700   42.6470 O.2   160  PHE160     -0.2867
    153  CB        -4.5860   39.1820   45.1550 C.3   160  PHE160      0.0534
    154  CG        -5.1560   40.1030   46.2020 C.ar  160  PHE160     -0.0203
    155  CD1       -5.0010   41.4720   46.0890 C.ar  160  PHE160     -0.0042
    156  CD2       -5.8560   39.5960   47.2900 C.ar  160  PHE160     -0.0042
    157  CE1       -5.5370   42.3180   47.0470 C.ar  160  PHE160     -0.0003
    158  CE2       -6.3870   40.4370   48.2530 C.ar  160  PHE160     -0.0003
    159  CZ        -6.2310   41.7960   48.1330 C.ar  160  PHE160     -0.0000
    160  N         -6.1410   57.9900   45.1960 N.3   201  PHE201     -0.1241
    161  CA        -5.5500   57.7990   46.5250 C.3   201  PHE201      0.1605
    162  C         -6.4350   58.4360   47.5900 C.2   201  PHE201      0.2264
    163  O         -6.6950   57.8500   48.6420 O.2   201  PHE201     -0.2867
    164  CB        -4.1440   58.3990   46.6110 C.3   201  PHE201      0.0534
    165  CG        -3.0840   57.5650   45.9680 C.ar  201  PHE201     -0.0203
    166  CD1       -2.4420   56.5640   46.6880 C.ar  201  PHE201     -0.0042
    167  CD2       -2.7100   57.7850   44.6510 C.ar  201  PHE201     -0.0042
    168  CE1       -1.4520   55.7910   46.1020 C.ar  201  PHE201     -0.0003
    169  CE2       -1.7230   57.0110   44.0560 C.ar  201  PHE201     -0.0003
    170  CZ        -1.0980   56.0110   44.7820 C.ar  201  PHE201     -0.0000
    171  N         -9.5650   56.3850   48.1450 N.3   204  ASN204     -0.1225
    172  CA        -9.2240   55.1350   48.8020 C.3   204  ASN204      0.1785
    173  C         -8.9630   55.3660   50.2730 C.2   204  ASN204      0.2597
    174  O         -9.4170   54.6070   51.1200 O.2   204  ASN204     -0.2718
    175  CB        -7.9960   54.4830   48.1510 C.3   204  ASN204      0.1169
    176  CG        -8.3420   53.7300   46.8880 C.2   204  ASN204      0.2627
    177  OD1       -9.4460   53.8560   46.3690 O.2   204  ASN204     -0.2716
    178  ND2       -7.3970   52.9440   46.3830 N.am  204  ASN204     -0.0877
    179  N         -8.2400   56.4320   50.5850 N.am  205  ASN205     -0.1974
    180  CA        -7.9130   56.6920   51.9920 C.3   205  ASN205      0.1688
    181  C         -9.1710   56.9920   52.8040 C.2   205  ASN205      0.2292
    182  O         -9.3180   56.5310   53.9330 O.2   205  ASN205     -0.2864
    183  CB        -6.9030   57.8340   52.0950 C.3   205  ASN205      0.1181
    184  CG        -5.5210   57.4160   51.6390 C.2   205  ASN205      0.2629
    185  OD1       -5.2960   56.2490   51.2920 O.2   205  ASN205     -0.2716
    186  ND2       -4.5890   58.3610   51.6200 N.am  205  ASN205     -0.0877
    187  N        -11.0450   53.6870   53.3630 N.3   208  ILE208     -0.1245
    188  CA       -10.3430   52.9350   54.3990 C.3   208  ILE208      0.1561
    189  C        -10.6130   53.4900   55.8020 C.2   208  ILE208      0.2260
    190  O        -10.8860   52.7420   56.7460 O.2   208  ILE208     -0.2867
    191  CB        -8.8340   52.9340   54.1260 C.3   208  ILE208      0.0252
    192  CG1       -8.5400   52.1050   52.8750 C.3   208  ILE208      0.0019
    193  CG2       -8.0750   52.3440   55.2990 C.3   208  ILE208      0.0019
    194  CD1       -7.1760   52.3520   52.2980 C.3   208  ILE208      0.0001
    195  N        -14.0800   52.8060   57.3980 N.3   211  PHE211     -0.1241
    196  CA       -14.4200   51.4180   57.6970 C.3   211  PHE211      0.1605
    197  C        -14.4080   51.2020   59.2030 C.2   211  PHE211      0.2264
    198  O        -13.4430   51.5620   59.8780 O.2   211  PHE211     -0.2867
    199  CB       -13.4490   50.4360   57.0130 C.3   211  PHE211      0.0534
    200  CG       -13.7720   48.9740   57.2800 C.ar  211  PHE211     -0.0203
    201  CD1      -14.8110   48.3400   56.6020 C.ar  211  PHE211     -0.0042
    202  CD2      -13.0420   48.2400   58.2060 C.ar  211  PHE211     -0.0042
    203  CE1      -15.1170   46.9980   56.8480 C.ar  211  PHE211     -0.0003
    204  CE2      -13.3400   46.8940   58.4570 C.ar  211  PHE211     -0.0003
    205  CZ       -14.3770   46.2750   57.7750 C.ar  211  PHE211     -0.0000
@<TRIPOS>BOND
     1   109   110    1
     2    90    89    2
     3   114   113    1
     4   110   113    1
     5   110   111    1
     6    89    88    1
     7   116   111   am
     8   116   117    1
     9    93    95   ar
    10    93    92   ar
    11   118   117    1
    12   118   119    2
    13   113   115    1
    14    95    97   ar
    15   111   112    2
    16   125   126    1
    17   120   117    1
    18   120   121    1
    19    88    91    1
    20    88    87    1
    21    91    92    1
    22   121   122    1
    23    92    94   ar
    24   132   131    1
    25   132   133    2
    26   134   131    1
    27   134   135    1
    28    97    96   ar
    29   130   131    1
    30   130   127   am
    31   126   127    1
    32   126   129    1
    33   152   151    2
    34   135   136    1
    35   127   128    2
    36   151   150    1
    37    94    96   ar
    38   122   124   am
    39   122   123    2
    40    98    99    1
    41   150   149    1
    42   150   153    1
    43   104   106   ar
    44   104   103   ar
    45   169   167   ar
    46   169   170   ar
    47   106   108   ar
    48   137   136    1
    49   167   165   ar
    50   102    99    1
    51   102   103    1
    52    99   100    1
    53   170   168   ar
    54    79    78    2
    55   103   105   ar
    56   153   154    1
    57   100   101    2
    58   160   161    1
    59   108   107   ar
    60     8    10   ar
    61     8     6   ar
    62    10     9   ar
    63   138   139    1
    64   165   164    1
    65   165   166   ar
    66   155   154   ar
    67   155   157   ar
    68   168   166   ar
    69    78    77    1
    70   139   140    1
    71   154   156   ar
    72   105   107   ar
    73   177   176    2
    74   178   176   am
    75   140   141    2
    76   161   164    1
    77   161   162    1
    78     6     5    1
    79     6     7   ar
    80   176   175    1
    81     9     7   ar
    82   157   159   ar
    83    77    80    1
    84    77    76    1
    85   156   158   ar
    86     5     2    1
    87    82    84   ar
    88    82    81   ar
    89    80    81    1
    90   162   163    2
    91    84    86   ar
    92   159   158   ar
    93   171   172    1
    94   175   172    1
    95    81    83   ar
    96     2     1    1
    97     2     3    1
    98   172   173    1
    99    71    70    2
   100    86    85   ar
   101    83    85   ar
   102    75    73    1
   103     3     4    2
   104    70    69    1
   105    74    73    1
   106   142   143    1
   107    16    15    1
   108   173   179   am
   109   173   174    2
   110   146   148    1
   111   146   143    1
   112   146   147    1
   113    72    73    1
   114    72    69    1
   115   179   180    1
   116    15    12    1
   117   144   143    1
   118   144   145    2
   119    69    68    1
   120    62    61    1
   121   185   184    2
   122   186   184   am
   123   184   183    1
   124    66    65    2
   125   180   183    1
   126   180   181    1
   127    12    11    1
   128    12    13    1
   129    68    65   am
   130   194   192    1
   131    61    60   ar
   132    61    59   ar
   133    23    21    1
   134    13    14    2
   135    65    64    1
   136    60    58   ar
   137   181   182    2
   138   192   191    1
   139    22    21    1
   140   187   188    1
   141    59    57   ar
   142    21    18    1
   143    58    56   ar
   144   191   188    1
   145   191   193    1
   146    64    63    1
   147    64    67    1
   148    54    53    2
   149   188   189    1
   150    57    56   ar
   151    56    55    1
   152    18    17    1
   153    18    19    1
   154    53    52    1
   155    42    40    1
   156    41    40    1
   157   189   190    2
   158    19    20    2
   159    40    39    1
   160    55    52    1
   161    52    51    1
   162    49    48    1
   163   201   203   ar
   164   201   200   ar
   165   203   205   ar
   166   199   200    1
   167   199   196    1
   168   200   202   ar
   169   195   196    1
   170    39    36    1
   171   196   197    1
   172   205   204   ar
   173    48    47    1
   174    48    50    1
   175    47    44    1
   176    36    35    1
   177    36    37    1
   178   202   204   ar
   179    35    26   am
   180    30    31    1
   181    30    29    1
   182    28    29    1
   183    28    25    1
   184    33    32    1
   185    31    32    2
   186    26    25    1
   187    26    27    2
   188   197   198    2
   189    38    37    2
   190    24    25    1
   191    32    34    1
   192    46    45    2
   193    44    45    1
   194    44    43    1
