@<TRIPOS>MOLECULE
tmp/4rakB00.pdb
 229 218 0 0 0
SMALL
GASTEIGER

@<TRIPOS>ATOM
      1  N          4.0670  -20.0670  -28.2400 N.3    42  PHE42      -0.1241
      2  CA         2.6690  -19.6650  -28.4150 C.3    42  PHE42       0.1605
      3  C          1.8100  -20.2500  -27.3120 C.2    42  PHE42       0.2264
      4  O          1.0170  -19.5280  -26.7200 O.2    42  PHE42      -0.2867
      5  CB         2.1350  -20.0940  -29.7760 C.3    42  PHE42       0.0534
      6  CG         0.7990  -19.4870  -30.1340 C.ar   42  PHE42      -0.0203
      7  CD1       -0.3910  -20.0870  -29.7240 C.ar   42  PHE42      -0.0042
      8  CD2        0.7280  -18.3360  -30.9180 C.ar   42  PHE42      -0.0042
      9  CE1       -1.6230  -19.5290  -30.0550 C.ar   42  PHE42      -0.0003
     10  CE2       -0.5100  -17.7830  -31.2600 C.ar   42  PHE42      -0.0003
     11  CZ        -1.6780  -18.3880  -30.8260 C.ar   42  PHE42      -0.0000
     12  N          2.6810  -18.3360  -23.9250 N.3    45  PHE45      -0.1227
     13  CA         2.0090  -17.0460  -23.8320 C.3    45  PHE45       0.1736
     14  C          0.4960  -17.2260  -23.5940 C.2    45  PHE45       0.2596
     15  O         -0.1220  -16.4160  -22.9080 O.2    45  PHE45      -0.2718
     16  CB         2.2880  -16.2000  -25.0790 C.3    45  PHE45       0.0547
     17  CG         3.6480  -15.5410  -25.1210 C.ar   45  PHE45      -0.0202
     18  CD1        4.1200  -14.7980  -24.0480 C.ar   45  PHE45      -0.0042
     19  CD2        4.4560  -15.6490  -26.2490 C.ar   45  PHE45      -0.0042
     20  CE1        5.3810  -14.1940  -24.0850 C.ar   45  PHE45      -0.0003
     21  CE2        5.7060  -15.0250  -26.2950 C.ar   45  PHE45      -0.0003
     22  CZ         6.1630  -14.2960  -25.2130 C.ar   45  PHE45      -0.0000
     23  N         -0.0740  -18.3090  -24.1480 N.am   46  THR46      -0.1953
     24  CA        -1.4890  -18.6920  -24.0280 C.3    46  THR46       0.1897
     25  C         -1.8420  -18.9350  -22.5480 C.2    46  THR46       0.2313
     26  O         -2.8230  -18.3930  -22.0400 O.2    46  THR46      -0.2863
     27  CB        -1.7420  -19.9470  -24.9100 C.3    46  THR46       0.1794
     28  OG1       -1.6080  -19.6020  -26.2840 O.3    46  THR46      -0.2208
     29  CG2       -3.0980  -20.5530  -24.7190 C.3    46  THR46       0.0378
     30  N         -0.1690  -18.0360  -19.9040 N.3    48  LEU48      -0.1231
     31  CA         0.0610  -16.7650  -19.2340 C.3    48  LEU48       0.1693
     32  C         -1.1670  -15.8500  -19.3420 C.2    48  LEU48       0.2591
     33  O         -1.4640  -15.0980  -18.3910 O.2    48  LEU48      -0.2718
     34  CB         1.2980  -16.1000  -19.8490 C.3    48  LEU48       0.0284
     35  CG         2.6140  -16.1320  -19.0610 C.3    48  LEU48       0.0019
     36  CD1        2.7660  -17.3580  -18.1550 C.3    48  LEU48       0.0001
     37  CD2        3.8120  -15.9370  -19.9670 C.3    48  LEU48       0.0001
     38  N         -1.8780  -15.9150  -20.4910 N.am   49  ALA49      -0.1980
     39  CA        -3.0750  -15.1060  -20.7210 C.3    49  ALA49       0.1597
     40  C         -4.2110  -15.6330  -19.8790 C.2    49  ALA49       0.2287
     41  O         -4.9710  -14.8460  -19.3260 O.2    49  ALA49      -0.2864
     42  CB        -3.4620  -15.0860  -22.1930 C.3    49  ALA49       0.0319
     43  N         -3.9700  -17.2140  -16.9900 N.3    51  ILE51      -0.1231
     44  CA        -3.6600  -16.8090  -15.6110 C.3    51  ILE51       0.1692
     45  C         -4.0540  -15.3330  -15.4170 C.2    51  ILE51       0.2592
     46  O         -4.6510  -14.9950  -14.3950 O.2    51  ILE51      -0.2718
     47  CB        -2.1560  -17.0700  -15.2640 C.3    51  ILE51       0.0266
     48  CG1       -1.8720  -18.5780  -15.1320 C.3    51  ILE51       0.0019
     49  CG2       -1.6990  -16.3150  -14.0010 C.3    51  ILE51       0.0020
     50  CD1       -0.3780  -18.9710  -15.2440 C.3    51  ILE51       0.0001
     51  N         -3.7170  -14.4710  -16.4110 N.am   52  SER52      -0.1952
     52  CA        -4.0380  -13.0370  -16.4170 C.3    52  SER52       0.1924
     53  C         -5.5440  -12.8000  -16.3510 C.2    52  SER52       0.2314
     54  O         -5.9560  -11.8830  -15.6500 O.2    52  SER52      -0.2863
     55  CB        -3.4430  -12.3280  -17.6370 C.3    52  SER52       0.2116
     56  OG        -3.5940  -10.9130  -17.5620 O.3    52  SER52      -0.2180
     57  N         -6.5240  -13.2850  -12.6500 N.3    55  GLU55      -0.1245
     58  CA        -6.0870  -12.1550  -11.8360 C.3    55  GLU55       0.1567
     59  C         -7.0170  -10.9700  -11.9960 C.2    55  GLU55       0.2260
     60  O         -7.3320  -10.3040  -11.0060 O.2    55  GLU55      -0.2867
     61  CB        -4.6720  -11.7360  -12.2060 C.3    55  GLU55       0.0388
     62  CG        -3.5950  -12.4360  -11.4390 C.3    55  GLU55       0.1160
     63  CD        -2.2270  -11.8260  -11.6390 C.2    55  GLU55       0.3649
     64  OE1       -1.3020  -12.5810  -12.0100 O.co2  55  GLU55      -0.2457
     65  OE2       -2.0810  -10.6020  -11.4060 O.co2  55  GLU55      -0.2457
     66  N         -8.7430   -7.3460  -22.4090 N.3    83  ILE83      -0.1245
     67  CA        -7.5980   -7.0650  -23.3050 C.3    83  ILE83       0.1561
     68  C         -6.8670   -5.7730  -22.8860 C.2    83  ILE83       0.2260
     69  O         -5.6560   -5.7460  -22.8120 O.2    83  ILE83      -0.2867
     70  CB        -7.9440   -7.1120  -24.8190 C.3    83  ILE83       0.0252
     71  CG1       -6.6730   -6.9220  -25.6970 C.3    83  ILE83       0.0019
     72  CG2       -9.0290   -6.1310  -25.2280 C.3    83  ILE83       0.0019
     73  CD1       -5.6310   -8.0390  -25.6080 C.3    83  ILE83       0.0001
     74  N         -4.9860   -6.2480  -19.5770 N.3    86  MET86      -0.1230
     75  CA        -3.7650   -7.0400  -19.9220 C.3    86  MET86       0.1702
     76  C         -2.6770   -6.0930  -20.4770 C.2    86  MET86       0.2592
     77  O         -1.5240   -6.1910  -20.0680 O.2    86  MET86      -0.2718
     78  CB        -4.0710   -8.1120  -20.9560 C.3    86  MET86       0.0401
     79  CG        -4.7400   -9.3290  -20.4330 C.3    86  MET86       0.0596
     80  SD        -5.3040  -10.3540  -21.8160 S.3    86  MET86      -0.1393
     81  CE        -5.7020  -11.8880  -20.9140 C.3    86  MET86       0.0692
     82  N         -3.0800   -5.1310  -21.3360 N.am   87  LEU87      -0.1980
     83  CA        -2.1490   -4.1510  -21.9240 C.3    87  LEU87       0.1596
     84  C         -1.5970   -3.1860  -20.8810 C.2    87  LEU87       0.2287
     85  O         -0.4000   -2.9580  -20.8420 O.2    87  LEU87      -0.2864
     86  CB        -2.8110   -3.3850  -23.0880 C.3    87  LEU87       0.0297
     87  CG        -2.6660   -3.8280  -24.5600 C.3    87  LEU87       0.0022
     88  CD1       -1.6600   -4.8970  -24.8160 C.3    87  LEU87       0.0001
     89  CD2       -3.9950   -4.1220  -25.1970 C.3    87  LEU87       0.0001
     90  N         -1.3870   -3.7180  -17.6640 N.3    89  GLU89      -0.1231
     91  CA        -0.5920   -4.5500  -16.8040 C.3    89  GLU89       0.1699
     92  C          0.7640   -4.8820  -17.4350 C.2    89  GLU89       0.2592
     93  O          1.7670   -4.9400  -16.7260 O.2    89  GLU89      -0.2718
     94  CB        -1.3830   -5.8270  -16.4820 C.3    89  GLU89       0.0402
     95  CG        -0.8230   -6.6920  -15.3670 C.3    89  GLU89       0.1161
     96  CD        -0.5340   -6.0170  -14.0390 C.2    89  GLU89       0.3649
     97  OE1       -1.1590   -4.9930  -13.6970 O.co2  89  GLU89      -0.2457
     98  OE2        0.3100   -6.5520  -13.3120 O.co2  89  GLU89      -0.2457
     99  N          0.7860   -5.0920  -18.7700 N.am   90  THR90      -0.1953
    100  CA         2.0150   -5.3480  -19.5470 C.3    90  THR90       0.1897
    101  C          2.9240   -4.1300  -19.4250 C.2    90  THR90       0.2313
    102  O          4.0900   -4.2690  -19.0850 O.2    90  THR90      -0.2863
    103  CB         1.6520   -5.7580  -20.9790 C.3    90  THR90       0.1794
    104  OG1        0.9320   -6.9870  -20.9320 O.3    90  THR90      -0.2208
    105  CG2        2.8810   -5.9600  -21.8670 C.3    90  THR90       0.0378
    106  N          4.6690   -3.7850  -16.1030 N.3    93  ARG93      -0.1245
    107  CA         5.6950   -4.8200  -16.0240 C.3    93  ARG93       0.1563
    108  C          6.8100   -4.6320  -17.0660 C.2    93  ARG93       0.2260
    109  O          7.6490   -5.5130  -17.2510 O.2    93  ARG93      -0.2867
    110  CB         5.0110   -6.1880  -16.1320 C.3    93  ARG93       0.0307
    111  CG         4.1760   -6.5390  -14.8980 C.3    93  ARG93       0.0489
    112  CD         2.9250   -7.3590  -15.1890 C.3    93  ARG93       0.2205
    113  NE         2.9710   -8.7090  -14.6100 N.pl3  93  ARG93      -0.0865
    114  CZ         2.7460   -9.0080  -13.3380 C.cat  93  ARG93       0.5346
    115  NH1        2.4420   -8.0620  -12.4670 N.pl3  93  ARG93       0.1354
    116  NH2        2.8240  -10.2560  -12.9270 N.pl3  93  ARG93       0.1354
    117  N          6.6980  -11.0690  -16.6880 N.3   103  PHE103     -0.1227
    118  CA         5.4210  -11.7190  -16.4510 C.3   103  PHE103      0.1736
    119  C          5.6010  -12.5920  -15.2100 C.2   103  PHE103      0.2595
    120  O          6.7200  -12.9670  -14.9050 O.2   103  PHE103     -0.2718
    121  CB         4.9560  -12.5300  -17.6770 C.3   103  PHE103      0.0547
    122  CG         4.3480  -11.7130  -18.8060 C.ar  103  PHE103     -0.0202
    123  CD1        3.5680  -10.5870  -18.5430 C.ar  103  PHE103     -0.0042
    124  CD2        4.4970  -12.1090  -20.1360 C.ar  103  PHE103     -0.0042
    125  CE1        2.9930   -9.8470  -19.5830 C.ar  103  PHE103     -0.0003
    126  CE2        3.9210  -11.3690  -21.1690 C.ar  103  PHE103     -0.0003
    127  CZ         3.1800  -10.2400  -20.8880 C.ar  103  PHE103     -0.0000
    128  N          4.5100  -12.8540  -14.4610 N.am  104  LEU104     -0.1980
    129  CA         4.5590  -13.4850  -13.1190 C.3   104  LEU104      0.1596
    130  C          5.5380  -12.6320  -12.2660 C.2   104  LEU104      0.2287
    131  O          5.2300  -11.4500  -12.1150 O.2   104  LEU104     -0.2864
    132  CB         4.8140  -14.9980  -13.2050 C.3   104  LEU104      0.0297
    133  CG         3.7780  -15.7280  -14.1050 C.3   104  LEU104      0.0022
    134  CD1        4.2350  -17.1080  -14.5620 C.3   104  LEU104      0.0001
    135  CD2        2.3910  -15.7980  -13.4740 C.3   104  LEU104      0.0001
    136  N          8.4910  -12.2530  -28.5100 N.3   114  PHE114     -0.1241
    137  CA         7.0850  -12.2140  -28.9380 C.3   114  PHE114      0.1605
    138  C          7.0410  -12.4700  -30.4430 C.2   114  PHE114      0.2264
    139  O          6.2040  -13.2460  -30.9130 O.2   114  PHE114     -0.2867
    140  CB         6.4140  -10.8750  -28.5680 C.3   114  PHE114      0.0534
    141  CG         6.2480  -10.6480  -27.0760 C.ar  114  PHE114     -0.0203
    142  CD1        5.1030  -11.0630  -26.4190 C.ar  114  PHE114     -0.0042
    143  CD2        7.2170   -9.9810  -26.3460 C.ar  114  PHE114     -0.0042
    144  CE1        4.9390  -10.8390  -25.0530 C.ar  114  PHE114     -0.0003
    145  CE2        7.0600   -9.7550  -24.9830 C.ar  114  PHE114     -0.0003
    146  CZ         5.9180  -10.1880  -24.3400 C.ar  114  PHE114     -0.0000
    147  N          3.7500  -14.0210  -33.4200 N.3   119  LEU119     -0.1245
    148  CA         2.9030  -12.8590  -33.2670 C.3   119  LEU119      0.1561
    149  C          3.3340  -11.7790  -34.2420 C.2   119  LEU119      0.2260
    150  O          4.5270  -11.5430  -34.4110 O.2   119  LEU119     -0.2867
    151  CB         2.9550  -12.3580  -31.8200 C.3   119  LEU119      0.0270
    152  CG         2.0810  -13.0420  -30.7450 C.3   119  LEU119      0.0019
    153  CD1        0.9700  -13.9250  -31.3140 C.3   119  LEU119      0.0001
    154  CD2        2.9340  -13.7850  -29.7520 C.3   119  LEU119      0.0001
    155  N          0.8580   -5.9420  -34.2370 N.3   123  PHE123     -0.1227
    156  CA         0.3770   -5.8940  -32.8560 C.3   123  PHE123      0.1736
    157  C          1.4840   -5.7720  -31.8090 C.2   123  PHE123      0.2595
    158  O          1.3020   -5.0680  -30.8180 O.2   123  PHE123     -0.2718
    159  CB        -0.5420   -7.1010  -32.5450 C.3   123  PHE123      0.0547
    160  CG        -1.2670   -7.0200  -31.2290 C.ar  123  PHE123     -0.0202
    161  CD1       -1.9530   -5.8680  -30.8610 C.ar  123  PHE123     -0.0042
    162  CD2       -1.3240   -8.1150  -30.3890 C.ar  123  PHE123     -0.0042
    163  CE1       -2.6160   -5.8020  -29.6460 C.ar  123  PHE123     -0.0003
    164  CE2       -1.9950   -8.0530  -29.1750 C.ar  123  PHE123     -0.0003
    165  CZ        -2.6390   -6.9000  -28.8120 C.ar  123  PHE123     -0.0000
    166  N          2.6220   -6.4450  -32.0140 N.am  124  ILE124     -0.1980
    167  CA         3.7270   -6.3880  -31.0660 C.3   124  ILE124      0.1595
    168  C          4.3080   -4.9690  -31.0220 C.2   124  ILE124      0.2287
    169  O          4.6030   -4.4890  -29.9270 O.2   124  ILE124     -0.2864
    170  CB         4.7870   -7.5170  -31.3190 C.3   124  ILE124      0.0276
    171  CG1        4.1600   -8.9260  -31.1780 C.3   124  ILE124      0.0022
    172  CG2        6.0320   -7.3890  -30.4290 C.3   124  ILE124      0.0022
    173  CD1        3.2980   -9.2110  -29.8620 C.3   124  ILE124      0.0001
    174  N          2.2030   -2.5670  -28.8310 N.3   127  ILE127     -0.1245
    175  CA         2.3680   -3.0050  -27.4220 C.3   127  ILE127      0.1561
    176  C          3.5700   -2.3500  -26.7970 C.2   127  ILE127      0.2260
    177  O          3.4640   -1.7330  -25.7270 O.2   127  ILE127     -0.2867
    178  CB         2.4520   -4.5450  -27.2960 C.3   127  ILE127      0.0252
    179  CG1        1.0770   -5.1940  -27.5550 C.3   127  ILE127      0.0019
    180  CG2        2.9880   -4.9850  -25.9090 C.3   127  ILE127      0.0019
    181  CD1        1.0990   -6.7110  -27.6650 C.3   127  ILE127      0.0001
    182  N         -5.9460   -5.5150  -31.9620 N.3   209  HIS209     -0.1241
    183  CA        -5.9870   -6.9040  -31.4930 C.3   209  HIS209      0.1621
    184  C         -7.0740   -7.7490  -32.1860 C.2   209  HIS209      0.2264
    185  O         -6.7820   -8.8810  -32.5590 O.2   209  HIS209     -0.2867
    186  CB        -6.1280   -6.9800  -29.9560 C.3   209  HIS209      0.0745
    187  CG        -6.1940   -8.3700  -29.4160 C.ar  209  HIS209      0.0817
    188  ND1       -7.3980   -8.9720  -29.1190 N.ar  209  HIS209     -0.2268
    189  CD2       -5.2110   -9.2630  -29.1730 C.ar  209  HIS209      0.1154
    190  CE1       -7.1240  -10.1930  -28.6930 C.ar  209  HIS209      0.1986
    191  NE2       -5.8160  -10.4060  -28.7120 N.ar  209  HIS209     -0.2212
    192  N         -4.4990  -15.9050  -36.1360 N.3   216  LEU216     -0.1245
    193  CA        -4.5430  -17.0750  -35.2660 C.3   216  LEU216      0.1561
    194  C         -5.3630  -18.1910  -35.8950 C.2   216  LEU216      0.2260
    195  O         -5.1740  -19.3550  -35.5430 O.2   216  LEU216     -0.2867
    196  CB        -5.0980  -16.6980  -33.8650 C.3   216  LEU216      0.0270
    197  CG        -4.5300  -15.4140  -33.2040 C.3   216  LEU216      0.0019
    198  CD1       -5.3800  -14.9770  -32.0360 C.3   216  LEU216      0.0001
    199  CD2       -3.0720  -15.5710  -32.7750 C.3   216  LEU216      0.0001
    200  N         -6.9780  -21.9360  -30.1310 N.3   223  LEU223     -0.1245
    201  CA        -6.9290  -21.2630  -28.8160 C.3   223  LEU223      0.1561
    202  C         -7.8250  -21.9790  -27.8000 C.2   223  LEU223      0.2260
    203  O         -8.9210  -22.4180  -28.1650 O.2   223  LEU223     -0.2867
    204  CB        -7.4130  -19.8020  -28.9310 C.3   223  LEU223      0.0270
    205  CG        -6.3830  -18.7040  -29.1700 C.3   223  LEU223      0.0019
    206  CD1       -7.0480  -17.4820  -29.7630 C.3   223  LEU223      0.0001
    207  CD2       -5.6780  -18.3220  -27.8890 C.3   223  LEU223      0.0001
    208  N         -9.9330  -18.2560  -23.8180 N.3   227  LEU227     -0.1245
    209  CA        -9.2880  -17.2080  -24.6010 C.3   227  LEU227      0.1561
    210  C         -9.9860  -16.9530  -25.9270 C.2   227  LEU227      0.2260
    211  O        -10.1630  -15.8020  -26.3080 O.2   227  LEU227     -0.2867
    212  CB        -7.8210  -17.5770  -24.8310 C.3   227  LEU227      0.0270
    213  CG        -6.7420  -16.8690  -24.0130 C.3   227  LEU227      0.0019
    214  CD1       -7.1220  -16.6830  -22.5500 C.3   227  LEU227      0.0001
    215  CD2       -5.4260  -17.6100  -24.1340 C.3   227  LEU227      0.0001
    216  N        -11.7990  -13.1840  -26.6590 N.3   231  TRP231     -0.1241
    217  CA       -11.2180  -12.4630  -27.7870 C.3   231  TRP231      0.1605
    218  C        -12.0040  -12.5890  -29.1130 C.2   231  TRP231      0.2264
    219  O        -11.8240  -11.7350  -29.9890 O.2   231  TRP231     -0.2867
    220  CB        -9.7420  -12.8390  -27.9630 C.3   231  TRP231      0.0550
    221  CG        -8.8630  -12.4630  -26.7860 C.ar  231  TRP231      0.0003
    222  CD1       -9.1480  -11.5650  -25.7860 C.ar  231  TRP231      0.0946
    223  CD2       -7.5370  -12.9400  -26.5280 C.ar  231  TRP231      0.0152
    224  NE1       -8.0890  -11.4760  -24.9150 N.ar  231  TRP231     -0.2442
    225  CE2       -7.0870  -12.3050  -25.3460 C.ar  231  TRP231      0.0810
    226  CE3       -6.6840  -13.8410  -27.1810 C.ar  231  TRP231      0.0012
    227  CZ2       -5.8290  -12.5500  -24.8040 C.ar  231  TRP231      0.0191
    228  CZ3       -5.4350  -14.0860  -26.6360 C.ar  231  TRP231      0.0001
    229  CH2       -5.0200  -13.4480  -25.4620 C.ar  231  TRP231      0.0015
@<TRIPOS>BOND
     1   192   193    1
     2   194   195    2
     3   194   193    1
     4   193   196    1
     5   150   149    2
     6   149   148    1
     7   155   156    1
     8   196   197    1
     9   147   148    1
    10   148   151    1
    11   197   199    1
    12   197   198    1
    13   156   159    1
    14   156   157    1
    15   185   184    2
    16   159   160    1
    17   184   183    1
    18   166   157   am
    19   166   167    1
    20   182   183    1
    21   151   152    1
    22   157   158    2
    23   183   186    1
    24   170   171    1
    25   170   167    1
    26   170   172    1
    27   153   152    1
    28    10     8   ar
    29    10    11   ar
    30   160   161   ar
    31   160   162   ar
    32   171   173    1
    33   167   168    1
    34   168   169    2
    35     8     6   ar
    36   139   138    2
    37   161   163   ar
    38    11     9   ar
    39   152   154    1
    40   138   137    1
    41   162   164   ar
    42     6     5    1
    43     6     7   ar
    44   200   201    1
    45     9     7   ar
    46   219   218    2
    47   186   187    1
    48     5     2    1
    49   206   205    1
    50   163   165   ar
    51   187   189   ar
    52   187   188   ar
    53   164   165   ar
    54   189   191   ar
    55   205   204    1
    56   205   207    1
    57   188   190   ar
    58   218   217    1
    59   137   140    1
    60   137   136    1
    61   204   201    1
    62   174   175    1
    63   201   202    1
    64   191   190   ar
    65   140   141    1
    66     2     1    1
    67     2     3    1
    68   203   202    2
    69   220   217    1
    70   220   221    1
    71   217   216    1
    72   181   179    1
    73   179   178    1
    74   175   178    1
    75   175   176    1
    76     3     4    2
    77   178   180    1
    78   226   228   ar
    79   226   223   ar
    80   141   142   ar
    81   141   143   ar
    82   176   177    2
    83   221   223   ar
    84   221   222   ar
    85   228   229   ar
    86   223   225   ar
    87   142   144   ar
    88   143   145   ar
    89   211   210    2
    90    21    19   ar
    91    21    22   ar
    92    28    27    1
    93    19    17   ar
    94   210   209    1
    95   222   224   ar
    96    71    73    1
    97    71    70    1
    98   229   227   ar
    99   225   224   ar
   100   225   227   ar
   101    72    70    1
   102    22    20   ar
   103    89    87    1
   104    17    16    1
   105    17    18   ar
   106    16    13    1
   107   144   146   ar
   108   145   146   ar
   109    27    29    1
   110    27    24    1
   111   212   209    1
   112   212   213    1
   113    70    67    1
   114    88    87    1
   115   209   208    1
   116    87    86    1
   117    23    24    1
   118    23    14   am
   119   215   213    1
   120    20    18   ar
   121    24    25    1
   122   213   214    1
   123    12    13    1
   124    13    14    1
   125    14    15    2
   126    67    68    1
   127    67    66    1
   128    86    83    1
   129    68    69    2
   130    25    26    2
   131    42    39    1
   132    83    82    1
   133    83    84    1
   134   105   103    1
   135    80    81    1
   136    80    79    1
   137    82    76   am
   138   126   127   ar
   139   126   124   ar
   140   103   104    1
   141   103   100    1
   142    78    79    1
   143    78    75    1
   144   127   125   ar
   145    84    85    2
   146    39    38    1
   147    39    40    1
   148    38    32   am
   149    76    77    2
   150    76    75    1
   151   124   122   ar
   152    37    35    1
   153    75    74    1
   154    30    31    1
   155    40    41    2
   156    34    31    1
   157    34    35    1
   158   125   123   ar
   159   100   101    1
   160   100    99    1
   161   101   102    2
   162    32    31    1
   163    32    33    2
   164    35    36    1
   165   122   123   ar
   166   122   121    1
   167    99    92   am
   168   121   118    1
   169    90    91    1
   170    55    56    1
   171    55    52    1
   172    92    91    1
   173    92    93    2
   174   109   108    2
   175   108   107    1
   176    43    44    1
   177    91    94    1
   178   117   118    1
   179    94    95    1
   180   118   119    1
   181    52    51    1
   182    52    53    1
   183    51    45   am
   184    53    54    2
   185   110   107    1
   186   110   111    1
   187   106   107    1
   188    44    45    1
   189    44    47    1
   190    45    46    2
   191    95    96    1
   192    47    48    1
   193    47    49    1
   194    50    48    1
   195   119   120    2
   196   119   128   am
   197   112   111    1
   198   112   113    1
   199   113   114    2
   200   134   133    1
   201   128   129    1
   202   133   135    1
   203   133   132    1
   204    96    97   ar
   205    96    98   ar
   206   114   116    1
   207   114   115    1
   208   132   129    1
   209   129   130    1
   210    57    58    1
   211   130   131    2
   212    61    58    1
   213    61    62    1
   214    64    63   ar
   215    59    58    1
   216    59    60    2
   217    63    62    1
   218    63    65   ar
