@<TRIPOS>MOLECULE
tmp/4ralB00.pdb
 238 234 0 0 0
SMALL
GASTEIGER

@<TRIPOS>ATOM
      1  N       -107.3560    6.8140  -45.3440 N.3    66  HIS66      -0.1241
      2  CA      -106.7840    5.6300  -44.7170 C.3    66  HIS66       0.1621
      3  C       -105.8450    4.9260  -45.6870 C.2    66  HIS66       0.2264
      4  O       -104.7630    4.4730  -45.3140 O.2    66  HIS66      -0.2867
      5  CB      -107.8880    4.6750  -44.2670 C.3    66  HIS66       0.0745
      6  CG      -107.3870    3.3330  -43.8340 C.ar   66  HIS66       0.0817
      7  ND1     -108.0670    2.1640  -44.1030 N.ar   66  HIS66      -0.2268
      8  CD2     -106.2780    2.9730  -43.1450 C.ar   66  HIS66       0.1154
      9  CE1     -107.3960    1.1420  -43.6040 C.ar   66  HIS66       0.1986
     10  NE2     -106.3060    1.6050  -43.0170 N.ar   66  HIS66      -0.2212
     11  N       -102.5160    6.6420  -46.1180 N.3    69  GLN69      -0.1231
     12  CA      -101.5940    6.3060  -45.0400 C.3    69  GLN69       0.1698
     13  C       -100.7250    5.1010  -45.3980 C.2    69  GLN69       0.2592
     14  O        -99.5070    5.1310  -45.2290 O.2    69  GLN69      -0.2718
     15  CB      -102.3650    6.0260  -43.7500 C.3    69  GLN69       0.0381
     16  CG      -101.5630    5.2730  -42.7080 C.3    69  GLN69       0.0905
     17  CD      -102.4370    4.6270  -41.6560 C.2    69  GLN69       0.2608
     18  OE1     -103.5830    5.0280  -41.4500 O.2    69  GLN69      -0.2717
     19  NE2     -101.9020    3.6140  -40.9850 N.am   69  GLN69      -0.0878
     20  N       -101.3610    4.0430  -45.8920 N.am   70  HIS70      -0.1976
     21  CA      -100.6490    2.8290  -46.2760 C.3    70  HIS70       0.1656
     22  C        -99.6710    3.0750  -47.4190 C.2    70  HIS70       0.2291
     23  O        -98.5770    2.5140  -47.4450 O.2    70  HIS70      -0.2864
     24  CB      -101.6380    1.7340  -46.6850 C.3    70  HIS70       0.0771
     25  CG      -102.3150    1.0630  -45.5310 C.ar   70  HIS70       0.0820
     26  ND1     -102.1010   -0.2600  -45.2120 N.ar   70  HIS70      -0.2267
     27  CD2     -103.2070    1.5300  -44.6260 C.ar   70  HIS70       0.1154
     28  CE1     -102.8300   -0.5790  -44.1570 C.ar   70  HIS70       0.1986
     29  NE2     -103.5110    0.4890  -43.7830 N.ar   70  HIS70      -0.2212
     30  N        -95.9190    4.6970  -47.0180 N.3    73  PHE73      -0.1227
     31  CA       -94.8130    3.8290  -46.6200 C.3    73  PHE73       0.1736
     32  C        -94.1330    3.1490  -47.8070 C.2    73  PHE73       0.2595
     33  O        -93.0300    2.6200  -47.6710 O.2    73  PHE73      -0.2718
     34  CB       -95.2970    2.7470  -45.6470 C.3    73  PHE73       0.0547
     35  CG       -95.7110    3.2680  -44.2980 C.ar   73  PHE73      -0.0202
     36  CD1      -97.0320    3.6010  -44.0430 C.ar   73  PHE73      -0.0042
     37  CD2      -94.7830    3.4010  -43.2760 C.ar   73  PHE73      -0.0042
     38  CE1      -97.4170    4.0720  -42.8000 C.ar   73  PHE73      -0.0003
     39  CE2      -95.1610    3.8710  -42.0310 C.ar   73  PHE73      -0.0003
     40  CZ       -96.4790    4.2070  -41.7930 C.ar   73  PHE73      -0.0000
     41  N        -94.7860    3.1660  -48.9650 N.am   74  LEU74      -0.1980
     42  CA       -94.3490    2.3490  -50.0950 C.3    74  LEU74       0.1596
     43  C        -93.4420    3.0730  -51.0840 C.2    74  LEU74       0.2287
     44  O        -93.3470    2.6780  -52.2460 O.2    74  LEU74      -0.2864
     45  CB       -95.5640    1.7990  -50.8430 C.3    74  LEU74       0.0297
     46  CG       -96.5300    0.9240  -50.0440 C.3    74  LEU74       0.0022
     47  CD1      -97.6260    0.3950  -50.9520 C.3    74  LEU74       0.0001
     48  CD2      -95.7990   -0.2200  -49.3540 C.3    74  LEU74       0.0001
     49  N        -91.9280    1.1640  -36.7170 N.3    96  SER96      -0.1202
     50  CA       -92.8070    2.2190  -37.2060 C.3    96  SER96       0.2020
     51  C        -94.2510    1.7580  -37.2990 C.2    96  SER96       0.2619
     52  O        -94.5310    0.5710  -37.4590 O.2    96  SER96      -0.2717
     53  CB       -92.3450    2.7190  -38.5730 C.3    96  SER96       0.2103
     54  OG       -93.1970    3.7480  -39.0480 O.3    96  SER96      -0.2182
     55  N        -95.1610    2.7200  -37.2030 N.am   97  ASN97      -0.1960
     56  CA       -96.5860    2.4600  -37.3240 C.3    97  ASN97       0.1819
     57  C        -97.3290    3.7640  -37.5870 C.2    97  ASN97       0.2621
     58  O        -96.7430    4.8450  -37.5220 O.2    97  ASN97      -0.2715
     59  CB       -97.1190    1.7890  -36.0570 C.3    97  ASN97       0.1195
     60  CG       -98.2550    0.8290  -36.3390 C.2    97  ASN97       0.2630
     61  OD1      -98.8500    0.8530  -37.4140 O.2    97  ASN97      -0.2716
     62  ND2      -98.5660   -0.0210  -35.3660 N.am   97  ASN97      -0.0877
     63  N        -98.6190    3.6620  -37.8810 N.am   98  ALA98      -0.1963
     64  CA       -99.4330    4.8440  -38.1320 C.3    98  ALA98       0.1728
     65  C       -100.9080    4.5320  -37.9370 C.2    98  ALA98       0.2616
     66  O       -101.3080    3.3690  -37.9640 O.2    98  ALA98      -0.2715
     67  CB       -99.1840    5.3730  -39.5360 C.3    98  ALA98       0.0334
     68  N       -101.7180    5.5660  -37.7340 N.am   99  PHE99      -0.1960
     69  CA      -103.1600    5.3720  -37.6690 C.3    99  PHE99       0.1771
     70  C       -103.9170    6.5450  -38.2820 C.2    99  PHE99       0.2620
     71  O       -103.3740    7.6390  -38.4340 O.2    99  PHE99      -0.2715
     72  CB      -103.6200    5.1300  -36.2220 C.3    99  PHE99       0.0574
     73  CG      -103.4220    6.3030  -35.2990 C.ar   99  PHE99      -0.0200
     74  CD1     -102.2600    6.4270  -34.5550 C.ar   99  PHE99      -0.0042
     75  CD2     -104.4140    7.2620  -35.1500 C.ar   99  PHE99      -0.0042
     76  CE1     -102.0810    7.4970  -33.6950 C.ar   99  PHE99      -0.0003
     77  CE2     -104.2400    8.3350  -34.2950 C.ar   99  PHE99      -0.0003
     78  CZ      -103.0740    8.4500  -33.5650 C.ar   99  PHE99      -0.0000
     79  N       -105.1740    6.2980  -38.6380 N.am  100  THR100     -0.1937
     80  CA      -106.0190    7.3120  -39.2580 C.3   100  THR100      0.2028
     81  C       -107.3610    7.4230  -38.5420 C.2   100  THR100      0.2642
     82  O       -108.2280    6.5610  -38.6910 O.2   100  THR100     -0.2714
     83  CB      -106.2730    7.0000  -40.7450 C.3   100  THR100      0.1808
     84  OG1     -105.0220    6.8610  -41.4290 O.3   100  THR100     -0.2208
     85  CG2     -107.0810    8.1120  -41.3930 C.3   100  THR100      0.0379
     86  N       -107.5300    8.4910  -37.7700 N.am  101  SER101     -0.1949
     87  CA      -108.7900    8.7400  -37.0840 C.3   101  SER101      0.1924
     88  C       -109.6970    9.6270  -37.9280 C.2   101  SER101      0.2314
     89  O       -109.4380    9.8480  -39.1140 O.2   101  SER101     -0.2863
     90  CB      -108.5420    9.3750  -35.7150 C.3   101  SER101      0.2116
     91  OG      -107.9040   10.6320  -35.8450 O.3   101  SER101     -0.2180
     92  N        -95.5520    7.8770  -36.9520 N.3   108  TYR108     -0.1241
     93  CA       -94.5210    7.8570  -35.9170 C.3   108  TYR108      0.1605
     94  C        -93.5260    6.7100  -36.0920 C.2   108  TYR108      0.2264
     95  O        -93.8260    5.7070  -36.7430 O.2   108  TYR108     -0.2867
     96  CB       -95.1650    7.7780  -34.5290 C.3   108  TYR108      0.0534
     97  CG       -96.1400    6.6320  -34.3520 C.ar  108  TYR108     -0.0201
     98  CD1      -95.7160    5.3940  -33.8900 C.ar  108  TYR108     -0.0009
     99  CD2      -97.4900    6.7970  -34.6360 C.ar  108  TYR108     -0.0009
    100  CE1      -96.6080    4.3500  -33.7220 C.ar  108  TYR108      0.0417
    101  CE2      -98.3890    5.7600  -34.4720 C.ar  108  TYR108      0.0417
    102  CZ       -97.9440    4.5390  -34.0160 C.ar  108  TYR108      0.1957
    103  OH       -98.8400    3.5050  -33.8530 O.3   108  TYR108     -0.2866
    104  N       -101.3510   -3.0640  -52.3040 N.3   140  GLU140     -0.1245
    105  CA      -101.6050   -2.6590  -50.9210 C.3   140  GLU140      0.1567
    106  C       -103.0940   -2.4680  -50.6220 C.2   140  GLU140      0.2260
    107  O       -103.4960   -2.4190  -49.4600 O.2   140  GLU140     -0.2867
    108  CB      -100.8300   -1.3770  -50.5920 C.3   140  GLU140      0.0388
    109  CG      -100.7660   -1.0320  -49.0980 C.3   140  GLU140      0.1160
    110  CD      -100.0650   -2.0940  -48.2580 C.2   140  GLU140      0.3649
    111  OE1     -100.3370   -2.1630  -47.0400 O.co2 140  GLU140     -0.2457
    112  OE2      -99.2400   -2.8540  -48.8080 O.co2 140  GLU140     -0.2457
    113  N       -107.8300   -5.7810  -43.6930 N.3   147  GLU147     -0.1245
    114  CA      -107.9660   -5.1120  -42.4060 C.3   147  GLU147      0.1567
    115  C       -109.4400   -4.9420  -42.0490 C.2   147  GLU147      0.2260
    116  O       -109.8450   -5.2110  -40.9170 O.2   147  GLU147     -0.2867
    117  CB      -107.2560   -3.7580  -42.4170 C.3   147  GLU147      0.0388
    118  CG      -107.2570   -3.0640  -41.0660 C.3   147  GLU147      0.1160
    119  CD      -106.5170   -1.7420  -41.0850 C.2   147  GLU147      0.3649
    120  OE1     -105.9180   -1.4070  -42.1290 O.co2 147  GLU147     -0.2457
    121  OE2     -106.5420   -1.0370  -40.0530 O.co2 147  GLU147     -0.2457
    122  N       -112.2980   -6.8000  -39.1690 N.3   151  ASN151     -0.1240
    123  CA      -113.1700   -6.0450  -38.2770 C.3   151  ASN151      0.1653
    124  C       -114.6560   -6.2610  -38.5430 C.2   151  ASN151      0.2266
    125  O       -115.5010   -5.7480  -37.8120 O.2   151  ASN151     -0.2867
    126  CB      -112.8450   -4.5550  -38.3740 C.3   151  ASN151      0.1155
    127  CG      -111.4150   -4.2480  -37.9820 C.2   151  ASN151      0.2627
    128  OD1     -110.8450   -4.9010  -37.1060 O.2   151  ASN151     -0.2716
    129  ND2     -110.8230   -3.2530  -38.6330 N.am  151  ASN151     -0.0877
    130  N       -117.4860   -4.6540  -31.7760 N.3   156  ALA156     -0.1231
    131  CA      -117.1840   -3.2600  -31.4680 C.3   156  ALA156      0.1694
    132  C       -117.2310   -2.3940  -32.7220 C.2   156  ALA156      0.2592
    133  O       -117.7630   -1.2840  -32.7020 O.2   156  ALA156     -0.2718
    134  CB      -115.8240   -3.1470  -30.8000 C.3   156  ALA156      0.0304
    135  N       -116.6830   -2.9190  -33.8130 N.am  157  TRP157     -0.1976
    136  CA      -116.6290   -2.1930  -35.0750 C.3   157  TRP157      0.1640
    137  C       -118.0000   -2.0950  -35.7340 C.2   157  TRP157      0.2290
    138  O       -118.3760   -1.0400  -36.2470 O.2   157  TRP157     -0.2864
    139  CB      -115.6350   -2.8640  -36.0240 C.3   157  TRP157      0.0576
    140  CG      -114.2160   -2.5180  -35.7170 C.ar  157  TRP157      0.0006
    141  CD1     -113.3380   -3.2430  -34.9650 C.ar  157  TRP157      0.0946
    142  CD2     -113.5070   -1.3520  -36.1490 C.ar  157  TRP157      0.0152
    143  NE1     -112.1250   -2.6010  -34.9030 N.ar  157  TRP157     -0.2442
    144  CE2     -112.2030   -1.4380  -35.6230 C.ar  157  TRP157      0.0810
    145  CE3     -113.8480   -0.2450  -36.9310 C.ar  157  TRP157      0.0012
    146  CZ2     -111.2400   -0.4590  -35.8550 C.ar  157  TRP157      0.0191
    147  CZ3     -112.8910    0.7260  -37.1590 C.ar  157  TRP157      0.0001
    148  CH2     -111.6020    0.6130  -36.6230 C.ar  157  TRP157      0.0015
    149  N       -120.7840   -2.0780  -34.2850 N.3   159  LEU159     -0.1231
    150  CA      -121.5140   -1.1190  -33.4710 C.3   159  LEU159      0.1693
    151  C       -121.0150    0.3000  -33.7270 C.2   159  LEU159      0.2592
    152  O       -121.7980    1.2480  -33.7640 O.2   159  LEU159     -0.2718
    153  CB      -121.3730   -1.4870  -31.9950 C.3   159  LEU159      0.0284
    154  CG      -122.2070   -0.7460  -30.9560 C.3   159  LEU159      0.0019
    155  CD1     -122.5450   -1.7160  -29.8470 C.3   159  LEU159      0.0001
    156  CD2     -121.4620    0.4670  -30.4020 C.3   159  LEU159      0.0001
    157  N       -119.7040    0.4330  -33.8960 N.am  160  PHE160     -0.1976
    158  CA      -119.0950    1.7230  -34.1810 C.3   160  PHE160      0.1639
    159  C       -119.6400    2.3300  -35.4590 C.2   160  PHE160      0.2290
    160  O       -119.9910    3.5100  -35.4950 O.2   160  PHE160     -0.2864
    161  CB      -117.5750    1.5900  -34.2720 C.3   160  PHE160      0.0560
    162  CG      -116.9020    2.7540  -34.9450 C.ar  160  PHE160     -0.0200
    163  CD1     -116.8210    3.9850  -34.3170 C.ar  160  PHE160     -0.0042
    164  CD2     -116.3120    2.6030  -36.1890 C.ar  160  PHE160     -0.0042
    165  CE1     -116.1880    5.0480  -34.9260 C.ar  160  PHE160     -0.0003
    166  CE2     -115.6780    3.6660  -36.8040 C.ar  160  PHE160     -0.0003
    167  CZ      -115.6150    4.8870  -36.1720 C.ar  160  PHE160     -0.0000
    168  N       -115.2050    4.9830  -42.6360 N.3   177  GLY177     -0.1210
    169  CA      -113.8310    5.4290  -42.4760 C.3   177  GLY177      0.1956
    170  C       -112.8290    4.4550  -43.0590 C.2   177  GLY177      0.2612
    171  O       -111.9440    4.8400  -43.8230 O.2   177  GLY177     -0.2717
    172  N       -112.9530    3.1900  -42.6760 N.am  178  THR178     -0.1952
    173  CA      -112.0830    2.1530  -43.2020 C.3   178  THR178      0.1897
    174  C       -112.4250    1.9860  -44.6800 C.2   178  THR178      0.2313
    175  O       -113.4990    2.3920  -45.1180 O.2   178  THR178     -0.2863
    176  CB      -112.2580    0.8200  -42.4470 C.3   178  THR178      0.1794
    177  OG1     -112.3620    1.0770  -41.0420 O.3   178  THR178     -0.2208
    178  CG2     -111.0840   -0.1140  -42.7040 C.3   178  THR178      0.0378
    179  N        -92.2850   -9.7390  -43.4560 N.3   777  PHE777     -0.1241
    180  CA       -93.3950   -8.8110  -43.6180 C.3   777  PHE777      0.1605
    181  C        -93.4280   -8.2750  -45.0410 C.2   777  PHE777      0.2264
    182  O        -94.4940   -8.1430  -45.6440 O.2   777  PHE777     -0.2867
    183  CB       -93.2760   -7.6630  -42.6150 C.3   777  PHE777      0.0534
    184  CG       -94.3940   -6.6600  -42.6930 C.ar  777  PHE777     -0.0203
    185  CD1      -94.2820   -5.5300  -43.4890 C.ar  777  PHE777     -0.0042
    186  CD2      -95.5510   -6.8380  -41.9540 C.ar  777  PHE777     -0.0042
    187  CE1      -95.3080   -4.6030  -43.5560 C.ar  777  PHE777     -0.0003
    188  CE2      -96.5790   -5.9140  -42.0140 C.ar  777  PHE777     -0.0003
    189  CZ       -96.4570   -4.7950  -42.8160 C.ar  777  PHE777     -0.0000
    190  N        -96.5520  -10.0470  -46.9730 N.3   781  ARG781     -0.1231
    191  CA       -97.6320   -9.0650  -47.0200 C.3   781  ARG781      0.1694
    192  C        -97.4210   -8.0130  -48.1020 C.2   781  ARG781      0.2592
    193  O        -98.1940   -7.9330  -49.0490 O.2   781  ARG781     -0.2718
    194  CB       -97.8120   -8.3630  -45.6730 C.3   781  ARG781      0.0321
    195  CG       -98.8260   -7.2310  -45.7560 C.3   781  ARG781      0.0489
    196  CD       -99.0790   -6.5610  -44.4260 C.3   781  ARG781      0.2205
    197  NE       -99.6930   -5.2480  -44.6110 N.pl3 781  ARG781     -0.0865
    198  CZ      -100.0870   -4.4570  -43.6190 C.cat 781  ARG781      0.5346
    199  NH1      -99.9450   -4.8440  -42.3590 N.pl3 781  ARG781      0.1354
    200  NH2     -100.6320   -3.2780  -43.8870 N.pl3 781  ARG781      0.1354
    201  N        -96.3830   -7.1980  -47.9530 N.am  782  THR782     -0.1953
    202  CA       -96.1730   -6.0710  -48.8550 C.3   782  THR782      0.1897
    203  C        -96.0840   -6.5110  -50.3150 C.2   782  THR782      0.2313
    204  O        -96.6040   -5.8380  -51.2050 O.2   782  THR782     -0.2863
    205  CB       -94.8950   -5.2930  -48.4850 C.3   782  THR782      0.1794
    206  OG1      -94.9650   -4.8810  -47.1140 O.3   782  THR782     -0.2208
    207  CG2      -94.7370   -4.0670  -49.3660 C.3   782  THR782      0.0378
    208  N       -103.3950   -9.0640  -43.9550 N.3   788  TYR788     -0.1227
    209  CA      -103.0520   -7.8890  -43.1670 C.3   788  TYR788      0.1736
    210  C       -102.1900   -8.2840  -41.9760 C.2   788  TYR788      0.2595
    211  O       -101.2320   -7.5930  -41.6290 O.2   788  TYR788     -0.2718
    212  CB      -104.3210   -7.1730  -42.6940 C.3   788  TYR788      0.0548
    213  CG      -104.0850   -6.1150  -41.6400 C.ar  788  TYR788     -0.0200
    214  CD1     -103.6510   -4.8420  -41.9820 C.ar  788  TYR788     -0.0009
    215  CD2     -104.3060   -6.3910  -40.2960 C.ar  788  TYR788     -0.0009
    216  CE1     -103.4390   -3.8760  -41.0140 C.ar  788  TYR788      0.0417
    217  CE2     -104.0940   -5.4330  -39.3220 C.ar  788  TYR788      0.0417
    218  CZ      -103.6610   -4.1780  -39.6860 C.ar  788  TYR788      0.1957
    219  OH      -103.4520   -3.2260  -38.7140 O.3   788  TYR788     -0.2866
    220  N       -102.5470   -9.3960  -41.3450 N.am  789  ILE789     -0.1980
    221  CA      -101.7940   -9.8980  -40.2080 C.3   789  ILE789      0.1595
    222  C       -100.7670  -10.9330  -40.6560 C.2   789  ILE789      0.2287
    223  O       -101.1110  -12.0740  -40.9610 O.2   789  ILE789     -0.2864
    224  CB      -102.7210  -10.5120  -39.1500 C.3   789  ILE789      0.0276
    225  CG1     -103.7110   -9.4590  -38.6480 C.3   789  ILE789      0.0022
    226  CG2     -101.9100  -11.0820  -37.9990 C.3   789  ILE789      0.0022
    227  CD1     -104.7050   -9.9780  -37.6420 C.3   789  ILE789      0.0001
    228  N        -97.0870  -12.2470  -39.1700 N.3   791  PHE791     -0.1241
    229  CA       -96.1710  -12.1430  -38.0400 C.3   791  PHE791      0.1605
    230  C        -95.0490  -13.1750  -38.1210 C.2   791  PHE791      0.2264
    231  O        -95.2590  -14.3060  -38.5590 O.2   791  PHE791     -0.2867
    232  CB       -96.9470  -12.3050  -36.7270 C.3   791  PHE791      0.0534
    233  CG       -96.1020  -12.1560  -35.4920 C.ar  791  PHE791     -0.0203
    234  CD1      -95.8030  -10.9010  -34.9900 C.ar  791  PHE791     -0.0042
    235  CD2      -95.6170  -13.2720  -34.8270 C.ar  791  PHE791     -0.0042
    236  CE1      -95.0310  -10.7600  -33.8510 C.ar  791  PHE791     -0.0003
    237  CE2      -94.8430  -13.1370  -33.6880 C.ar  791  PHE791     -0.0003
    238  CZ       -94.5500  -11.8800  -33.2000 C.ar  791  PHE791     -0.0000
@<TRIPOS>BOND
     1   104   105    1
     2    44    43    2
     3   204   203    2
     4    43    42    1
     5    47    46    1
     6   105   106    1
     7   105   108    1
     8    45    42    1
     9    45    46    1
    10   106   107    2
    11   108   109    1
    12   203   202    1
    13    42    41    1
    14    46    48    1
    15   207   205    1
    16   109   110    1
    17   193   192    2
    18    41    32   am
    19   202   205    1
    20   202   201    1
    21   112   110   ar
    22   205   206    1
    23   110   111   ar
    24   192   201   am
    25   192   191    1
    26    32    33    2
    27    32    31    1
    28    23    22    2
    29    22    21    1
    30   191   190    1
    31   191   194    1
    32    30    31    1
    33    24    21    1
    34    24    25    1
    35    31    34    1
    36    21    20    1
    37    11    12    1
    38    20    13   am
    39   195   194    1
    40   195   196    1
    41     3     4    2
    42     3     2    1
    43    34    35    1
    44   182   181    2
    45    25    26   ar
    46    25    27   ar
    47    13    14    2
    48    13    12    1
    49     1     2    1
    50    26    28   ar
    51   175   174    2
    52   181   180    1
    53    12    15    1
    54     2     5    1
    55   174   173    1
    56    27    29   ar
    57   197   196    1
    58   197   198    2
    59    35    36   ar
    60    35    37   ar
    61     5     6    1
    62    28    29   ar
    63     7     6   ar
    64     7     9   ar
    65    36    38   ar
    66   208   209    1
    67   200   198    1
    68     6     8   ar
    69   171   170    2
    70    15    16    1
    71   113   114    1
    72   198   199    1
    73   180   179    1
    74   180   183    1
    75     9    10   ar
    76   187   185   ar
    77   187   189   ar
    78   185   184   ar
    79    37    39   ar
    80   173   172    1
    81   173   176    1
    82   209   212    1
    83   209   210    1
    84     8    10   ar
    85   170   172   am
    86   170   169    1
    87   189   188   ar
    88    38    40   ar
    89    16    17    1
    90   178   176    1
    91   212   213    1
    92   184   183    1
    93   184   186   ar
    94   168   169    1
    95   176   177    1
    96   117   114    1
    97   117   118    1
    98   114   115    1
    99   120   119   ar
   100   115   116    2
   101    39    40   ar
   102   188   186   ar
   103   214   213   ar
   104   214   216   ar
   105   210   211    2
   106   210   220   am
   107    17    18    2
   108    17    19   am
   109   213   215   ar
   110    84    83    1
   111    85    83    1
   112   220   221    1
   113   119   118    1
   114   119   121   ar
   115   216   218   ar
   116   223   222    2
   117    83    80    1
   118   222   221    1
   119   215   217   ar
   120   221   224    1
   121   218   217   ar
   122   218   219    1
   123    67    64    1
   124    80    79    1
   125    80    81    1
   126   228   229    1
   127   122   123    1
   128   224   225    1
   129   224   226    1
   130    89    88    2
   131    54    53    1
   132    82    81    2
   133   225   227    1
   134    79    70   am
   135   129   127   am
   136    53    50    1
   137   231   230    2
   138   124   123    1
   139   124   125    2
   140    81    86   am
   141    71    70    2
   142   126   123    1
   143   126   127    1
   144    70    69    1
   145    64    65    1
   146    64    63    1
   147   230   229    1
   148   229   232    1
   149   127   128    2
   150    66    65    2
   151    65    68   am
   152    88    87    1
   153    63    57   am
   154    86    87    1
   155    68    69    1
   156    69    72    1
   157    57    58    2
   158    57    56    1
   159    52    51    2
   160    61    60    2
   161    56    55    1
   162    56    59    1
   163    51    50    1
   164    51    55   am
   165    50    49    1
   166   147   145   ar
   167   147   148   ar
   168    87    90    1
   169    92    93    1
   170   145   142   ar
   171   166   164   ar
   172   166   167   ar
   173    95    94    2
   174   232   233    1
   175   148   146   ar
   176    60    59    1
   177    60    62   am
   178   138   137    2
   179    72    73    1
   180   164   162   ar
   181   167   165   ar
   182   142   140   ar
   183   142   144   ar
   184    94    93    1
   185   139   140    1
   186   139   136    1
   187    93    96    1
   188   146   144   ar
   189    91    90    1
   190   137   136    1
   191   140   141   ar
   192   144   143   ar
   193   160   159    2
   194   233   234   ar
   195   233   235   ar
   196   159   158    1
   197    73    75   ar
   198    73    74   ar
   199    75    77   ar
   200   136   135    1
   201   234   236   ar
   202   141   143   ar
   203   162   163   ar
   204   162   161    1
   205   165   163   ar
   206   235   237   ar
   207    99   101   ar
   208    99    97   ar
   209    74    76   ar
   210    96    97    1
   211   101   102   ar
   212    97    98   ar
   213    77    78   ar
   214   149   150    1
   215   161   158    1
   216   158   157    1
   217   102   103    1
   218   102   100   ar
   219   157   151   am
   220    98   100   ar
   221   236   238   ar
   222   135   132   am
   223   152   151    2
   224   151   150    1
   225    76    78   ar
   226   237   238   ar
   227   150   153    1
   228   132   133    2
   229   132   131    1
   230   153   154    1
   231   130   131    1
   232   131   134    1
   233   154   156    1
   234   154   155    1
