@<TRIPOS>MOLECULE
tmp/4ranC00.pdb
 134 129 0 0 0
SMALL
GASTEIGER

@<TRIPOS>ATOM
      1  N        -29.2000    3.9870   24.3870 N.3    63  VAL63      -0.1245
      2  CA       -30.0380    3.8790   25.5770 C.3    63  VAL63       0.1561
      3  C        -31.1620    2.8640   25.3790 C.2    63  VAL63       0.2260
      4  O        -32.1990    3.1720   24.7920 O.2    63  VAL63      -0.2867
      5  CB       -30.6340    5.2410   25.9840 C.3    63  VAL63       0.0252
      6  CG1      -31.3670    5.1240   27.3140 C.3    63  VAL63       0.0019
      7  CG2      -29.5370    6.2880   26.0710 C.3    63  VAL63       0.0019
      8  N        -31.0800    2.6430   32.2930 N.3    98  LEU98      -0.1245
      9  CA       -31.8530    3.3720   31.2990 C.3    98  LEU98       0.1561
     10  C        -31.6030    4.8700   31.4320 C.2    98  LEU98       0.2260
     11  O        -30.5570    5.2930   31.9290 O.2    98  LEU98      -0.2867
     12  CB       -33.3340    3.0580   31.4430 C.3    98  LEU98       0.0270
     13  CG       -34.2870    3.6530   30.4090 C.3    98  LEU98       0.0019
     14  CD1      -35.3820    2.6440   30.0660 C.3    98  LEU98       0.0001
     15  CD2      -34.9020    4.9440   30.9290 C.3    98  LEU98       0.0001
     16  N        -30.9080    8.4100   22.1230 N.3   118  GLU118     -0.1231
     17  CA       -32.1230    8.1610   22.8880 C.3   118  GLU118      0.1699
     18  C        -33.3290    8.1990   21.9620 C.2   118  GLU118      0.2592
     19  O        -33.2940    8.8450   20.9190 O.2   118  GLU118     -0.2718
     20  CB       -32.2680    9.2050   24.0050 C.3   118  GLU118      0.0402
     21  CG       -33.5560    9.1250   24.8340 C.3   118  GLU118      0.1161
     22  CD       -33.6010    7.9400   25.7880 C.2   118  GLU118      0.3649
     23  OE1      -33.5010    6.7800   25.3340 O.co2 118  GLU118     -0.2457
     24  OE2      -33.7520    8.1710   27.0040 O.co2 118  GLU118     -0.2457
     25  N        -34.3920    7.4960   22.3370 N.am  119  ASP119     -0.1960
     26  CA       -35.6210    7.5150   21.5570 C.3   119  ASP119      0.1840
     27  C        -36.4160    8.8090   21.7570 C.2   119  ASP119      0.2622
     28  O        -36.8140    9.4530   20.7860 O.2   119  ASP119     -0.2715
     29  CB       -36.4850    6.2860   21.8730 C.3   119  ASP119      0.1450
     30  CG       -36.7620    6.1240   23.3600 C.2   119  ASP119      0.3671
     31  OD1      -36.1230    6.8270   24.1700 O.co2 119  ASP119     -0.2456
     32  OD2      -37.6130    5.2830   23.7200 O.co2 119  ASP119     -0.2456
     33  N        -36.6260    9.2000   23.0110 N.am  120  ILE120     -0.1963
     34  CA       -37.5170   10.3180   23.3030 C.3   120  ILE120      0.1727
     35  C        -37.1240   11.1240   24.5440 C.2   120  ILE120      0.2616
     36  O        -36.7160   10.5640   25.5610 O.2   120  ILE120     -0.2715
     37  CB       -38.9850    9.8340   23.4220 C.3   120  ILE120      0.0290
     38  CG1      -39.9340   11.0080   23.6710 C.3   120  ILE120      0.0022
     39  CG2      -39.1210    8.7820   24.5070 C.3   120  ILE120      0.0023
     40  CD1      -41.3940   10.6160   23.6970 C.3   120  ILE120      0.0001
     41  N        -37.2310   12.4470   24.4380 N.am  121  ILE121     -0.1963
     42  CA       -37.0490   13.3410   25.5790 C.3   121  ILE121      0.1727
     43  C        -38.3970   13.9110   26.0090 C.2   121  ILE121      0.2616
     44  O        -39.1020   14.5180   25.2040 O.2   121  ILE121     -0.2715
     45  CB       -36.1110   14.5160   25.2440 C.3   121  ILE121      0.0290
     46  CG1      -34.7180   14.0090   24.8620 C.3   121  ILE121      0.0022
     47  CG2      -36.0220   15.4740   26.4190 C.3   121  ILE121      0.0023
     48  CD1      -33.9920   13.3070   25.9850 C.3   121  ILE121      0.0001
     49  N        -38.7540   13.7100   27.2740 N.am  122  ASP122     -0.1957
     50  CA       -40.0170   14.2180   27.8000 C.3   122  ASP122      0.1840
     51  C        -39.7590   15.3300   28.8160 C.2   122  ASP122      0.2623
     52  O        -39.7060   16.5070   28.4580 O.2   122  ASP122     -0.2715
     53  CB       -40.8330   13.0860   28.4340 C.3   122  ASP122      0.1450
     54  CG       -42.3170   13.4040   28.5120 C.2   122  ASP122      0.3671
     55  OD1      -42.6940   14.5670   28.2680 O.co2 122  ASP122     -0.2456
     56  OD2      -43.1090   12.4910   28.8230 O.co2 122  ASP122     -0.2456
     57  N        -39.5920   14.9560   30.0810 N.am  123  THR123     -0.1937
     58  CA       -39.2770   15.9270   31.1240 C.3   123  THR123      0.2028
     59  C        -37.8450   16.4210   30.9590 C.2   123  THR123      0.2643
     60  O        -37.5150   17.5420   31.3450 O.2   123  THR123     -0.2714
     61  CB       -39.4330   15.3260   32.5340 C.3   123  THR123      0.1808
     62  OG1      -38.3880   14.3740   32.7660 O.3   123  THR123     -0.2208
     63  CG2      -40.7870   14.6370   32.6840 C.3   123  THR123      0.0379
     64  N        -36.9980   15.5750   30.3800 N.am  124  GLY124     -0.1939
     65  CA       -35.5990   15.9050   30.1830 C.3   124  GLY124      0.2014
     66  C        -34.7400   15.4110   31.3300 C.2   124  GLY124      0.2639
     67  O        -33.5190   15.5620   31.3130 O.2   124  GLY124     -0.2714
     68  N        -35.3850   14.8100   32.3250 N.am  125  LYS125     -0.1963
     69  CA       -34.7010   14.3760   33.5390 C.3   125  LYS125      0.1728
     70  C        -33.7270   13.2340   33.2770 C.2   125  LYS125      0.2617
     71  O        -32.5830   13.2760   33.7300 O.2   125  LYS125     -0.2715
     72  CB       -35.7120   13.9810   34.6090 C.3   125  LYS125      0.0311
     73  CG       -35.1420   13.5200   35.9450 C.3   125  LYS125      0.0038
     74  CD       -34.2960   14.5910   36.6320 C.3   125  LYS125      0.0206
     75  CE       -33.9280   14.0900   38.0440 C.3   125  LYS125      0.1093
     76  NZ       -32.9810   15.0760   38.6710 N.3   125  LYS125     -0.1314
     77  N        -34.1900   12.2180   32.5510 N.am  126  THR126     -0.1937
     78  CA       -33.3730   11.0520   32.2250 C.3   126  THR126      0.2028
     79  C        -32.0560   11.4510   31.5720 C.2   126  THR126      0.2642
     80  O        -31.0020   10.8890   31.8720 O.2   126  THR126     -0.2714
     81  CB       -34.1150   10.0920   31.2730 C.3   126  THR126      0.1808
     82  OG1      -35.3550    9.6880   31.8640 O.3   126  THR126     -0.2208
     83  CG2      -33.2760    8.8580   30.9890 C.3   126  THR126      0.0379
     84  N        -32.1180   12.4370   30.6880 N.am  127  MET127     -0.1976
     85  CA       -30.9460   12.8290   29.9230 C.3   127  MET127      0.1605
     86  C        -30.0080   13.7460   30.7090 C.2   127  MET127      0.2287
     87  O        -28.7880   13.6030   30.6300 O.2   127  MET127     -0.2864
     88  CB       -31.3630   13.4740   28.6000 C.3   127  MET127      0.0413
     89  CG       -30.2570   13.4920   27.5700 C.3   127  MET127      0.0598
     90  SD       -29.4680   11.8770   27.3950 S.3   127  MET127     -0.1393
     91  CE       -30.8410   10.8670   26.8480 C.3   127  MET127      0.0692
     92  N        -40.5330   16.0250   23.0640 N.3   150  LYS150     -0.1245
     93  CA       -41.8990   16.4520   23.3370 C.3   150  LYS150      0.1561
     94  C        -41.9850   17.9090   23.7600 C.2   150  LYS150      0.2260
     95  O        -41.1510   18.3950   24.5260 O.2   150  LYS150     -0.2867
     96  CB       -42.5300   15.5850   24.4260 C.3   150  LYS150      0.0271
     97  CG       -43.2810   14.3760   23.9110 C.3   150  LYS150      0.0035
     98  CD       -44.0580   13.7110   25.0310 C.3   150  LYS150      0.0206
     99  CE       -44.6020   12.3670   24.5930 C.3   150  LYS150      0.1093
    100  NZ       -45.3870   11.7120   25.6760 N.3   150  LYS150     -0.1314
    101  N        -49.0370   10.4380   23.6520 N.3   171  PHE171     -0.1227
    102  CA       -48.2120    9.2570   23.8740 C.3   171  PHE171      0.1736
    103  C        -48.0880    8.4310   22.5950 C.2   171  PHE171      0.2595
    104  O        -49.0650    7.8550   22.1170 O.2   171  PHE171     -0.2718
    105  CB       -48.7700    8.4030   25.0140 C.3   171  PHE171      0.0547
    106  CG       -47.8020    7.3780   25.5310 C.ar  171  PHE171     -0.0202
    107  CD1      -46.9980    7.6550   26.6250 C.ar  171  PHE171     -0.0042
    108  CD2      -47.6890    6.1400   24.9180 C.ar  171  PHE171     -0.0042
    109  CE1      -46.1030    6.7130   27.1010 C.ar  171  PHE171     -0.0003
    110  CE2      -46.7960    5.1970   25.3880 C.ar  171  PHE171     -0.0003
    111  CZ       -46.0030    5.4820   26.4810 C.ar  171  PHE171     -0.0000
    112  N        -46.8800    8.3770   22.0440 N.am  172  VAL172     -0.1980
    113  CA       -46.6430    7.6530   20.8030 C.3   172  VAL172      0.1595
    114  C        -45.9440    6.3180   21.0400 C.2   172  VAL172      0.2287
    115  O        -45.3300    6.1000   22.0850 O.2   172  VAL172     -0.2864
    116  CB       -45.8170    8.4900   19.8090 C.3   172  VAL172      0.0276
    117  CG1      -46.5960    9.7270   19.3740 C.3   172  VAL172      0.0022
    118  CG2      -44.4830    8.8800   20.4260 C.3   172  VAL172      0.0022
    119  N        -40.2330    2.2560   20.2770 N.3   177  LEU177     -0.1231
    120  CA       -40.8910    2.8830   21.4240 C.3   177  LEU177      0.1693
    121  C        -42.0770    2.0320   21.8710 C.2   177  LEU177      0.2592
    122  O        -42.9040    1.6260   21.0520 O.2   177  LEU177     -0.2718
    123  CB       -41.3380    4.3140   21.1130 C.3   177  LEU177      0.0284
    124  CG       -40.2520    5.3970   21.0910 C.3   177  LEU177      0.0019
    125  CD1      -39.3760    5.2980   19.8440 C.3   177  LEU177      0.0001
    126  CD2      -40.8640    6.7820   21.2100 C.3   177  LEU177      0.0001
    127  N        -42.1630    1.7680   23.1710 N.am  178  ASP178     -0.1974
    128  CA       -43.1320    0.8010   23.6740 C.3   178  ASP178      0.1709
    129  C        -44.2610    1.3930   24.5030 C.2   178  ASP178      0.2293
    130  O        -44.1680    2.5070   25.0210 O.2   178  ASP178     -0.2864
    131  CB       -42.4330   -0.2630   24.5200 C.3   178  ASP178      0.1436
    132  CG       -42.1350    0.2180   25.9290 C.2   178  ASP178      0.3671
    133  OD1      -41.5170    1.2930   26.0760 O.co2 178  ASP178     -0.2456
    134  OD2      -42.5300   -0.4750   26.8900 O.co2 178  ASP178     -0.2456
@<TRIPOS>BOND
     1   117   116    1
     2   116   118    1
     3   116   113    1
     4   125   124    1
     5   119   120    1
     6    28    27    2
     7   113   114    1
     8   113   112    1
     9    19    18    2
    10   114   115    2
    11   122   121    2
    12   124   123    1
    13   124   126    1
    14   123   120    1
    15   120   121    1
    16    26    27    1
    17    26    29    1
    18    26    25    1
    19    27    33   am
    20   121   127   am
    21    29    30    1
    22    18    25   am
    23    18    17    1
    24   112   103   am
    25   104   103    2
    26    16    17    1
    27   103   102    1
    28    17    20    1
    29    33    34    1
    30    92    93    1
    31   127   128    1
    32    34    37    1
    33    34    35    1
    34    93    94    1
    35    93    96    1
    36    30    32   ar
    37    30    31   ar
    38    37    38    1
    39    37    39    1
    40   101   102    1
    41    38    40    1
    42   128   129    1
    43   128   131    1
    44    94    95    2
    45   102   105    1
    46    97    96    1
    47    97    98    1
    48    20    21    1
    49     1     2    1
    50    41    35   am
    51    41    42    1
    52   129   130    2
    53   131   132    1
    54    35    36    2
    55    99    98    1
    56    99   100    1
    57     4     3    2
    58    21    22    1
    59    46    45    1
    60    46    48    1
    61   108   110   ar
    62   108   106   ar
    63   105   106    1
    64    44    43    2
    65    45    42    1
    66    45    47    1
    67    23    22   ar
    68     3     2    1
    69   110   111   ar
    70   106   107   ar
    71     2     5    1
    72    42    43    1
    73    22    24   ar
    74   132   133   ar
    75   132   134   ar
    76     5     7    1
    77     5     6    1
    78    43    49   am
    79   111   109   ar
    80   107   109   ar
    81    91    90    1
    82    49    50    1
    83    90    89    1
    84    89    88    1
    85    50    53    1
    86    50    51    1
    87    55    54   ar
    88    53    54    1
    89    52    51    2
    90    54    56   ar
    91    88    85    1
    92    51    57   am
    93    85    84    1
    94    85    86    1
    95    14    13    1
    96    57    58    1
    97    65    64    1
    98    65    66    1
    99    64    59   am
   100    13    15    1
   101    13    12    1
   102    87    86    2
   103    84    79   am
   104    59    58    1
   105    59    60    2
   106    83    81    1
   107    58    61    1
   108    81    82    1
   109    81    78    1
   110     9    10    1
   111     9    12    1
   112     9     8    1
   113    67    66    2
   114    66    68   am
   115    10    11    2
   116    79    80    2
   117    79    78    1
   118    78    77    1
   119    68    69    1
   120    61    63    1
   121    61    62    1
   122    77    70   am
   123    70    69    1
   124    70    71    2
   125    69    72    1
   126    72    73    1
   127    73    74    1
   128    74    75    1
   129    75    76    1
