@<TRIPOS>MOLECULE
tmp/4raoB00.pdb
 167 161 0 0 0
SMALL
GASTEIGER

@<TRIPOS>ATOM
      1  N        -14.6290   -6.0900  -16.8160 N.3    97  ARG97      -0.1231
      2  CA       -13.7020   -7.1390  -17.1740 C.3    97  ARG97       0.1694
      3  C        -13.8410   -7.4490  -18.6510 C.2    97  ARG97       0.2592
      4  O        -14.9470   -7.4000  -19.1990 O.2    97  ARG97      -0.2718
      5  CB       -13.9720   -8.3750  -16.3340 C.3    97  ARG97       0.0321
      6  CG       -12.9230   -9.4400  -16.4710 C.3    97  ARG97       0.0489
      7  CD       -13.2210  -10.6070  -15.5730 C.3    97  ARG97       0.2205
      8  NE       -12.3670  -11.7340  -15.9110 N.pl3  97  ARG97      -0.0865
      9  CZ       -12.5420  -12.9630  -15.4460 C.cat  97  ARG97       0.5346
     10  NH1      -13.5420  -13.2200  -14.6150 N.pl3  97  ARG97       0.1354
     11  NH2      -11.7160  -13.9320  -15.8120 N.pl3  97  ARG97       0.1354
     12  N        -12.7230   -7.7490  -19.2900 N.am   98  LEU98      -0.1966
     13  CA       -12.7460   -8.1140  -20.6970 C.3    98  LEU98       0.1728
     14  C        -12.4690   -9.6000  -20.8290 C.2    98  LEU98       0.2616
     15  O        -11.4010  -10.0780  -20.4350 O.2    98  LEU98      -0.2715
     16  CB       -11.7190   -7.3000  -21.4750 C.3    98  LEU98       0.0311
     17  CG       -12.1710   -5.9580  -22.0550 C.3    98  LEU98       0.0022
     18  CD1      -13.0610   -5.1780  -21.1040 C.3    98  LEU98       0.0001
     19  CD2      -10.9530   -5.1480  -22.4020 C.3    98  LEU98       0.0001
     20  N        -13.4430  -10.3250  -21.3680 N.am   99  LYS99      -0.1977
     21  CA       -13.3590  -11.7780  -21.4720 C.3    99  LYS99       0.1596
     22  C        -13.8560  -12.2660  -22.8250 C.2    99  LYS99       0.2287
     23  O        -13.6470  -13.4200  -23.1890 O.2    99  LYS99      -0.2864
     24  CB       -14.1510  -12.4330  -20.3470 C.3    99  LYS99       0.0298
     25  CG       -13.8630  -13.9520  -20.3230 C.3    99  LYS99       0.0038
     26  CD       -14.6030  -14.4930  -19.1000 C.3    99  LYS99       0.0206
     27  CE       -14.0800  -15.8680  -18.7860 C.3    99  LYS99       0.1093
     28  NZ       -14.7580  -16.4560  -17.5980 N.3    99  LYS99      -0.1314
     29  N         -5.6740    0.5190  -14.9970 N.3   116  GLU116     -0.1231
     30  CA        -5.2080   -0.7300  -15.5920 C.3   116  GLU116      0.1699
     31  C         -3.9070   -1.2280  -14.9640 C.2   116  GLU116      0.2592
     32  O         -3.0840   -0.4390  -14.5100 O.2   116  GLU116     -0.2718
     33  CB        -5.0220   -0.5390  -17.1060 C.3   116  GLU116      0.0402
     34  CG        -4.5360   -1.7670  -17.8640 C.3   116  GLU116      0.1161
     35  CD        -5.5710   -2.8700  -17.9050 C.2   116  GLU116      0.3649
     36  OE1       -5.8350   -3.4780  -16.8480 O.co2 116  GLU116     -0.2457
     37  OE2       -6.1300   -3.1220  -18.9920 O.co2 116  GLU116     -0.2457
     38  N         -3.7180   -2.5420  -14.9410 N.am  117  ASP117     -0.1960
     39  CA        -2.5130   -3.1230  -14.3620 C.3   117  ASP117      0.1840
     40  C         -1.3110   -2.9810  -15.2970 C.2   117  ASP117      0.2622
     41  O         -0.2210   -2.5780  -14.8690 O.2   117  ASP117     -0.2715
     42  CB        -2.7360   -4.5880  -13.9430 C.3   117  ASP117      0.1450
     43  CG        -3.2350   -5.4740  -15.0870 C.2   117  ASP117      0.3671
     44  OD1       -3.6500   -4.9440  -16.1400 O.co2 117  ASP117     -0.2456
     45  OD2       -3.2170   -6.7120  -14.9170 O.co2 117  ASP117     -0.2456
     46  N         -1.5080   -3.2900  -16.5740 N.am  118  ILE118     -0.1963
     47  CA        -0.3910   -3.3110  -17.5080 C.3   118  ILE118      0.1727
     48  C         -0.8150   -3.0750  -18.9450 C.2   118  ILE118      0.2616
     49  O         -1.8600   -3.5610  -19.3870 O.2   118  ILE118     -0.2715
     50  CB         0.4140   -4.6430  -17.3840 C.3   118  ILE118      0.0290
     51  CG1        1.6540   -4.6240  -18.2850 C.3   118  ILE118      0.0022
     52  CG2       -0.4660   -5.8490  -17.7080 C.3   118  ILE118      0.0023
     53  CD1        2.6180   -5.7740  -18.0080 C.3   118  ILE118      0.0001
     54  N         -0.0080   -2.2880  -19.6550 N.am  119  ILE119     -0.1963
     55  CA        -0.1770   -2.0570  -21.0830 C.3   119  ILE119      0.1727
     56  C          0.9360   -2.7930  -21.8160 C.2   119  ILE119      0.2616
     57  O          2.1120   -2.5500  -21.5490 O.2   119  ILE119     -0.2715
     58  CB        -0.0570   -0.5660  -21.4320 C.3   119  ILE119      0.0290
     59  CG1       -1.0930    0.2460  -20.6550 C.3   119  ILE119      0.0022
     60  CG2       -0.2230   -0.3630  -22.9440 C.3   119  ILE119      0.0023
     61  CD1       -2.5200   -0.1280  -21.0080 C.3   119  ILE119      0.0001
     62  N          0.5690   -3.6930  -22.7200 N.am  120  ASP120     -0.1957
     63  CA         1.5450   -4.4440  -23.4900 C.3   120  ASP120      0.1840
     64  C          1.2760   -4.1770  -24.9690 C.2   120  ASP120      0.2623
     65  O          1.9000   -3.2900  -25.5610 O.2   120  ASP120     -0.2715
     66  CB         1.4500   -5.9310  -23.1400 C.3   120  ASP120      0.1450
     67  CG         2.3810   -6.7970  -23.9740 C.2   120  ASP120      0.3671
     68  OD1        3.3780   -6.2660  -24.5050 O.co2 120  ASP120     -0.2456
     69  OD2        2.1060   -8.0110  -24.0910 O.co2 120  ASP120     -0.2456
     70  N          0.3320   -4.9060  -25.5670 N.am  121  THR121     -0.1937
     71  CA        -0.0560   -4.5970  -26.9520 C.3   121  THR121      0.2028
     72  C         -0.8840   -3.3160  -27.0410 C.2   121  THR121      0.2643
     73  O         -1.0220   -2.7390  -28.1140 O.2   121  THR121     -0.2714
     74  CB        -0.8720   -5.7220  -27.6270 C.3   121  THR121      0.1808
     75  OG1       -2.1310   -5.8840  -26.9550 O.3   121  THR121     -0.2208
     76  CG2       -0.0970   -7.0250  -27.6270 C.3   121  THR121      0.0379
     77  N         -1.4600   -2.8880  -25.9240 N.am  122  GLY122     -0.1939
     78  CA        -2.3320   -1.7250  -25.9300 C.3   122  GLY122      0.2014
     79  C         -3.7600   -2.0570  -26.3440 C.2   122  GLY122      0.2639
     80  O         -4.6070   -1.1730  -26.4130 O.2   122  GLY122     -0.2714
     81  N         -4.0410   -3.3380  -26.5900 N.am  123  LYS123     -0.1963
     82  CA        -5.3520   -3.7390  -27.0930 C.3   123  LYS123      0.1728
     83  C         -6.5120   -3.6470  -26.0870 C.2   123  LYS123      0.2617
     84  O         -7.5940   -3.1790  -26.4510 O.2   123  LYS123     -0.2715
     85  CB        -5.2790   -5.0830  -27.8370 C.3   123  LYS123      0.0311
     86  CG        -4.4930   -4.9430  -29.1500 C.3   123  LYS123      0.0038
     87  CD        -4.1880   -6.2600  -29.8550 C.3   123  LYS123      0.0206
     88  CE        -3.3360   -6.0040  -31.1010 C.3   123  LYS123      0.1093
     89  NZ        -2.7640   -7.2480  -31.6840 N.3   123  LYS123     -0.1314
     90  N         -6.3210   -4.0660  -24.8360 N.am  124  THR124     -0.1937
     91  CA        -7.4240   -3.8540  -23.8980 C.3   124  THR124      0.2028
     92  C         -7.6110   -2.3710  -23.6270 C.2   124  THR124      0.2642
     93  O         -8.7490   -1.9500  -23.3940 O.2   124  THR124     -0.2714
     94  CB        -7.3810   -4.6580  -22.5530 C.3   124  THR124      0.1808
     95  OG1       -7.0720   -3.7810  -21.4620 O.3   124  THR124     -0.2208
     96  CG2       -6.4120   -5.8090  -22.5970 C.3   124  THR124      0.0379
     97  N         -6.5500   -1.5660  -23.7260 N.am  125  MET125     -0.1976
     98  CA        -6.7010   -0.1200  -23.5230 C.3   125  MET125      0.1605
     99  C         -7.4970    0.5350  -24.6580 C.2   125  MET125      0.2287
    100  O         -8.3860    1.3440  -24.3930 O.2   125  MET125     -0.2864
    101  CB        -5.3520    0.5960  -23.2970 C.3   125  MET125      0.0413
    102  CG        -5.4890    2.0990  -23.0480 C.3   125  MET125      0.0598
    103  SD        -3.9120    2.9980  -23.0640 S.3   125  MET125     -0.1393
    104  CE        -3.2360    2.4370  -24.6310 C.3   125  MET125      0.0692
    105  N          4.8200   -1.8300  -20.7650 N.3   148  LYS148     -0.1245
    106  CA         5.9790   -2.5580  -21.3050 C.3   148  LYS148      0.1561
    107  C          6.5910   -1.8150  -22.4870 C.2   148  LYS148      0.2260
    108  O          5.8680   -1.2620  -23.3080 O.2   148  LYS148     -0.2867
    109  CB         5.5710   -3.9570  -21.7720 C.3   148  LYS148      0.0271
    110  CG         5.3790   -4.9610  -20.6540 C.3   148  LYS148      0.0035
    111  CD         5.4050   -6.3960  -21.2130 C.3   148  LYS148      0.0206
    112  CE         5.4490   -7.3910  -20.0710 C.3   148  LYS148      0.1093
    113  NZ         5.3770   -8.7870  -20.5520 N.3   148  LYS148     -0.1314
    114  N          8.1070  -11.1490  -18.6190 N.3   167  PHE167     -0.1227
    115  CA         6.8400  -11.5360  -18.0010 C.3   167  PHE167      0.1736
    116  C          6.8880  -11.3760  -16.4850 C.2   167  PHE167      0.2595
    117  O          7.6860  -12.0140  -15.8080 O.2   167  PHE167     -0.2718
    118  CB         6.4360  -12.9610  -18.3820 C.3   167  PHE167      0.0547
    119  CG         4.9730  -13.2430  -18.1700 C.ar  167  PHE167     -0.0202
    120  CD1        4.5020  -13.6480  -16.9350 C.ar  167  PHE167     -0.0042
    121  CD2        4.0700  -13.1060  -19.2220 C.ar  167  PHE167     -0.0042
    122  CE1        3.1490  -13.9060  -16.7390 C.ar  167  PHE167     -0.0003
    123  CE2        2.7220  -13.3620  -19.0370 C.ar  167  PHE167     -0.0003
    124  CZ         2.2610  -13.7660  -17.7910 C.ar  167  PHE167     -0.0000
    125  N          6.0320  -10.5180  -15.9510 N.am  168  VAL168     -0.1980
    126  CA         6.0520  -10.2400  -14.5240 C.3   168  VAL168      0.1595
    127  C          4.7290  -10.6850  -13.9050 C.2   168  VAL168      0.2287
    128  O          3.7140  -10.7790  -14.5900 O.2   168  VAL168     -0.2864
    129  CB         6.3010   -8.7360  -14.2410 C.3   168  VAL168      0.0276
    130  CG1        7.6920   -8.3210  -14.7060 C.3   168  VAL168      0.0022
    131  CG2        5.2470   -7.8910  -14.9250 C.3   168  VAL168      0.0022
    132  N         -1.2790   -9.1930  -10.7150 N.3   173  LEU173     -0.1231
    133  CA        -0.9620   -9.6840  -12.0600 C.3   173  LEU173      0.1693
    134  C         -0.7060  -11.1850  -11.9860 C.2   173  LEU173      0.2592
    135  O          0.0180  -11.6510  -11.0930 O.2   173  LEU173     -0.2718
    136  CB         0.2790   -8.9890  -12.6290 C.3   173  LEU173      0.0284
    137  CG         0.1200   -7.5560  -13.1340 C.3   173  LEU173      0.0019
    138  CD1        0.1610   -6.5600  -11.9860 C.3   173  LEU173      0.0001
    139  CD2        1.1760   -7.2200  -14.1850 C.3   173  LEU173      0.0001
    140  N         -1.2560  -11.9340  -12.9340 N.am  174  ASP174     -0.1974
    141  CA        -1.2390  -13.3890  -12.8290 C.3   174  ASP174      0.1709
    142  C         -0.4710  -14.1120  -13.9330 C.2   174  ASP174      0.2293
    143  O         -0.1620  -13.5540  -14.9900 O.2   174  ASP174     -0.2864
    144  CB        -2.6670  -13.9410  -12.8240 C.3   174  ASP174      0.1436
    145  CG        -3.3080  -13.9030  -14.1980 C.2   174  ASP174      0.3671
    146  OD1       -3.2930  -12.8290  -14.8260 O.co2 174  ASP174     -0.2456
    147  OD2       -3.8140  -14.9490  -14.6550 O.co2 174  ASP174     -0.2456
    148  N         -3.8150  -17.4130  -13.5450 N.3   177  GLU177     -0.1245
    149  CA        -4.5630  -17.1740  -12.2970 C.3   177  GLU177      0.1567
    150  C         -3.7280  -17.2510  -11.0240 C.2   177  GLU177      0.2260
    151  O         -4.1810  -16.8320   -9.9620 O.2   177  GLU177     -0.2867
    152  CB        -5.8220  -18.0420  -12.1840 C.3   177  GLU177      0.0388
    153  CG        -6.8740  -17.7500  -13.2460 C.3   177  GLU177      0.1160
    154  CD        -7.3020  -16.2890  -13.2580 C.2   177  GLU177      0.3649
    155  OE1       -7.2880  -15.6520  -12.1850 O.co2 177  GLU177     -0.2457
    156  OE2       -7.6550  -15.7770  -14.3390 O.co2 177  GLU177     -0.2457
    157  N         -1.4900  -13.8860   -8.0510 N.3   180  ARG180     -0.1245
    158  CA        -2.2120  -12.6580   -7.7270 C.3   180  ARG180      0.1563
    159  C         -2.0480  -12.3640   -6.2510 C.2   180  ARG180      0.2260
    160  O         -2.1040  -11.2010   -5.8330 O.2   180  ARG180     -0.2867
    161  CB        -3.6910  -12.7370   -8.0970 C.3   180  ARG180      0.0307
    162  CG        -3.9610  -12.8980   -9.6150 C.3   180  ARG180      0.0489
    163  CD        -5.3990  -12.5210   -9.9560 C.3   180  ARG180      0.2205
    164  NE        -5.8800  -13.0280  -11.2450 N.pl3 180  ARG180     -0.0865
    165  CZ        -5.7140  -12.3970  -12.4080 C.cat 180  ARG180      0.5346
    166  NH1       -5.0700  -11.2420  -12.4450 N.pl3 180  ARG180      0.1354
    167  NH2       -6.1910  -12.9230  -13.5320 N.pl3 180  ARG180      0.1354
@<TRIPOS>BOND
     1    89    88    1
     2    88    87    1
     3    87    86    1
     4    86    85    1
     5    73    72    2
     6    85    82    1
     7    74    76    1
     8    74    75    1
     9    74    71    1
    10    82    81    1
    11    82    83    1
    12    72    71    1
    13    72    77   am
    14    71    70    1
    15    81    79   am
    16    84    83    2
    17    80    79    2
    18    79    78    1
    19    83    90   am
    20    78    77    1
    21    70    64   am
    22    65    64    2
    23    64    63    1
    24    90    91    1
    25    99   100    2
    26    99    98    1
    27   104   103    1
    28    68    67   ar
    29    69    67   ar
    30    67    66    1
    31    91    92    1
    32    91    94    1
    33    97    92   am
    34    97    98    1
    35    92    93    2
    36    98   101    1
    37    63    66    1
    38    63    62    1
    39   108   107    2
    40   101   102    1
    41    23    22    2
    42   103   102    1
    43    60    58    1
    44    22    21    1
    45    62    56   am
    46    96    94    1
    47    94    95    1
    48   107   106    1
    49    19    17    1
    50    17    16    1
    51    17    18    1
    52    56    57    2
    53    56    55    1
    54   109   106    1
    55   109   110    1
    56    16    13    1
    57    21    20    1
    58    21    24    1
    59    58    55    1
    60    58    59    1
    61    20    14   am
    62   106   105    1
    63   111   110    1
    64   111   112    1
    65    55    54    1
    66    61    59    1
    67    14    13    1
    68    14    15    2
    69    13    12    1
    70   113   112    1
    71    24    25    1
    72    25    26    1
    73    54    48   am
    74    49    48    2
    75    12     3   am
    76   121   123   ar
    77   121   119   ar
    78     4     3    2
    79    26    27    1
    80   123   124   ar
    81    37    35   ar
    82    48    47    1
    83    27    28    1
    84     3     2    1
    85   114   115    1
    86   118   119    1
    87   118   115    1
    88    51    53    1
    89    51    50    1
    90   119   120   ar
    91   115   116    1
    92    35    34    1
    93    35    36   ar
    94    34    33    1
    95   124   122   ar
    96    52    50    1
    97    47    50    1
    98    47    46    1
    99     2     1    1
   100     2     5    1
   101    33    30    1
   102   120   122   ar
   103    46    40   am
   104   116   125   am
   105   116   117    2
   106     6     5    1
   107     6     7    1
   108    44    43   ar
   109   125   126    1
   110     8     7    1
   111     8     9    2
   112    11     9    1
   113    30    29    1
   114    30    31    1
   115     9    10    1
   116    40    41    2
   117    40    39    1
   118    43    45   ar
   119    43    42    1
   120   143   142    2
   121    31    38   am
   122    31    32    2
   123    38    39    1
   124   131   129    1
   125   146   145   ar
   126   130   129    1
   127   147   145   ar
   128   128   127    2
   129   126   129    1
   130   126   127    1
   131    39    42    1
   132   156   154   ar
   133   145   144    1
   134   139   137    1
   135   142   141    1
   136   148   149    1
   137   167   165    1
   138   154   153    1
   139   154   155   ar
   140   153   152    1
   141   137   136    1
   142   137   138    1
   143   140   141    1
   144   140   134   am
   145   141   144    1
   146   136   133    1
   147   166   165    1
   148   165   164    2
   149   149   152    1
   150   149   150    1
   151   133   134    1
   152   133   132    1
   153   134   135    2
   154   164   163    1
   155   150   151    2
   156   163   162    1
   157   162   161    1
   158   161   158    1
   159   157   158    1
   160   158   159    1
   161   159   160    2
