@<TRIPOS>MOLECULE
tmp/4raqC00.pdb
 178 171 0 0 0
SMALL
GASTEIGER

@<TRIPOS>ATOM
      1  N         48.3960   -2.2940   14.0890 N.3    62  VAL62      -0.1231
      2  CA        48.3610   -3.4040   15.0210 C.3    62  VAL62       0.1692
      3  C         47.9670   -4.6920   14.2930 C.2    62  VAL62       0.2592
      4  O         46.7870   -4.9510   14.0480 O.2    62  VAL62      -0.2718
      5  CB        47.4550   -3.1460   16.2650 C.3    62  VAL62       0.0266
      6  CG1       47.7100   -4.1930   17.3250 C.3    62  VAL62       0.0020
      7  CG2       47.7270   -1.7830   16.8440 C.3    62  VAL62       0.0020
      8  N         48.9830   -5.4760   13.9420 N.am   63  LEU63      -0.1966
      9  CA        48.8150   -6.8200   13.4120 C.3    63  LEU63       0.1728
     10  C         48.0970   -7.7140   14.4130 C.2    63  LEU63       0.2616
     11  O         48.2540   -7.5400   15.6270 O.2    63  LEU63      -0.2715
     12  CB        50.1860   -7.4110   13.1020 C.3    63  LEU63       0.0311
     13  CG        50.8840   -7.0470   11.7880 C.3    63  LEU63       0.0022
     14  CD1       49.9890   -6.3060   10.7600 C.3    63  LEU63       0.0001
     15  CD2       52.0730   -6.2550   12.1240 C.3    63  LEU63       0.0001
     16  N         47.3210   -8.6830   13.9310 N.am   64  LYS64      -0.1963
     17  CA        47.1150   -8.9340   12.5080 C.3    64  LYS64       0.1728
     18  C         45.8240   -8.2830   12.0140 C.2    64  LYS64       0.2616
     19  O         45.7500   -7.7930   10.8950 O.2    64  LYS64      -0.2715
     20  CB        47.0640  -10.4470   12.2590 C.3    64  LYS64       0.0311
     21  CG        48.3890  -11.1250   12.5040 C.3    64  LYS64       0.0038
     22  CD        48.2510  -12.6010   12.8070 C.3    64  LYS64       0.0206
     23  CE        47.9000  -13.3950   11.5850 C.3    64  LYS64       0.1093
     24  NZ        48.2510  -14.8230   11.7800 N.3    64  LYS64      -0.1314
     25  N         44.8090   -8.2810   12.8650 N.am   65  GLY65      -0.1955
     26  CA        43.4950   -7.7830   12.5090 C.3    65  GLY65       0.1869
     27  C         43.4220   -6.3890   11.9230 C.2    65  GLY65       0.2309
     28  O         42.4960   -6.0900   11.1780 O.2    65  GLY65      -0.2863
     29  N         52.7650   -6.3160   16.6540 N.3    96  ARG96      -0.1231
     30  CA        51.9040   -7.4390   16.9390 C.3    96  ARG96       0.1694
     31  C         52.0280   -7.7920   18.4120 C.2    96  ARG96       0.2591
     32  O         53.1170   -7.7840   18.9730 O.2    96  ARG96      -0.2718
     33  CB        52.2970   -8.6200   16.0550 C.3    96  ARG96       0.0321
     34  CG        51.4270   -9.8380   16.2070 C.3    96  ARG96       0.0489
     35  CD        51.4470  -10.6130   14.9250 C.3    96  ARG96       0.2205
     36  NE        51.6500  -12.0380   15.1240 N.pl3  96  ARG96      -0.0865
     37  CZ        50.7040  -12.8650   15.5440 C.cat  96  ARG96       0.5346
     38  NH1       49.4990  -12.3930   15.8350 N.pl3  96  ARG96       0.1354
     39  NH2       50.9650  -14.1560   15.6800 N.pl3  96  ARG96       0.1354
     40  N         50.9010   -8.0920   19.0370 N.am   97  LEU97      -0.1980
     41  CA        50.8810   -8.4090   20.4530 C.3    97  LEU97       0.1596
     42  C         50.7670   -9.9070   20.7040 C.2    97  LEU97       0.2287
     43  O         49.6680  -10.4580   20.6970 O.2    97  LEU97      -0.2864
     44  CB        49.7270   -7.6670   21.1210 C.3    97  LEU97       0.0297
     45  CG        50.1370   -6.4220   21.9070 C.3    97  LEU97       0.0022
     46  CD1       51.4250   -5.8180   21.3670 C.3    97  LEU97       0.0001
     47  CD2       49.0180   -5.4150   21.8950 C.3    97  LEU97       0.0001
     48  N         43.9270    0.1990   14.8940 N.3   115  GLU115     -0.1231
     49  CA        43.5330   -1.0560   15.5090 C.3   115  GLU115      0.1699
     50  C         42.1840   -1.4980   14.9560 C.2   115  GLU115      0.2592
     51  O         41.3300   -0.6730   14.6170 O.2   115  GLU115     -0.2718
     52  CB        43.4390   -0.8610   17.0240 C.3   115  GLU115      0.0402
     53  CG        43.4980   -2.1380   17.8360 C.3   115  GLU115      0.1161
     54  CD        43.5780   -1.8590   19.3320 C.2   115  GLU115      0.3649
     55  OE1       43.4140   -2.8120   20.1290 O.co2 115  GLU115     -0.2457
     56  OE2       43.8000   -0.6830   19.7080 O.co2 115  GLU115     -0.2457
     57  N         41.9950   -2.8060   14.8730 N.am  116  ASP116     -0.1960
     58  CA        40.7720   -3.3870   14.3310 C.3   116  ASP116      0.1840
     59  C         39.5960   -3.1530   15.2570 C.2   116  ASP116      0.2622
     60  O         38.6170   -2.5180   14.8790 O.2   116  ASP116     -0.2715
     61  CB        40.9560   -4.8930   14.1030 C.3   116  ASP116      0.1450
     62  CG        41.8100   -5.5550   15.1850 C.2   116  ASP116      0.3671
     63  OD1       42.6990   -4.8750   15.7570 O.co2 116  ASP116     -0.2456
     64  OD2       41.6030   -6.7610   15.4540 O.co2 116  ASP116     -0.2456
     65  N         39.7160   -3.6490   16.4840 N.am  117  ILE117     -0.1963
     66  CA        38.6020   -3.6810   17.4140 C.3   117  ILE117      0.1727
     67  C         39.0460   -3.4330   18.8690 C.2   117  ILE117      0.2616
     68  O         40.0460   -3.9900   19.3330 O.2   117  ILE117     -0.2715
     69  CB        37.8340   -5.0280   17.2740 C.3   117  ILE117      0.0290
     70  CG1       36.5320   -5.0130   18.0640 C.3   117  ILE117      0.0022
     71  CG2       38.7030   -6.2150   17.6910 C.3   117  ILE117      0.0023
     72  CD1       35.6560   -6.1900   17.7280 C.3   117  ILE117      0.0001
     73  N         38.3100   -2.5640   19.5650 N.am  118  ILE118     -0.1963
     74  CA        38.5270   -2.2890   20.9830 C.3   118  ILE118      0.1727
     75  C         37.4090   -2.9610   21.7540 C.2   118  ILE118      0.2616
     76  O         36.2570   -2.5370   21.6780 O.2   118  ILE118     -0.2715
     77  CB        38.4300   -0.7780   21.3110 C.3   118  ILE118      0.0290
     78  CG1       39.4070    0.0450   20.4770 C.3   118  ILE118      0.0022
     79  CG2       38.6430   -0.5260   22.7970 C.3   118  ILE118      0.0023
     80  CD1       40.8430   -0.2370   20.7620 C.3   118  ILE118      0.0001
     81  N         37.7450   -4.0100   22.4900 N.am  119  ASP119     -0.1957
     82  CA        36.7550   -4.7470   23.2550 C.3   119  ASP119      0.1840
     83  C         36.9660   -4.4440   24.7520 C.2   119  ASP119      0.2623
     84  O         36.3660   -3.4990   25.2610 O.2   119  ASP119     -0.2715
     85  CB        36.8360   -6.2410   22.9110 C.3   119  ASP119      0.1450
     86  CG        35.9290   -7.0990   23.7770 C.2   119  ASP119      0.3671
     87  OD1       34.9580   -6.5670   24.3510 O.co2 119  ASP119     -0.2456
     88  OD2       36.2010   -8.3140   23.8840 O.co2 119  ASP119     -0.2456
     89  N         37.8210   -5.1980   25.4510 N.am  120  THR120     -0.1937
     90  CA        38.1220   -4.8530   26.8520 C.3   120  THR120      0.2028
     91  C         38.9270   -3.5720   26.9250 C.2   120  THR120      0.2643
     92  O         38.6930   -2.7320   27.7790 O.2   120  THR120     -0.2714
     93  CB        38.9400   -5.9190   27.6090 C.3   120  THR120      0.1808
     94  OG1       40.1910   -6.1230   26.9390 O.3   120  THR120     -0.2208
     95  CG2       38.1710   -7.2350   27.7580 C.3   120  THR120      0.0379
     96  N         39.8890   -3.4390   26.0270 N.am  121  GLY121     -0.1939
     97  CA        40.6790   -2.2310   25.9350 C.3   121  GLY121      0.2014
     98  C         42.1060   -2.5120   26.3500 C.2   121  GLY121      0.2639
     99  O         42.9850   -1.6570   26.2090 O.2   121  GLY121     -0.2714
    100  N         42.3310   -3.7180   26.8660 N.am  122  LYS122     -0.1963
    101  CA        43.6330   -4.0930   27.3910 C.3   122  LYS122      0.1728
    102  C         44.6870   -3.9820   26.3050 C.2   122  LYS122      0.2616
    103  O         45.8140   -3.5720   26.5680 O.2   122  LYS122     -0.2715
    104  CB        43.6030   -5.5110   27.9690 C.3   122  LYS122      0.0311
    105  CG        42.6390   -5.6720   29.1250 C.3   122  LYS122      0.0038
    106  CD        42.6310   -7.0980   29.6990 C.3   122  LYS122      0.0206
    107  CE        41.6700   -8.0130   28.9490 C.3   122  LYS122      0.1093
    108  NZ        40.8180   -8.8130   29.8790 N.3   122  LYS122     -0.1314
    109  N         44.3180   -4.3360   25.0800 N.am  123  THR123     -0.1951
    110  CA        45.2460   -4.2200   23.9710 C.3   123  THR123      0.1897
    111  C         45.6710   -2.7660   23.8030 C.2   123  THR123      0.2313
    112  O         46.8550   -2.4650   23.7200 O.2   123  THR123     -0.2863
    113  CB        44.6470   -4.7600   22.6580 C.3   123  THR123      0.1794
    114  OG1       44.3990   -6.1650   22.7870 O.3   123  THR123     -0.2208
    115  CG2       45.6120   -4.5560   21.5280 C.3   123  THR123      0.0378
    116  N         33.3960   -2.1630   20.5850 N.3   147  LYS147     -0.1245
    117  CA        32.2470   -2.8320   21.1830 C.3   147  LYS147      0.1561
    118  C         31.6530   -2.0340   22.3480 C.2   147  LYS147      0.2260
    119  O         32.3850   -1.4770   23.1610 O.2   147  LYS147     -0.2867
    120  CB        32.6390   -4.2180   21.6860 C.3   147  LYS147      0.0271
    121  CG        32.8930   -5.2500   20.6050 C.3   147  LYS147      0.0035
    122  CD        32.5610   -6.6290   21.1530 C.3   147  LYS147      0.0206
    123  CE        33.0800   -7.7380   20.2810 C.3   147  LYS147      0.1093
    124  NZ        32.2630   -8.9480   20.4580 N.3   147  LYS147     -0.1314
    125  N         29.9420  -11.4360   18.4260 N.3   167  PHE167     -0.1227
    126  CA        31.2090  -11.8210   17.8080 C.3   167  PHE167      0.1736
    127  C         31.1260  -11.6350   16.3000 C.2   167  PHE167      0.2595
    128  O         30.2950  -12.2320   15.6240 O.2   167  PHE167     -0.2718
    129  CB        31.5890  -13.2610   18.1430 C.3   167  PHE167      0.0547
    130  CG        33.0440  -13.5670   17.9190 C.ar  167  PHE167     -0.0202
    131  CD1       33.9690  -13.3600   18.9270 C.ar  167  PHE167     -0.0042
    132  CD2       33.4840  -14.0700   16.7050 C.ar  167  PHE167     -0.0042
    133  CE1       35.3040  -13.6430   18.7280 C.ar  167  PHE167     -0.0003
    134  CE2       34.8260  -14.3580   16.4970 C.ar  167  PHE167     -0.0003
    135  CZ        35.7350  -14.1400   17.5050 C.ar  167  PHE167     -0.0000
    136  N         31.9890  -10.7890   15.7760 N.am  168  VAL168     -0.1980
    137  CA        31.9670  -10.4940   14.3580 C.3   168  VAL168      0.1595
    138  C         33.2970  -10.8930   13.7510 C.2   168  VAL168      0.2287
    139  O         34.3020  -10.9660   14.4500 O.2   168  VAL168     -0.2864
    140  CB        31.7190   -9.0060   14.1030 C.3   168  VAL168      0.0276
    141  CG1       30.2940   -8.6170   14.4790 C.3   168  VAL168      0.0022
    142  CG2       32.7450   -8.1820   14.8390 C.3   168  VAL168      0.0022
    143  N         39.4380   -9.2570   10.6070 N.3   173  LEU173     -0.1231
    144  CA        39.0960   -9.7810   11.9340 C.3   173  LEU173      0.1693
    145  C         38.8290  -11.2650   11.8030 C.2   173  LEU173      0.2592
    146  O         38.2180  -11.7020   10.8230 O.2   173  LEU173     -0.2718
    147  CB        37.8570   -9.1090   12.5230 C.3   173  LEU173      0.0284
    148  CG        38.0290   -7.7080   13.0900 C.3   173  LEU173      0.0019
    149  CD1       38.0990   -6.6800   11.9760 C.3   173  LEU173      0.0001
    150  CD2       36.8950   -7.4120   14.0310 C.3   173  LEU173      0.0001
    151  N         39.2690  -12.0330   12.7970 N.am  174  ASP174     -0.1974
    152  CA        39.2620  -13.4800   12.6860 C.3   174  ASP174      0.1709
    153  C         38.5180  -14.2030   13.8010 C.2   174  ASP174      0.2293
    154  O         38.1860  -13.6410   14.8420 O.2   174  ASP174     -0.2864
    155  CB        40.6950  -13.9910   12.7020 C.3   174  ASP174      0.1436
    156  CG        41.2430  -14.1260   14.1120 C.2   174  ASP174      0.3671
    157  OD1       41.1210  -13.1550   14.8890 O.co2 174  ASP174     -0.2456
    158  OD2       41.7810  -15.2060   14.4500 O.co2 174  ASP174     -0.2456
    159  N         42.0530  -17.5010   13.3710 N.3   177  GLU177     -0.1245
    160  CA        42.7810  -17.2310   12.1240 C.3   177  GLU177      0.1567
    161  C         41.9450  -17.3750   10.8430 C.2   177  GLU177      0.2260
    162  O         42.4090  -17.0320    9.7670 O.2   177  GLU177     -0.2867
    163  CB        44.0760  -18.0480   12.0190 C.3   177  GLU177      0.0388
    164  CG        45.0860  -17.7630   13.1130 C.3   177  GLU177      0.1160
    165  CD        45.4520  -16.3050   13.2150 C.2   177  GLU177      0.3649
    166  OE1       45.5230  -15.6160   12.1750 O.co2 177  GLU177     -0.2457
    167  OE2       45.6700  -15.8460   14.3500 O.co2 177  GLU177     -0.2457
    168  N         39.7760  -13.9700    8.0370 N.3   180  ARG180     -0.1245
    169  CA        40.5460  -12.7700    7.7020 C.3   180  ARG180      0.1563
    170  C         40.4080  -12.4450    6.2170 C.2   180  ARG180      0.2260
    171  O         40.5200  -11.2850    5.8100 O.2   180  ARG180     -0.2867
    172  CB        42.0240  -12.8990    8.0740 C.3   180  ARG180      0.0307
    173  CG        42.2740  -13.0200    9.5700 C.3   180  ARG180      0.0489
    174  CD        43.6620  -12.5490    9.9390 C.3   180  ARG180      0.2205
    175  NE        44.0520  -13.0030   11.2630 N.pl3 180  ARG180     -0.0865
    176  CZ        43.7680  -12.3640   12.3950 C.cat 180  ARG180      0.5346
    177  NH1       43.0840  -11.2280   12.3730 N.pl3 180  ARG180      0.1354
    178  NH2       44.1720  -12.8620   13.5570 N.pl3 180  ARG180      0.1354
@<TRIPOS>BOND
     1   171   170    2
     2   170   169    1
     3   169   168    1
     4   169   172    1
     5   172   173    1
     6   173   174    1
     7   162   161    2
     8   174   175    1
     9   143   144    1
    10    14    13    1
    11   146   145    2
    12   161   160    1
    13    19    18    2
    14    28    27    2
    15   175   176    2
    16    23    24    1
    17    23    22    1
    18    13    15    1
    19    13    12    1
    20   145   144    1
    21   145   151   am
    22    27    26    1
    23   144   147    1
    24   149   148    1
    25    18    17    1
    26    18    25   am
    27   163   160    1
    28   163   164    1
    29   160   159    1
    30   166   165   ar
    31    20    21    1
    32    20    17    1
    33   177   176    1
    34   176   178    1
    35    21    22    1
    36    17    16    1
    37    26    25    1
    38   147   148    1
    39   152   155    1
    40   152   151    1
    41   152   153    1
    42   155   156    1
    43   148   150    1
    44    12     9    1
    45   164   165    1
    46   165   167   ar
    47     9     8    1
    48     9    10    1
    49   138   137    1
    50   138   139    2
    51   153   154    2
    52    16    10   am
    53     8     3   am
    54     4     3    2
    55     1     2    1
    56    61    58    1
    57    61    62    1
    58   140   137    1
    59   140   141    1
    60   140   142    1
    61   156   158   ar
    62   156   157   ar
    63     3     2    1
    64    58    57    1
    65    58    59    1
    66   137   136    1
    67    10    11    2
    68    51    50    2
    69    57    50   am
    70    60    59    2
    71    48    49    1
    72    35    36    1
    73    35    34    1
    74    50    49    1
    75     2     5    1
    76    36    37    2
    77    62    64   ar
    78    62    63   ar
    79    59    65   am
    80    49    52    1
    81    37    39    1
    82    37    38    1
    83   128   127    2
    84   136   127   am
    85    33    34    1
    86    33    30    1
    87     5     7    1
    88     5     6    1
    89   127   126    1
    90    65    66    1
    91   134   132   ar
    92   134   135   ar
    93    29    30    1
    94   132   130   ar
    95    30    31    1
    96    52    53    1
    97    69    66    1
    98    69    71    1
    99    69    70    1
   100    66    67    1
   101   135   133   ar
   102    72    70    1
   103   126   129    1
   104   126   125    1
   105    53    54    1
   106   130   129    1
   107   130   131   ar
   108    31    32    2
   109    31    40   am
   110   133   131   ar
   111    67    68    2
   112    67    73   am
   113    40    41    1
   114    54    56   ar
   115    54    55   ar
   116    73    74    1
   117   123   124    1
   118   123   122    1
   119    41    42    1
   120    41    44    1
   121    78    80    1
   122    78    77    1
   123   116   117    1
   124   121   122    1
   125   121   120    1
   126    43    42    2
   127    74    77    1
   128    74    75    1
   129    44    45    1
   130   117   120    1
   131   117   118    1
   132    77    79    1
   133    46    45    1
   134   115   113    1
   135    76    75    2
   136    75    81   am
   137    47    45    1
   138   118   119    2
   139    81    82    1
   140   113   114    1
   141   113   110    1
   142    85    82    1
   143    85    86    1
   144    82    83    1
   145   112   111    2
   146    86    88   ar
   147    86    87   ar
   148   111   110    1
   149   110   109    1
   150    83    84    2
   151    83    89   am
   152   109   102   am
   153    89    90    1
   154    97    96    1
   155    97    98    1
   156    96    91   am
   157    99    98    2
   158   102   103    2
   159   102   101    1
   160    98   100   am
   161    90    91    1
   162    90    93    1
   163   100   101    1
   164    91    92    2
   165    94    93    1
   166   101   104    1
   167    93    95    1
   168   104   105    1
   169   107   106    1
   170   107   108    1
   171   105   106    1
