@<TRIPOS>MOLECULE
tmp/4rblA00.pdb
 135 125 0 0 0
SMALL
GASTEIGER

@<TRIPOS>ATOM
      1  N        123.7910   33.8900    4.3110 N.3    12  LEU12      -0.1231
      2  CA       122.9450   35.0260    4.7340 C.3    12  LEU12       0.1696
      3  C        121.6290   34.5900    5.3900 C.2    12  LEU12       0.2631
      4  O        121.0740   35.3470    6.1770 O.2    12  LEU12      -0.2714
      5  CB       122.5900   35.9060    3.5520 C.3    12  LEU12       0.0284
      6  CG       123.7480   36.4380    2.7210 C.3    12  LEU12       0.0019
      7  CD1      123.1830   37.2130    1.5490 C.3    12  LEU12       0.0001
      8  CD2      124.6330   37.3340    3.5470 C.3    12  LEU12       0.0001
      9  N        121.1160   33.3980    5.0650 N.am   13  GLY13      -0.1732
     10  CA       119.9200   32.8710    5.7450 C.2    13  GLY13       0.1340
     11  C        119.4280   31.5190    5.2570 C.2    13  GLY13       0.2521
     12  O        120.1180   30.8560    4.4760 O.2    13  GLY13      -0.2816
     13  N        112.4890   28.1800    2.3410 N.3    16  PHE16      -0.1241
     14  CA       112.8260   28.8520    1.0910 C.3    16  PHE16       0.1605
     15  C        114.2550   28.5660    0.5350 C.2    16  PHE16       0.2264
     16  O        114.5720   29.0150   -0.5600 O.2    16  PHE16      -0.2867
     17  CB       112.5790   30.3760    1.2250 C.3    16  PHE16       0.0534
     18  CG       113.6330   31.1280    2.0460 C.ar   16  PHE16      -0.0203
     19  CD1      114.9060   31.4070    1.5040 C.ar   16  PHE16      -0.0042
     20  CD2      113.3520   31.5940    3.3550 C.ar   16  PHE16      -0.0042
     21  CE1      115.8800   32.0860    2.2470 C.ar   16  PHE16      -0.0003
     22  CE2      114.3250   32.2830    4.0980 C.ar   16  PHE16      -0.0003
     23  CZ       115.5900   32.5340    3.5390 C.ar   16  PHE16      -0.0000
     24  N        121.0140   30.6910    1.3890 N.3    19  VAL19      -0.1245
     25  CA       121.4340   31.7700    0.5250 C.3    19  VAL19       0.1561
     26  C        122.7750   32.2890    0.9450 C.2    19  VAL19       0.2260
     27  O        122.9630   32.6280    2.0800 O.2    19  VAL19      -0.2867
     28  CB       120.4250   32.9280    0.6140 C.3    19  VAL19       0.0252
     29  CG1      120.8550   34.1170   -0.2510 C.3    19  VAL19       0.0019
     30  CG2      119.0380   32.4400    0.2060 C.3    19  VAL19       0.0019
     31  N        123.4930   37.3160   -4.7990 N.3    32  ALA32      -0.1245
     32  CA       123.1180   36.3600   -3.7650 C.3    32  ALA32       0.1562
     33  C        122.8980   35.0800   -4.4800 C.2    32  ALA32       0.2260
     34  O        122.3550   35.0990   -5.5940 O.2    32  ALA32      -0.2867
     35  CB       121.8380   36.7870   -3.0690 C.3    32  ALA32       0.0290
     36  N        121.2530   31.3520   -4.2050 N.3    34  LYS34      -0.1245
     37  CA       120.2510   30.6410   -3.4760 C.3    34  LYS34       0.1561
     38  C        120.2180   29.2170   -3.9390 C.2    34  LYS34       0.2260
     39  O        120.0260   28.9620   -5.0920 O.2    34  LYS34      -0.2867
     40  CB       118.8900   31.2980   -3.7130 C.3    34  LYS34       0.0271
     41  CG       117.7360   30.6080   -3.0010 C.3    34  LYS34       0.0035
     42  CD       116.4730   31.4220   -3.1880 C.3    34  LYS34       0.0206
     43  CE       115.3450   30.8770   -2.3540 C.3    34  LYS34       0.1093
     44  NZ       114.0650   31.5510   -2.6940 N.3    34  LYS34      -0.1314
     45  N        109.5270   29.0330   -9.1230 N.3    56  GLU56      -0.1245
     46  CA       110.2490   30.2290   -8.6860 C.3    56  GLU56       0.1567
     47  C        111.0130   30.8610   -9.8600 C.2    56  GLU56       0.2260
     48  O        110.9900   32.0970  -10.0620 O.2    56  GLU56      -0.2867
     49  CB       111.1700   29.9140   -7.4980 C.3    56  GLU56       0.0388
     50  CG       111.8600   31.1420   -6.9230 C.3    56  GLU56       0.1160
     51  CD       112.5570   30.9580   -5.5660 C.2    56  GLU56       0.3649
     52  OE1      112.7180   29.8040   -5.1390 O.co2  56  GLU56      -0.2457
     53  OE2      112.9290   32.0010   -4.9320 O.co2  56  GLU56      -0.2457
     54  N        110.4540   34.2270  -11.6310 N.3    60  LEU60      -0.1245
     55  CA       111.5180   35.2320  -11.6140 C.3    60  LEU60       0.1561
     56  C        111.9150   35.7540  -12.9790 C.2    60  LEU60       0.2260
     57  O        112.3230   36.9120  -13.1250 O.2    60  LEU60      -0.2867
     58  CB       112.7480   34.7090  -10.8810 C.3    60  LEU60       0.0270
     59  CG       112.6210   34.6930   -9.3530 C.3    60  LEU60       0.0019
     60  CD1      113.5710   33.6870   -8.7920 C.3    60  LEU60       0.0001
     61  CD2      112.8630   36.0440   -8.6800 C.3    60  LEU60       0.0001
     62  N        113.7240   42.0480   -6.7550 N.3    71  ILE71      -0.1245
     63  CA       115.0690   41.5510   -6.8810 C.3    71  ILE71       0.1561
     64  C        115.1170   40.5550   -8.0010 C.2    71  ILE71       0.2260
     65  O        114.3760   39.5450   -7.9500 O.2    71  ILE71      -0.2867
     66  CB       115.6080   40.9640   -5.5850 C.3    71  ILE71       0.0252
     67  CG1      116.4880   42.0400   -4.9950 C.3    71  ILE71       0.0019
     68  CG2      116.4980   39.7520   -5.8380 C.3    71  ILE71       0.0019
     69  CD1      116.7270   41.8840   -3.5480 C.3    71  ILE71       0.0001
     70  N        121.0830   35.9540   -7.7460 N.3    87  LEU87      -0.1231
     71  CA       120.2230   37.1140   -7.6630 C.3    87  LEU87       0.1693
     72  C        121.0450   38.3390   -7.3570 C.2    87  LEU87       0.2592
     73  O        122.1920   38.2330   -6.9190 O.2    87  LEU87      -0.2718
     74  CB       119.1850   36.8850   -6.5760 C.3    87  LEU87       0.0284
     75  CG       118.3580   35.6270   -6.7950 C.3    87  LEU87       0.0019
     76  CD1      117.9870   34.9650   -5.4900 C.3    87  LEU87       0.0001
     77  CD2      117.0940   35.9780   -7.5450 C.3    87  LEU87       0.0001
     78  N        120.4530   39.4980   -7.6140 N.am   88  GLU88      -0.1966
     79  CA       121.0280   40.7730   -7.2030 C.3    88  GLU88       0.1733
     80  C        121.2470   40.7600   -5.7270 C.2    88  GLU88       0.2616
     81  O        120.5250   40.0880   -4.9950 O.2    88  GLU88      -0.2715
     82  CB       120.0830   41.9290   -7.4860 C.3    88  GLU88       0.0429
     83  CG       119.7810   42.2090   -8.9500 C.3    88  GLU88       0.1163
     84  CD       118.8950   43.4410   -9.0910 C.2    88  GLU88       0.3649
     85  OE1      117.7090   43.4010   -8.6560 O.co2  88  GLU88      -0.2457
     86  OE2      119.4000   44.4610   -9.6140 O.co2  88  GLU88      -0.2457
     87  N        122.2480   41.5070   -5.3000 N.am   89  ARG89      -0.1964
     88  CA       122.4600   41.7990   -3.8990 C.3    89  ARG89       0.1714
     89  C        122.7380   43.2720   -3.6730 C.2    89  ARG89       0.2458
     90  O        123.8600   43.7210   -3.7920 O.2    89  ARG89      -0.2730
     91  CB       123.6110   41.0110   -3.3400 C.3    89  ARG89       0.0347
     92  CG       123.6880   41.1710   -1.8310 C.3    89  ARG89       0.0492
     93  CD       124.4300   39.9990   -1.2140 C.3    89  ARG89       0.2205
     94  NE       125.7480   39.8400   -1.8350 N.pl3  89  ARG89      -0.0865
     95  CZ       126.7920   40.6580   -1.6340 C.cat  89  ARG89       0.5346
     96  NH1      126.7070   41.7220   -0.8290 N.pl3  89  ARG89       0.1354
     97  NH2      127.9290   40.4310   -2.2650 N.pl3  89  ARG89       0.1354
     98  N        121.7010   44.0390   -3.3760 N.am   90  PRO90      -0.2727
     99  CA       121.9450   45.4320   -3.0750 C.3    90  PRO90       0.1402
    100  C        122.7060   45.5000   -1.7740 C.2    90  PRO90       0.2269
    101  O        122.7120   44.5310   -1.0080 O.2    90  PRO90      -0.2865
    102  CB       120.5440   46.0200   -2.9020 C.3    90  PRO90       0.0296
    103  CG       119.5780   44.9410   -3.2570 C.3    90  PRO90       0.0237
    104  CD       120.3040   43.6440   -3.1540 C.3    90  PRO90       0.0939
    105  N        121.6950   46.6130    2.8650 N.3    93  VAL93      -0.1245
    106  CA       120.3480   46.2110    2.7400 C.3    93  VAL93       0.1561
    107  C        119.8320   45.7930    4.1000 C.2    93  VAL93       0.2260
    108  O        120.5740   45.3550    4.9320 O.2    93  VAL93      -0.2867
    109  CB       120.2600   45.0670    1.7000 C.3    93  VAL93       0.0252
    110  CG1      120.6550   43.7390    2.3000 C.3    93  VAL93       0.0019
    111  CG2      118.8670   44.9740    1.1560 C.3    93  VAL93       0.0019
    112  N        113.0250   43.8500    0.9720 N.3   141  LEU141     -0.1245
    113  CA       114.3180   44.3240    1.3710 C.3   141  LEU141      0.1561
    114  C        114.3600   45.7830    1.1330 C.2   141  LEU141      0.2260
    115  O        113.8560   46.2690    0.1190 O.2   141  LEU141     -0.2867
    116  CB       115.4210   43.7350    0.5170 C.3   141  LEU141      0.0270
    117  CG       115.6510   42.2380    0.6280 C.3   141  LEU141      0.0019
    118  CD1      116.8080   41.8550   -0.2770 C.3   141  LEU141      0.0001
    119  CD2      115.9650   41.8560    2.0520 C.3   141  LEU141      0.0001
    120  N        111.2120   39.8940   -2.6410 N.3   152  ILE152     -0.1231
    121  CA       112.1520   38.8180   -2.8590 C.3   152  ILE152      0.1692
    122  C        111.7110   37.3830   -3.0420 C.2   152  ILE152      0.2592
    123  O        112.2410   36.7070   -3.9600 O.2   152  ILE152     -0.2718
    124  CB       113.3250   38.8440   -1.8560 C.3   152  ILE152      0.0266
    125  CG1      112.8090   38.8980   -0.4140 C.3   152  ILE152      0.0019
    126  CG2      114.2270   40.0060   -2.1920 C.3   152  ILE152      0.0020
    127  CD1      113.8290   38.5000    0.6270 C.3   152  ILE152      0.0001
    128  N        110.8670   36.8320   -2.2110 N.am  153  ASP153     -0.1974
    129  CA       110.8740   35.3390   -2.2700 C.3   153  ASP153      0.1709
    130  C        109.6680   34.8210   -3.0430 C.2   153  ASP153      0.2293
    131  O        108.5690   34.7880   -2.5040 O.2   153  ASP153     -0.2864
    132  CB       110.9520   34.7520   -0.8610 C.3   153  ASP153      0.1436
    133  CG       110.8590   33.2020   -0.8150 C.2   153  ASP153      0.3671
    134  OD1      110.9420   32.4730   -1.8450 O.co2 153  ASP153     -0.2456
    135  OD2      110.6900   32.7060    0.3200 O.co2 153  ASP153     -0.2456
@<TRIPOS>BOND
     1    57    56    2
     2    56    55    1
     3    54    55    1
     4    55    58    1
     5    58    59    1
     6    48    47    2
     7    47    46    1
     8    86    84   ar
     9    59    60    1
    10    59    61    1
    11    45    46    1
    12    84    83    1
    13    84    85   ar
    14    83    82    1
    15    46    49    1
    16    64    65    2
    17    64    63    1
    18    70    71    1
    19    71    72    1
    20    71    74    1
    21    78    72   am
    22    78    79    1
    23    77    75    1
    24    49    50    1
    25    82    79    1
    26    72    73    2
    27    79    80    1
    28    50    51    1
    29    63    62    1
    30    63    66    1
    31    75    74    1
    32    75    76    1
    33    68    66    1
    34    80    87   am
    35    80    81    2
    36    34    33    2
    37    66    67    1
    38    51    52   ar
    39    51    53   ar
    40    87    88    1
    41    39    38    2
    42    67    69    1
    43    31    32    1
    44    33    32    1
    45    36    37    1
    46   123   122    2
    47    38    37    1
    48    88    89    1
    49    88    91    1
    50    90    89    2
    51    32    35    1
    52    40    37    1
    53    40    41    1
    54    89    98   am
    55    98   104    1
    56    98    99    1
    57    91    92    1
    58   103   104    1
    59   103   102    1
    60    42    41    1
    61    42    43    1
    62    99   102    1
    63    99   100    1
    64   130   131    2
    65   130   129    1
    66   122   121    1
    67   122   128   am
    68   121   120    1
    69   121   124    1
    70    44    43    1
    71   129   128    1
    72   129   132    1
    73    97    95    1
    74   126   124    1
    75   124   125    1
    76   134   133   ar
    77    94    95    2
    78    94    93    1
    79    92    93    1
    80   100   101    2
    81    95    96    1
    82   132   133    1
    83   133   135   ar
    84    16    15    2
    85   125   127    1
    86   118   117    1
    87    29    28    1
    88   115   114    2
    89    30    28    1
    90   116   117    1
    91   116   113    1
    92    25    28    1
    93    25    26    1
    94    25    24    1
    95    15    14    1
    96   117   119    1
    97    26    27    2
    98   112   113    1
    99    14    17    1
   100    14    13    1
   101   114   113    1
   102   111   109    1
   103    17    18    1
   104    19    18   ar
   105    19    21   ar
   106     7     6    1
   107   109   110    1
   108   109   106    1
   109    18    20   ar
   110    21    23   ar
   111     6     8    1
   112     6     5    1
   113   106   105    1
   114   106   107    1
   115    20    22   ar
   116    23    22   ar
   117     5     2    1
   118   107   108    2
   119     1     2    1
   120    12    11    2
   121     2     3    1
   122     9     3    1
   123     9    10    2
   124    11    10    1
   125     3     4    2
