@<TRIPOS>MOLECULE
tmp/4rbmA00.pdb
 95 93 0 0 0
SMALL
GASTEIGER

@<TRIPOS>ATOM
      1  N         16.8590   32.9170   26.2780 N.3   167  VAL167     -0.1245
      2  CA        17.8140   34.0220   26.1760 C.3   167  VAL167      0.1561
      3  C         18.1270   34.4250   24.7300 C.2   167  VAL167      0.2260
      4  O         18.2240   35.6190   24.4700 O.2   167  VAL167     -0.2867
      5  CB        19.1170   33.6240   26.9420 C.3   167  VAL167      0.0252
      6  CG1       20.3330   34.3700   26.4290 C.3   167  VAL167      0.0019
      7  CG2       18.9530   33.8270   28.4490 C.3   167  VAL167      0.0019
      8  N         24.2760   34.2640   18.6870 N.3   214  THR214     -0.1203
      9  CA        24.2110   33.8610   20.1010 C.3   214  THR214      0.1994
     10  C         23.6270   32.4350   20.1870 C.2   214  THR214      0.2618
     11  O         22.4680   32.2050   19.8010 O.2   214  THR214     -0.2717
     12  CB        23.4600   34.8700   20.9810 C.3   214  THR214      0.1784
     13  OG1       23.4330   34.3760   22.3330 O.3   214  THR214     -0.2211
     14  CG2       22.0390   35.1560   20.4950 C.3   214  THR214      0.0376
     15  N         24.4510   31.4940   20.6870 N.am  215  ALA215     -0.1965
     16  CA        24.1590   30.0640   20.9480 C.3   215  ALA215      0.1728
     17  C         25.4720   29.2880   21.1550 C.2   215  ALA215      0.2616
     18  O         26.3760   29.8100   21.7980 O.2   215  ALA215     -0.2715
     19  CB        23.3300   29.4230   19.8370 C.3   215  ALA215      0.0334
     20  N         25.5700   28.0480   20.6730 N.am  216  HIS216     -0.1959
     21  CA        26.7600   27.2300   20.9140 C.3   216  HIS216      0.1787
     22  C         27.8960   27.5640   19.9900 C.2   216  HIS216      0.2620
     23  O         27.6930   27.8190   18.7990 O.2   216  HIS216     -0.2715
     24  CB        26.4250   25.7270   20.7600 C.3   216  HIS216      0.0785
     25  CG        25.2990   25.2880   21.6420 C.ar  216  HIS216      0.0821
     26  ND1       25.3270   25.4940   23.0070 N.ar  216  HIS216     -0.2267
     27  CD2       24.1630   24.6290   21.3300 C.ar  216  HIS216      0.1154
     28  CE1       24.2080   24.9760   23.4800 C.ar  216  HIS216      0.1986
     29  NE2       23.4670   24.4610   22.5060 N.ar  216  HIS216     -0.2212
     30  N         29.0950   27.4470   20.5190 N.am  217  GLY217     -0.1954
     31  CA        30.3010   27.6540   19.7290 C.3   217  GLY217      0.1869
     32  C         31.3540   26.6030   20.0060 C.2   217  GLY217      0.2309
     33  O         31.2950   25.8750   21.0100 O.2   217  GLY217     -0.2863
     34  N         28.5680   35.5260   20.6220 N.3   247  ASN247     -0.1240
     35  CA        28.2200   35.4050   22.0480 C.3   247  ASN247      0.1653
     36  C         27.9820   33.9360   22.2520 C.2   247  ASN247      0.2266
     37  O         26.8480   33.4490   22.1380 O.2   247  ASN247     -0.2867
     38  CB        27.0330   36.2790   22.4170 C.3   247  ASN247      0.1155
     39  CG        27.3460   37.7490   22.3580 C.2   247  ASN247      0.2627
     40  OD1       26.7570   38.4960   21.5560 O.2   247  ASN247     -0.2716
     41  ND2       28.3010   38.2170   23.1800 N.am  247  ASN247     -0.0877
     42  N         30.5540   29.9450   23.2010 N.3   249  CYS249     -0.1235
     43  CA        31.8260   29.4960   23.7610 C.3   249  CYS249      0.1677
     44  C         32.9420   29.4250   22.7450 C.2   249  CYS249      0.2270
     45  O         32.7390   29.3320   21.5390 O.2   249  CYS249     -0.2867
     46  CB        31.7630   28.0530   24.3060 C.3   249  CYS249      0.0956
     47  SG        30.3230   27.7970   25.4000 S.3   249  CYS249     -0.0801
     48  N         34.5450   29.0990   27.7680 N.3   282  ASN282     -0.1225
     49  CA        33.0910   29.0250   27.5950 C.3   282  ASN282      0.1785
     50  C         32.4560   30.3530   27.9810 C.2   282  ASN282      0.2598
     51  O         32.9720   31.0430   28.8670 O.2   282  ASN282     -0.2718
     52  CB        32.5200   27.9330   28.5160 C.3   282  ASN282      0.1169
     53  CG        32.7410   26.5150   28.0460 C.2   282  ASN282      0.2627
     54  OD1       33.1510   26.2560   26.9120 O.2   282  ASN282     -0.2716
     55  ND2       32.5420   25.5590   28.9490 N.am  282  ASN282     -0.0877
     56  N         31.3600   30.7220   27.3100 N.am  283  SER283     -0.1938
     57  CA        30.5480   31.8560   27.7430 C.3   283  SER283      0.2055
     58  C         29.3070   31.2410   28.3740 C.2   283  SER283      0.2643
     59  O         29.0660   30.0300   28.2200 O.2   283  SER283     -0.2714
     60  CB        30.2130   32.8230   26.6020 C.3   283  SER283      0.2130
     61  OG        29.2770   32.2070   25.7360 O.3   283  SER283     -0.2179
     62  N         28.5790   32.0220   29.1520 N.am  284  TYR284     -0.1959
     63  CA        27.4170   31.4920   29.8580 C.3   284  TYR284      0.1771
     64  C         26.1690   32.2030   29.3790 C.2   284  TYR284      0.2619
     65  O         26.2320   33.3810   29.0030 O.2   284  TYR284     -0.2715
     66  CB        27.5980   31.5880   31.3820 C.3   284  TYR284      0.0574
     67  CG        28.5800   30.5640   31.9160 C.ar  284  TYR284     -0.0198
     68  CD1       29.9530   30.6860   31.6740 C.ar  284  TYR284     -0.0009
     69  CD2       28.1410   29.4630   32.6450 C.ar  284  TYR284     -0.0009
     70  CE1       30.8550   29.7330   32.1390 C.ar  284  TYR284      0.0417
     71  CE2       29.0400   28.5360   33.1600 C.ar  284  TYR284      0.0417
     72  CZ        30.3880   28.6490   32.8640 C.ar  284  TYR284      0.1957
     73  OH        31.2580   27.7280   33.3730 O.3   284  TYR284     -0.2866
     74  N         25.0370   31.4790   29.3670 N.am  285  TRP285     -0.1974
     75  CA        23.7570   32.0080   28.8680 C.3   285  TRP285      0.1640
     76  C         23.2760   33.2380   29.6410 C.2   285  TRP285      0.2290
     77  O         22.8960   34.2390   29.0160 O.2   285  TRP285     -0.2864
     78  CB        22.6830   30.9320   28.9170 C.3   285  TRP285      0.0576
     79  CG        22.8870   29.8360   27.9200 C.ar  285  TRP285      0.0006
     80  CD1       23.3360   28.5710   28.1730 C.ar  285  TRP285      0.0946
     81  CD2       22.5980   29.8860   26.5080 C.ar  285  TRP285      0.0152
     82  NE1       23.3540   27.8310   27.0060 N.ar  285  TRP285     -0.2442
     83  CE2       22.9040   28.6120   25.9710 C.ar  285  TRP285      0.0810
     84  CE3       22.0770   30.8780   25.6480 C.ar  285  TRP285      0.0012
     85  CZ2       22.6510   28.2820   24.6260 C.ar  285  TRP285      0.0191
     86  CZ3       21.8610   30.5590   24.3080 C.ar  285  TRP285      0.0001
     87  CH2       22.1390   29.2750   23.8120 C.ar  285  TRP285      0.0015
     88  N         25.8100   36.2670   29.0890 N.3   288  ASP288     -0.1239
     89  CA        25.7400   36.7310   27.6960 C.3   288  ASP288      0.1674
     90  C         24.4600   37.5440   27.4400 C.2   288  ASP288      0.2266
     91  O         24.4720   38.4930   26.6520 O.2   288  ASP288     -0.2867
     92  CB        25.8030   35.5460   26.7120 C.3   288  ASP288      0.1410
     93  CG        27.2170   35.1550   26.2820 C.2   288  ASP288      0.3668
     94  OD1       28.1890   35.7200   26.8290 O.co2 288  ASP288     -0.2456
     95  OD2       27.3440   34.2580   25.4560 O.co2 288  ASP288     -0.2456
@<TRIPOS>BOND
     1     8     9    1
     2    23    22    2
     3    31    32    1
     4    31    30    1
     5    11    10    2
     6    19    16    1
     7    22    30   am
     8    22    21    1
     9    32    33    2
    10     9    10    1
    11     9    12    1
    12    10    15   am
    13    14    12    1
    14    34    35    1
    15    20    21    1
    16    20    17   am
    17    15    16    1
    18    24    21    1
    19    24    25    1
    20    16    17    1
    21    12    13    1
    22    17    18    2
    23    27    25   ar
    24    27    29   ar
    25    45    44    2
    26    40    39    2
    27    25    26   ar
    28    35    36    1
    29    35    38    1
    30    37    36    2
    31    39    38    1
    32    39    41   am
    33    29    28   ar
    34    44    43    1
    35    26    28   ar
    36    42    43    1
    37    43    46    1
    38    87    86   ar
    39    87    85   ar
    40    46    47    1
    41    86    84   ar
    42     4     3    2
    43    85    83   ar
    44     3     2    1
    45    95    93   ar
    46    84    81   ar
    47    61    60    1
    48    83    81   ar
    49    83    82   ar
    50     2     1    1
    51     2     5    1
    52    93    92    1
    53    93    94   ar
    54     6     5    1
    55    81    79   ar
    56    60    57    1
    57    91    90    2
    58    92    89    1
    59    54    53    2
    60     5     7    1
    61    82    80   ar
    62    56    57    1
    63    56    50   am
    64    90    89    1
    65    49    48    1
    66    49    50    1
    67    49    52    1
    68    89    88    1
    69    57    58    1
    70    79    80   ar
    71    79    78    1
    72    50    51    2
    73    53    52    1
    74    53    55   am
    75    59    58    2
    76    58    62   am
    77    75    78    1
    78    75    74    1
    79    75    76    1
    80    65    64    2
    81    77    76    2
    82    62    63    1
    83    74    64   am
    84    64    63    1
    85    63    66    1
    86    66    67    1
    87    68    67   ar
    88    68    70   ar
    89    67    69   ar
    90    70    72   ar
    91    69    71   ar
    92    72    71   ar
    93    72    73    1
