@<TRIPOS>MOLECULE
tmp/4rbpD00.pdb
 105 102 0 0 0
SMALL
GASTEIGER

@<TRIPOS>ATOM
      1  N         -9.8830  -14.7440   55.2430 N.3    31  ALA31      -0.1231
      2  CA       -10.3120  -14.2260   56.5520 C.3    31  ALA31       0.1694
      3  C        -10.9080  -12.8130   56.4940 C.2    31  ALA31       0.2592
      4  O        -11.3500  -12.2780   57.5190 O.2    31  ALA31      -0.2718
      5  CB        -9.1680  -14.2750   57.5450 C.3    31  ALA31       0.0304
      6  N        -10.9280  -12.2080   55.3040 N.am   32  HIS32      -0.1962
      7  CA       -11.3260  -10.8010   55.2030 C.3    32  HIS32       0.1787
      8  C        -12.6630  -10.6000   54.5160 C.2    32  HIS32       0.2620
      9  O        -12.9300  -11.2020   53.4640 O.2    32  HIS32      -0.2715
     10  CB       -10.2910  -10.0040   54.4120 C.3    32  HIS32       0.0785
     11  CG        -8.9310   -9.9750   55.0300 C.ar   32  HIS32       0.0821
     12  ND1       -8.5740   -9.0650   56.0100 N.ar   32  HIS32      -0.2267
     13  CD2       -7.8260  -10.7200   54.7910 C.ar   32  HIS32       0.1154
     14  CE1       -7.3170   -9.2690   56.3580 C.ar   32  HIS32       0.1986
     15  NE2       -6.8390  -10.2710   55.6390 N.ar   32  HIS32      -0.2212
     16  N        -13.4950   -9.7300   55.0930 N.am   33  THR33      -0.1951
     17  CA       -14.6660   -9.2030   54.3740 C.3    33  THR33       0.1897
     18  C        -14.1080   -8.3050   53.2760 C.2    33  THR33       0.2313
     19  O        -13.1880   -7.5210   53.5340 O.2    33  THR33      -0.2863
     20  CB       -15.6180   -8.4540   55.3390 C.3    33  THR33       0.1794
     21  OG1      -16.2720   -9.4230   56.1760 O.3    33  THR33      -0.2208
     22  CG2      -16.6780   -7.6530   54.5890 C.3    33  THR33       0.0378
     23  N        -19.0100  -10.9120   53.0350 N.3    52  SER52      -0.1202
     24  CA       -18.3670  -11.3870   54.2580 C.3    52  SER52       0.2020
     25  C        -17.5230  -12.6270   53.9900 C.2    52  SER52       0.2619
     26  O        -17.5270  -13.1900   52.8750 O.2    52  SER52      -0.2717
     27  CB       -19.4150  -11.7270   55.3120 C.3    52  SER52       0.2103
     28  OG       -20.0730  -12.9400   54.9760 O.3    52  SER52      -0.2182
     29  N        -16.7910  -13.0670   55.0090 N.am   53  THR53      -0.1952
     30  CA       -16.0910  -14.3470   54.8960 C.3    53  THR53       0.1897
     31  C        -17.1230  -15.4190   54.6030 C.2    53  THR53       0.2313
     32  O        -18.2710  -15.3040   55.0450 O.2    53  THR53      -0.2863
     33  CB       -15.3360  -14.7120   56.1840 C.3    53  THR53       0.1794
     34  OG1      -16.2400  -14.6550   57.3040 O.3    53  THR53      -0.2208
     35  CG2      -14.1780  -13.7530   56.4120 C.3    53  THR53       0.0378
     36  N        -21.1910  -15.5800   53.5300 N.3    56  THR56      -0.1203
     37  CA       -22.3840  -15.6660   54.3530 C.3    56  THR56       0.1994
     38  C        -23.3270  -14.4800   54.1440 C.2    56  THR56       0.2617
     39  O        -24.5480  -14.6430   54.0830 O.2    56  THR56      -0.2717
     40  CB       -21.9870  -15.7560   55.8360 C.3    56  THR56       0.1784
     41  OG1      -21.0500  -16.8270   55.9890 O.3    56  THR56      -0.2211
     42  CG2      -23.2070  -15.9750   56.7210 C.3    56  THR56       0.0376
     43  N        -22.7690  -13.2780   54.0440 N.am   57  TYR57      -0.1975
     44  CA       -23.6080  -12.1000   53.8680 C.3    57  TYR57       0.1639
     45  C        -23.1010  -11.2670   52.7010 C.2    57  TYR57       0.2290
     46  O        -21.8910  -11.0430   52.5640 O.2    57  TYR57      -0.2864
     47  CB       -23.6430  -11.2340   55.1310 C.3    57  TYR57       0.0560
     48  CG       -23.9050  -11.9880   56.4090 C.ar   57  TYR57      -0.0198
     49  CD1      -25.1790  -12.4490   56.7220 C.ar   57  TYR57      -0.0009
     50  CD2      -22.8800  -12.2190   57.3170 C.ar   57  TYR57      -0.0009
     51  CE1      -25.4210  -13.1370   57.9200 C.ar   57  TYR57       0.0417
     52  CE2      -23.1100  -12.9060   58.5100 C.ar   57  TYR57       0.0417
     53  CZ       -24.3830  -13.3610   58.7990 C.ar   57  TYR57       0.1957
     54  OH       -24.6100  -14.0380   59.9760 O.3    57  TYR57      -0.2866
     55  N        -11.4620   -5.1140   54.3930 N.3    99  LYS99      -0.1231
     56  CA       -11.7850   -4.7890   55.7820 C.3    99  LYS99       0.1693
     57  C        -10.7990   -5.5380   56.6810 C.2    99  LYS99       0.2592
     58  O        -10.6850   -6.7700   56.6040 O.2    99  LYS99      -0.2718
     59  CB       -13.2150   -5.2600   56.0680 C.3    99  LYS99       0.0285
     60  CG       -13.9380   -4.6000   57.2020 C.3    99  LYS99       0.0035
     61  CD       -15.4320   -5.0170   57.1940 C.3    99  LYS99       0.0206
     62  CE       -16.1570   -4.6430   58.5180 C.3    99  LYS99       0.1093
     63  NZ       -16.4380   -3.1720   58.6780 N.3    99  LYS99      -0.1314
     64  N        -10.0700   -4.8180   57.5310 N.am  100  GLY100     -0.1957
     65  CA        -9.0170   -5.4690   58.2750 C.3   100  GLY100      0.1869
     66  C         -8.2800   -4.5540   59.2210 C.2   100  GLY100      0.2309
     67  O         -8.4860   -3.3450   59.2390 O.2   100  GLY100     -0.2863
     68  N         -7.6540   -9.0150   63.3790 N.3   104  LEU104     -0.1231
     69  CA        -9.0630   -8.9130   62.9920 C.3   104  LEU104      0.1693
     70  C        -10.0160   -8.8570   64.1870 C.2   104  LEU104      0.2593
     71  O         -9.7560   -9.4510   65.2480 O.2   104  LEU104     -0.2718
     72  CB        -9.4460  -10.0760   62.0700 C.3   104  LEU104      0.0284
     73  CG        -8.5670  -10.2390   60.8240 C.3   104  LEU104      0.0019
     74  CD1       -9.0670  -11.3640   59.9170 C.3   104  LEU104      0.0001
     75  CD2       -8.4620   -8.9230   60.0410 C.3   104  LEU104      0.0001
     76  N        -11.1160   -8.1310   64.0080 N.am  105  SER105     -0.1938
     77  CA       -12.1960   -8.1020   64.9870 C.3   105  SER105      0.2055
     78  C        -13.4810   -8.1840   64.1950 C.2   105  SER105      0.2643
     79  O        -13.4500   -8.2290   62.9620 O.2   105  SER105     -0.2714
     80  CB       -12.1670   -6.8040   65.8040 C.3   105  SER105      0.2130
     81  OG       -12.5160   -5.6860   64.9940 O.3   105  SER105     -0.2179
     82  N        -14.6090   -8.1700   64.8910 N.am  106  ASP106     -0.1957
     83  CA       -15.9060   -8.1710   64.2190 C.3   106  ASP106      0.1840
     84  C        -16.1930   -6.9000   63.4230 C.2   106  ASP106      0.2622
     85  O        -17.1700   -6.8500   62.6880 O.2   106  ASP106     -0.2715
     86  CB       -17.0400   -8.4070   65.2300 C.3   106  ASP106      0.1450
     87  CG       -17.1460   -9.8760   65.6650 C.2   106  ASP106      0.3671
     88  OD1      -16.1630  -10.6390   65.4700 O.co2 106  ASP106     -0.2456
     89  OD2      -18.2180  -10.2580   66.1870 O.co2 106  ASP106     -0.2456
     90  N        -15.3680   -5.8670   63.5810 N.am  107  ASN107     -0.1958
     91  CA       -15.6140   -4.6100   62.8500 C.3   107  ASN107      0.1819
     92  C        -14.3800   -3.7220   62.6740 C.2   107  ASN107      0.2621
     93  O        -14.0670   -2.8840   63.5360 O.2   107  ASN107     -0.2715
     94  CB       -16.7630   -3.8150   63.4960 C.3   107  ASN107      0.1195
     95  CG       -17.3030   -2.7050   62.5870 C.2   107  ASN107      0.2630
     96  OD1      -17.2850   -2.8320   61.3640 O.2   107  ASN107     -0.2716
     97  ND2      -17.7920   -1.6180   63.1920 N.am  107  ASN107     -0.0877
     98  N        -13.7080   -3.8870   61.5370 N.am  108  ASP108     -0.1971
     99  CA       -12.4840   -3.1480   61.2380 C.3   108  ASP108      0.1709
    100  C        -12.7190   -2.2190   60.0460 C.2   108  ASP108      0.2293
    101  O        -13.6450   -2.4450   59.2630 O.2   108  ASP108     -0.2864
    102  CB       -11.3460   -4.1280   60.8940 C.3   108  ASP108      0.1436
    103  CG       -11.0250   -5.0750   62.0320 C.2   108  ASP108      0.3671
    104  OD1      -10.9700   -4.6000   63.1770 O.co2 108  ASP108     -0.2456
    105  OD2      -10.8360   -6.2910   61.7900 O.co2 108  ASP108     -0.2456
@<TRIPOS>BOND
     1    46    45    2
     2    45    44    1
     3    26    25    2
     4    23    24    1
     5    18    19    2
     6    18    17    1
     7     9     8    2
     8    36    37    1
     9    44    43    1
    10    44    47    1
    11    25    24    1
    12    25    29   am
    13    43    38   am
    14    39    38    2
    15    38    37    1
    16    24    27    1
    17    37    40    1
    18    17    16    1
    19    17    20    1
    20    55    56    1
    21    10    11    1
    22    10     7    1
    23     8    16   am
    24     8     7    1
    25    22    20    1
    26    31    30    1
    27    31    32    2
    28    13    11   ar
    29    13    15   ar
    30    30    29    1
    31    30    33    1
    32    28    27    1
    33    11    12   ar
    34    47    48    1
    35     7     6    1
    36     1     2    1
    37     6     3   am
    38    20    21    1
    39    15    14   ar
    40    56    59    1
    41    56    57    1
    42    40    41    1
    43    40    42    1
    44    12    14   ar
    45    59    60    1
    46    33    35    1
    47    33    34    1
    48    48    49   ar
    49    48    50   ar
    50     3     2    1
    51     3     4    2
    52     2     5    1
    53    58    57    2
    54    57    64   am
    55    49    51   ar
    56    61    60    1
    57    61    62    1
    58    50    52   ar
    59    64    65    1
    60    51    53   ar
    61    65    66    1
    62    52    53   ar
    63    62    63    1
    64    53    54    1
    65    66    67    2
    66   101   100    2
    67    74    73    1
    68    75    73    1
    69   100    99    1
    70    73    72    1
    71   102    99    1
    72   102   103    1
    73    99    98    1
    74    96    95    2
    75    98    92   am
    76   105   103   ar
    77   103   104   ar
    78    72    69    1
    79    95    97   am
    80    95    94    1
    81    92    91    1
    82    92    93    2
    83    85    84    2
    84    91    94    1
    85    91    90    1
    86    79    78    2
    87    69    68    1
    88    69    70    1
    89    84    90   am
    90    84    83    1
    91    76    70   am
    92    76    77    1
    93    70    71    2
    94    78    82   am
    95    78    77    1
    96    83    82    1
    97    83    86    1
    98    77    80    1
    99    81    80    1
   100    86    87    1
   101    88    87   ar
   102    87    89   ar
