@<TRIPOS>MOLECULE
tmp/4rc2A00.pdb
 152 142 0 0 0
SMALL
GASTEIGER

@<TRIPOS>ATOM
      1  N         17.2910  -38.6440    4.3780 N.3    12  LEU12      -0.1231
      2  CA        18.6800  -38.3980    4.6970 C.3    12  LEU12       0.1693
      3  C         18.8720  -37.1020    5.4200 C.2    12  LEU12       0.2592
      4  O         19.6980  -37.0290    6.2680 O.2    12  LEU12      -0.2718
      5  CB        19.5510  -38.3700    3.4570 C.3    12  LEU12       0.0284
      6  CG        19.6350  -39.6890    2.7220 C.3    12  LEU12       0.0019
      7  CD1       20.3850  -39.4820    1.4220 C.3    12  LEU12       0.0001
      8  CD2       20.2930  -40.8060    3.5250 C.3    12  LEU12       0.0001
      9  N         18.1240  -36.0650    5.1040 N.am   13  GLY13      -0.1957
     10  CA        18.2510  -34.8000    5.8360 C.3    13  GLY13       0.1869
     11  C         17.2010  -33.8060    5.3790 C.2    13  GLY13       0.2309
     12  O         16.5250  -34.0060    4.3450 O.2    13  GLY13      -0.2863
     13  N         17.7110  -26.0280    2.3590 N.3    17  PHE17      -0.1241
     14  CA        17.6360  -26.6440    1.0450 C.3    17  PHE17       0.1605
     15  C         16.4780  -27.6390    0.7160 C.2    17  PHE17       0.2264
     16  O         16.5510  -28.2960   -0.3330 O.2    17  PHE17      -0.2867
     17  CB        18.9210  -27.4560    0.8840 C.3    17  PHE17       0.0534
     18  CG        19.0560  -28.5760    1.9150 C.ar   17  PHE17      -0.0203
     19  CD1       19.6730  -28.3520    3.1670 C.ar   17  PHE17      -0.0042
     20  CD2       18.5340  -29.8290    1.6460 C.ar   17  PHE17      -0.0042
     21  CE1       19.7650  -29.3650    4.0970 C.ar   17  PHE17      -0.0003
     22  CE2       18.6100  -30.8450    2.5680 C.ar   17  PHE17      -0.0003
     23  CZ        19.2280  -30.6260    3.7960 C.ar   17  PHE17      -0.0000
     24  N         15.7430  -34.3830    1.6210 N.3    20  VAL20      -0.1245
     25  CA        16.4250  -35.3000    0.7380 C.3    20  VAL20       0.1561
     26  C         16.2800  -36.6990    1.2450 C.2    20  VAL20       0.2260
     27  O         16.5340  -36.9240    2.4370 O.2    20  VAL20      -0.2867
     28  CB        17.9510  -35.0150    0.7230 C.3    20  VAL20       0.0252
     29  CG1       18.7100  -36.0000   -0.1270 C.3    20  VAL20       0.0019
     30  CG2       18.2160  -33.6200    0.1850 C.3    20  VAL20       0.0019
     31  N         19.9380  -40.1150   -4.4520 N.3    33  ALA33      -0.1245
     32  CA        19.4020  -39.2300   -3.4530 C.3    33  ALA33       0.1562
     33  C         18.3210  -38.4770   -4.1510 C.2    33  ALA33       0.2260
     34  O         18.4970  -38.1000   -5.3160 O.2    33  ALA33      -0.2867
     35  CB        20.4950  -38.2590   -2.8920 C.3    33  ALA33       0.0290
     36  N         15.9120  -35.2750   -3.9250 N.3    35  LYS35      -0.1245
     37  CA        15.8650  -34.0080   -3.2360 C.3    35  LYS35       0.1561
     38  C         14.6480  -33.2360   -3.6570 C.2    35  LYS35       0.2260
     39  O         14.4210  -33.0370   -4.8300 O.2    35  LYS35      -0.2867
     40  CB        17.1780  -33.2450   -3.5190 C.3    35  LYS35       0.0271
     41  CG        17.1530  -31.8140   -3.0460 C.3    35  LYS35       0.0035
     42  CD        18.5370  -31.1650   -3.0610 C.3    35  LYS35       0.0206
     43  CE        18.4180  -29.7290   -2.5770 C.3    35  LYS35       0.1093
     44  NZ        19.7430  -29.0970   -2.4610 N.3    35  LYS35      -0.1314
     45  N         28.7550  -33.8600   -6.7020 N.3    72  ILE72      -0.1245
     46  CA        27.6520  -34.7870   -6.8630 C.3    72  ILE72       0.1561
     47  C         26.8040  -34.3780   -8.0620 C.2    72  ILE72       0.2260
     48  O         26.3970  -33.2200   -8.1830 O.2    72  ILE72      -0.2867
     49  CB        26.8710  -35.0060   -5.5610 C.3    72  ILE72       0.0252
     50  CG1       27.4540  -36.2740   -4.9560 C.3    72  ILE72       0.0019
     51  CG2       25.3830  -35.2830   -5.8050 C.3    72  ILE72       0.0019
     52  CD1       27.3000  -36.4230   -3.4930 C.3    72  ILE72       0.0001
     53  N         19.9040  -37.2430   -7.6390 N.3    88  LEU88      -0.1231
     54  CA        21.3550  -37.0510   -7.5610 C.3    88  LEU88       0.1693
     55  C         22.0520  -38.3880   -7.3370 C.2    88  LEU88       0.2592
     56  O         21.4750  -39.3630   -6.8130 O.2    88  LEU88      -0.2718
     57  CB        21.7110  -36.0590   -6.4170 C.3    88  LEU88       0.0284
     58  CG        20.9860  -34.7360   -6.5600 C.3    88  LEU88       0.0019
     59  CD1       20.7330  -34.0720   -5.2440 C.3    88  LEU88       0.0001
     60  CD2       21.7840  -33.8340   -7.4380 C.3    88  LEU88       0.0001
     61  N         23.3240  -38.4320   -7.6860 N.am   89  GLU89      -0.1966
     62  CA        24.1840  -39.5550   -7.2570 C.3    89  GLU89       0.1733
     63  C         24.2000  -39.7010   -5.7740 C.2    89  GLU89       0.2616
     64  O         24.1970  -38.7160   -5.0440 O.2    89  GLU89      -0.2715
     65  CB        25.6590  -39.2850   -7.5470 C.3    89  GLU89       0.0429
     66  CG        26.1310  -39.4450   -8.9590 C.3    89  GLU89       0.1163
     67  CD        27.6590  -39.2580   -8.9880 C.2    89  GLU89       0.3649
     68  OE1       28.1370  -38.1440   -8.6470 O.co2  89  GLU89      -0.2457
     69  OE2       28.3620  -40.2470   -9.2590 O.co2  89  GLU89      -0.2457
     70  N         24.3340  -40.9180   -5.3160 N.am   90  ARG90      -0.1964
     71  CA        24.5110  -41.1620   -3.8880 C.3    90  ARG90       0.1714
     72  C         25.5870  -42.2300   -3.6960 C.2    90  ARG90       0.2458
     73  O         25.3770  -43.4030   -3.9960 O.2    90  ARG90      -0.2730
     74  CB        23.2420  -41.6030   -3.2100 C.3    90  ARG90       0.0347
     75  CG        23.5020  -42.1930   -1.8200 C.3    90  ARG90       0.0492
     76  CD        22.2340  -42.4530   -1.0330 C.3    90  ARG90       0.2205
     77  NE        21.3600  -43.4610   -1.6510 N.pl3  90  ARG90      -0.0865
     78  CZ        21.4320  -44.7750   -1.4240 C.cat  90  ARG90       0.5346
     79  NH1       22.3850  -45.2900   -0.6420 N.pl3  90  ARG90       0.1354
     80  NH2       20.5860  -45.5870   -2.0340 N.pl3  90  ARG90       0.1354
     81  N         26.7270  -41.8250   -3.1340 N.am   91  PRO91      -0.2727
     82  CA        27.7970  -42.7540   -2.7700 C.3    91  PRO91       0.1402
     83  C         27.3460  -43.5900   -1.6040 C.2    91  PRO91       0.2269
     84  O         26.5220  -43.1640   -0.7910 O.2    91  PRO91      -0.2865
     85  CB        28.9400  -41.8420   -2.2850 C.3    91  PRO91       0.0296
     86  CG        28.4860  -40.4260   -2.4910 C.3    91  PRO91       0.0237
     87  CD        26.9920  -40.4440   -2.6780 C.3    91  PRO91       0.0939
     88  N         28.5520  -43.4660    3.0060 N.3    94  VAL94      -0.1231
     89  CA        28.7940  -42.0450    2.9410 C.3    94  VAL94       0.1692
     90  C         28.5880  -41.4230    4.3010 C.2    94  VAL94       0.2592
     91  O         27.8030  -41.9190    5.1170 O.2    94  VAL94      -0.2718
     92  CB        27.8720  -41.3890    1.8910 C.3    94  VAL94       0.0266
     93  CG1       26.4130  -41.5110    2.2810 C.3    94  VAL94       0.0020
     94  CG2       28.2340  -39.9350    1.6800 C.3    94  VAL94       0.0020
     95  N         29.3400  -40.3720    4.5890 N.am   95  GLN95      -0.1966
     96  CA        29.0950  -39.5580    5.7900 C.3    95  GLN95       0.1733
     97  C         29.4460  -38.1120    5.4450 C.2    95  GLN95       0.2616
     98  O         30.4750  -37.8810    4.7730 O.2    95  GLN95      -0.2715
     99  CB        29.9790  -40.0090    6.9280 C.3    95  GLN95       0.0408
    100  CG        29.6540  -39.3250    8.2340 C.3    95  GLN95       0.0908
    101  CD        30.4690  -39.8640    9.3850 C.2    95  GLN95       0.2608
    102  OE1       31.6050  -40.2200    9.2520 O.2    95  GLN95      -0.2717
    103  NE2       29.8800  -39.8610   10.5360 N.am   95  GLN95      -0.0878
    104  N         28.6070  -37.1640    5.8390 N.am   96  ASP96      -0.1971
    105  CA        28.9620  -35.7890    5.5770 C.3    96  ASP96       0.1709
    106  C         30.0900  -35.3430    6.4910 C.2    96  ASP96       0.2293
    107  O         30.2910  -35.8950    7.5810 O.2    96  ASP96      -0.2864
    108  CB        27.7530  -34.8910    5.5060 C.3    96  ASP96       0.1436
    109  CG        27.2220  -34.4630    6.8430 C.2    96  ASP96       0.3671
    110  OD1       27.9800  -34.1660    7.7950 O.co2  96  ASP96      -0.2456
    111  OD2       25.9900  -34.3700    6.9180 O.co2  96  ASP96      -0.2456
    112  N         29.5350  -34.3740   10.1960 N.3    99  ASP99      -0.1239
    113  CA        29.2620  -35.4750   11.1710 C.3    99  ASP99       0.1674
    114  C         30.5320  -36.1950   11.4220 C.2    99  ASP99       0.2266
    115  O         30.7850  -36.6800   12.5370 O.2    99  ASP99      -0.2867
    116  CB        28.2400  -36.4920   10.6520 C.3    99  ASP99       0.1410
    117  CG        26.8270  -35.9310   10.5830 C.2    99  ASP99       0.3668
    118  OD1       26.4530  -35.0610   11.4240 O.co2  99  ASP99      -0.2456
    119  OD2       26.0670  -36.3730    9.6890 O.co2  99  ASP99      -0.2456
    120  N         29.1700  -29.2070    6.0910 N.3   139  GLU139     -0.1245
    121  CA        27.9080  -29.9670    5.8660 C.3   139  GLU139      0.1567
    122  C         27.4850  -30.0410    4.4050 C.2   139  GLU139      0.2260
    123  O         26.5390  -30.7420    4.0720 O.2   139  GLU139     -0.2867
    124  CB        26.7720  -29.4900    6.7390 C.3   139  GLU139      0.0388
    125  CG        26.5230  -28.0230    6.8480 C.3   139  GLU139      0.1160
    126  CD        25.5900  -27.7000    8.0300 C.2   139  GLU139      0.3649
    127  OE1       24.3960  -28.0750    7.9940 O.co2 139  GLU139     -0.2457
    128  OE2       26.0450  -27.0780    8.9920 O.co2 139  GLU139     -0.2457
    129  N         30.3400  -34.4370    1.2280 N.3   142  LEU142     -0.1245
    130  CA        30.1400  -35.8210    1.5310 C.3   142  LEU142      0.1561
    131  C         31.4490  -36.5530    1.3690 C.2   142  LEU142      0.2260
    132  O         32.2540  -36.2910    0.4540 O.2   142  LEU142     -0.2867
    133  CB        29.1350  -36.4390    0.5430 C.3   142  LEU142      0.0270
    134  CG        27.7700  -35.8100    0.6380 C.3   142  LEU142      0.0019
    135  CD1       26.7960  -36.5350   -0.2760 C.3   142  LEU142      0.0001
    136  CD2       27.3070  -35.8290    2.1070 C.3   142  LEU142      0.0001
    137  N         28.0440  -30.9240   -2.4000 N.3   153  ILE153     -0.1231
    138  CA        26.6170  -31.1160   -2.6880 C.3   153  ILE153      0.1692
    139  C         25.5820  -30.0050   -2.7640 C.2   153  ILE153      0.2592
    140  O         24.5740  -30.1970   -3.4340 O.2   153  ILE153     -0.2718
    141  CB        25.9100  -32.1240   -1.7330 C.3   153  ILE153      0.0266
    142  CG1       26.2820  -31.8170   -0.2770 C.3   153  ILE153      0.0019
    143  CG2       26.2400  -33.5530   -2.1240 C.3   153  ILE153      0.0020
    144  CD1       25.3480  -32.5120    0.7620 C.3   153  ILE153      0.0001
    145  N         25.6230  -28.9210   -2.0720 N.am  154  ASP154     -0.1974
    146  CA        24.2210  -28.2580   -2.1500 C.3   154  ASP154      0.1709
    147  C         24.4020  -26.9380   -2.9290 C.2   154  ASP154      0.2293
    148  O         24.9490  -26.0180   -2.3410 O.2   154  ASP154     -0.2864
    149  CB        23.7100  -27.9340   -0.7320 C.3   154  ASP154      0.1436
    150  CG        22.4340  -26.9540   -0.7110 C.2   154  ASP154      0.3671
    151  OD1       21.7560  -26.6260   -1.7100 O.co2 154  ASP154     -0.2456
    152  OD2       22.0790  -26.5340    0.3750 O.co2 154  ASP154     -0.2456
@<TRIPOS>BOND
     1    69    67   ar
     2    67    66    1
     3    67    68   ar
     4    66    65    1
     5    48    47    2
     6    47    46    1
     7    61    55   am
     8    61    62    1
     9    53    54    1
    10    54    55    1
    11    54    57    1
    12    65    62    1
    13    60    58    1
    14    55    56    2
    15    62    63    1
    16    46    45    1
    17    46    49    1
    18    58    57    1
    19    58    59    1
    20    51    49    1
    21    63    70   am
    22    63    64    2
    23    49    50    1
    24    34    33    2
    25    70    71    1
    26    50    52    1
    27    39    38    2
    28    31    32    1
    29    33    32    1
    30    73    72    2
    31    36    37    1
    32    71    72    1
    33    71    74    1
    34    72    81   am
    35    38    37    1
    36    40    37    1
    37    40    41    1
    38    32    35    1
    39   140   139    2
    40    74    75    1
    41    81    82    1
    42    81    87    1
    43    42    41    1
    44    42    43    1
    45   147   148    2
    46   147   146    1
    47    82    85    1
    48    82    83    1
    49   139   138    1
    50   139   145   am
    51   138   137    1
    52   138   141    1
    53    87    86    1
    54    43    44    1
    55    86    85    1
    56   146   145    1
    57   146   149    1
    58   143   141    1
    59    80    78    1
    60    75    76    1
    61   141   142    1
    62   151   150   ar
    63    77    78    2
    64    77    76    1
    65    83    84    2
    66    78    79    1
    67   149   150    1
    68   150   152   ar
    69    16    15    2
    70   142   144    1
    71   135   134    1
    72    29    28    1
    73    30    28    1
    74   132   131    2
    75   133   134    1
    76   133   130    1
    77   134   136    1
    78    15    14    1
    79    28    25    1
    80    25    26    1
    81    25    24    1
    82    17    14    1
    83    17    18    1
    84    14    13    1
    85   129   130    1
    86    26    27    2
    87   131   130    1
    88     7     6    1
    89    20    18   ar
    90    20    22   ar
    91    94    92    1
    92    92    93    1
    93    92    89    1
    94    18    19   ar
    95    22    23   ar
    96     6     5    1
    97     6     8    1
    98    89    88    1
    99    89    90    1
   100    19    21   ar
   101     5     2    1
   102    23    21   ar
   103   123   122    2
   104    90    95   am
   105    90    91    2
   106    12    11    2
   107     1     2    1
   108   122   121    1
   109    95    96    1
   110     2     3    1
   111    98    97    2
   112     9     3   am
   113     9    10    1
   114    11    10    1
   115     3     4    2
   116    97    96    1
   117    97   104   am
   118   108   105    1
   119   108   109    1
   120   105   104    1
   121   105   106    1
   122    96    99    1
   123   121   120    1
   124   121   124    1
   125   106   107    2
   126   124   125    1
   127   109   111   ar
   128   109   110   ar
   129   125   126    1
   130    99   100    1
   131   127   126   ar
   132   126   128   ar
   133   100   101    1
   134   102   101    2
   135   101   103   am
   136   119   117   ar
   137   112   113    1
   138   117   116    1
   139   117   118   ar
   140   116   113    1
   141   113   114    1
   142   114   115    2
