@<TRIPOS>MOLECULE
tmp/4rc3A00.pdb
 159 148 0 0 0
SMALL
GASTEIGER

@<TRIPOS>ATOM
      1  N        -17.1460  -38.8050   -5.6100 N.3    12  LEU12      -0.1231
      2  CA       -18.5440  -38.5080   -5.9390 C.3    12  LEU12       0.1693
      3  C        -18.7430  -37.2220   -6.7090 C.2    12  LEU12       0.2593
      4  O        -19.5110  -37.1820   -7.6280 O.2    12  LEU12      -0.2718
      5  CB       -19.3870  -38.4110   -4.6790 C.3    12  LEU12       0.0284
      6  CG       -19.4460  -39.7050   -3.8870 C.3    12  LEU12       0.0019
      7  CD1      -20.2970  -39.5160   -2.6380 C.3    12  LEU12       0.0001
      8  CD2      -19.9680  -40.8780   -4.7110 C.3    12  LEU12       0.0001
      9  N        -18.1150  -36.1370   -6.2970 N.am   13  GLY13      -0.1942
     10  CA       -18.1710  -34.8880   -7.0720 C.3    13  GLY13       0.2014
     11  C        -17.1080  -33.8830   -6.6470 C.2    13  GLY13       0.2639
     12  O        -16.3810  -34.1040   -5.6760 O.2    13  GLY13      -0.2714
     13  N        -17.0210  -32.7850   -7.3860 N.am   14  SER14      -0.1949
     14  CA       -16.2510  -31.6560   -6.9610 C.3    14  SER14       0.1924
     15  C        -16.7710  -30.3870   -7.5850 C.2    14  SER14       0.2314
     16  O        -17.6020  -30.4480   -8.4910 O.2    14  SER14      -0.2863
     17  CB       -14.7550  -31.8720   -7.2650 C.3    14  SER14       0.2116
     18  OG       -14.5310  -32.1700   -8.6330 O.3    14  SER14      -0.2180
     19  N        -17.1950  -25.7340   -3.4700 N.3    16  PHE16      -0.1241
     20  CA       -17.4140  -26.5900   -2.2680 C.3    16  PHE16       0.1605
     21  C        -16.3840  -27.7330   -1.9500 C.2    16  PHE16       0.2264
     22  O        -16.5150  -28.3890   -0.9090 O.2    16  PHE16      -0.2867
     23  CB       -18.8430  -27.1890   -2.2650 C.3    16  PHE16       0.0534
     24  CG       -19.0480  -28.3480   -3.2360 C.ar   16  PHE16      -0.0203
     25  CD1      -18.6020  -29.6580   -2.9140 C.ar   16  PHE16      -0.0042
     26  CD2      -19.7070  -28.1390   -4.4800 C.ar   16  PHE16      -0.0042
     27  CE1      -18.7620  -30.7080   -3.8080 C.ar   16  PHE16      -0.0003
     28  CE2      -19.8780  -29.1990   -5.3760 C.ar   16  PHE16      -0.0003
     29  CZ       -19.4030  -30.4840   -5.0340 C.ar   16  PHE16      -0.0000
     30  N        -15.6950  -34.5660   -2.9040 N.3    19  VAL19      -0.1245
     31  CA       -16.4210  -35.4340   -1.9980 C.3    19  VAL19       0.1561
     32  C        -16.2380  -36.8340   -2.4700 C.2    19  VAL19       0.2260
     33  O        -16.4870  -37.0870   -3.6130 O.2    19  VAL19      -0.2867
     34  CB       -17.9560  -35.1260   -2.0240 C.3    19  VAL19       0.0252
     35  CG1      -18.7140  -35.9490   -1.0120 C.3    19  VAL19       0.0019
     36  CG2      -18.2130  -33.6650   -1.7320 C.3    19  VAL19       0.0019
     37  N        -19.8720  -40.1190    3.1450 N.3    32  ALA32      -0.1245
     38  CA       -19.3570  -39.2630    2.1000 C.3    32  ALA32       0.1562
     39  C        -18.3300  -38.4990    2.8310 C.2    32  ALA32       0.2260
     40  O        -18.5460  -38.1250    3.9980 O.2    32  ALA32      -0.2867
     41  CB       -20.4520  -38.3280    1.5290 C.3    32  ALA32       0.0290
     42  N        -15.6490  -35.3560    2.5830 N.3    34  LYS34      -0.1245
     43  CA       -15.5950  -34.1160    1.9070 C.3    34  LYS34       0.1561
     44  C        -14.4380  -33.2960    2.3470 C.2    34  LYS34       0.2260
     45  O        -14.3430  -32.9080    3.4950 O.2    34  LYS34      -0.2867
     46  CB       -16.8820  -33.3390    2.2040 C.3    34  LYS34       0.0271
     47  CG       -16.8940  -31.9630    1.5920 C.3    34  LYS34       0.0035
     48  CD       -18.1860  -31.2330    1.9740 C.3    34  LYS34       0.0206
     49  CE       -18.3490  -29.9090    1.2210 C.3    34  LYS34       0.1093
     50  NZ       -19.7780  -29.4970    1.1110 N.3    34  LYS34      -0.1314
     51  N        -28.6490  -34.0630    5.1840 N.3    71  ILE71      -0.1245
     52  CA       -27.5240  -34.9380    5.3670 C.3    71  ILE71       0.1561
     53  C        -26.7000  -34.4530    6.5700 C.2    71  ILE71       0.2260
     54  O        -26.2560  -33.2770    6.6230 O.2    71  ILE71      -0.2867
     55  CB       -26.6870  -35.0490    4.0910 C.3    71  ILE71       0.0252
     56  CG1      -27.3350  -36.1180    3.2090 C.3    71  ILE71       0.0019
     57  CG2      -25.2290  -35.3600    4.4480 C.3    71  ILE71       0.0019
     58  CD1      -26.3990  -36.9420    2.3850 C.3    71  ILE71       0.0001
     59  N        -19.8920  -37.3520    6.2950 N.3    87  LEU87      -0.1231
     60  CA       -21.3080  -37.1330    6.2030 C.3    87  LEU87       0.1693
     61  C        -22.0330  -38.4470    5.9930 C.2    87  LEU87       0.2592
     62  O        -21.4590  -39.4400    5.5060 O.2    87  LEU87      -0.2718
     63  CB       -21.5960  -36.1590    5.0510 C.3    87  LEU87       0.0284
     64  CG       -20.7840  -34.8820    5.1810 C.3    87  LEU87       0.0019
     65  CD1      -20.7870  -34.1510    3.8890 C.3    87  LEU87       0.0001
     66  CD2      -21.3930  -34.0090    6.2610 C.3    87  LEU87       0.0001
     67  N        -23.3050  -38.4670    6.3640 N.am   88  GLU88      -0.1966
     68  CA       -24.1430  -39.5980    5.9420 C.3    88  GLU88       0.1733
     69  C        -24.0520  -39.7840    4.4630 C.2    88  GLU88       0.2616
     70  O        -23.8520  -38.8180    3.7270 O.2    88  GLU88      -0.2715
     71  CB       -25.6100  -39.3270    6.1680 C.3    88  GLU88       0.0429
     72  CG       -26.1430  -39.5430    7.5540 C.3    88  GLU88       0.1163
     73  CD       -27.6210  -39.2420    7.5050 C.2    88  GLU88       0.3649
     74  OE1      -27.9770  -38.0500    7.3070 O.co2  88  GLU88      -0.2457
     75  OE2      -28.4040  -40.2060    7.5570 O.co2  88  GLU88      -0.2457
     76  N        -24.2680  -41.0160    4.0250 N.am   89  ARG89      -0.1964
     77  CA       -24.4700  -41.3020    2.6230 C.3    89  ARG89       0.1714
     78  C        -25.5620  -42.3480    2.3910 C.2    89  ARG89       0.2458
     79  O        -25.3440  -43.5480    2.5570 O.2    89  ARG89      -0.2730
     80  CB       -23.1880  -41.7870    1.9740 C.3    89  ARG89       0.0347
     81  CG       -23.4270  -42.3270    0.5690 C.3    89  ARG89       0.0492
     82  CD       -22.1070  -42.5010   -0.1520 C.3    89  ARG89       0.2205
     83  NE       -21.1650  -43.4470    0.4830 N.pl3  89  ARG89      -0.0865
     84  CZ       -21.1770  -44.7720    0.2860 C.cat  89  ARG89       0.5346
     85  NH1      -22.1090  -45.3200   -0.4790 N.pl3  89  ARG89       0.1354
     86  NH2      -20.2760  -45.5550    0.8720 N.pl3  89  ARG89       0.1354
     87  N        -26.7420  -41.9060    1.9770 N.am   90  PRO90      -0.2727
     88  CA       -27.7490  -42.9050    1.6520 C.3    90  PRO90       0.1402
     89  C        -27.3570  -43.6380    0.3970 C.2    90  PRO90       0.2269
     90  O        -26.5350  -43.1810   -0.3880 O.2    90  PRO90      -0.2865
     91  CB       -28.9920  -42.0800    1.3730 C.3    90  PRO90       0.0296
     92  CG       -28.4960  -40.7290    0.9520 C.3    90  PRO90       0.0237
     93  CD       -27.1260  -40.5380    1.5590 C.3    90  PRO90       0.0939
     94  N        -28.7440  -43.3010   -4.3170 N.3    93  VAL93      -0.1231
     95  CA       -28.9700  -41.9140   -4.2270 C.3    93  VAL93       0.1692
     96  C        -28.6960  -41.2960   -5.5880 C.2    93  VAL93       0.2592
     97  O        -27.8410  -41.7520   -6.3190 O.2    93  VAL93      -0.2718
     98  CB       -28.0400  -41.3140   -3.1760 C.3    93  VAL93       0.0266
     99  CG1      -26.5990  -41.3290   -3.6660 C.3    93  VAL93       0.0020
    100  CG2      -28.4700  -39.9110   -2.8700 C.3    93  VAL93       0.0020
    101  N        -29.4600  -40.2750   -5.9330 N.am   94  GLN94      -0.1966
    102  CA       -29.2130  -39.5080   -7.1110 C.3    94  GLN94       0.1733
    103  C        -29.5960  -38.0810   -6.7560 C.2    94  GLN94       0.2616
    104  O        -30.6080  -37.8710   -6.1070 O.2    94  GLN94      -0.2715
    105  CB       -30.1180  -40.0320   -8.2350 C.3    94  GLN94       0.0408
    106  CG       -29.9340  -39.2920   -9.5610 C.3    94  GLN94       0.0908
    107  CD       -30.7990  -39.8650  -10.6850 C.2    94  GLN94       0.2608
    108  OE1      -31.8670  -40.3500  -10.4540 O.2    94  GLN94      -0.2717
    109  NE2      -30.3310  -39.7640  -11.9030 N.am   94  GLN94      -0.0878
    110  N        -28.8060  -37.1060   -7.1690 N.am   95  ASP95      -0.1971
    111  CA       -29.1470  -35.7380   -6.9630 C.3    95  ASP95       0.1709
    112  C        -30.2480  -35.3440   -7.8790 C.2    95  ASP95       0.2293
    113  O        -30.4360  -35.9290   -8.9290 O.2    95  ASP95      -0.2864
    114  CB       -27.9280  -34.7910   -6.9420 C.3    95  ASP95       0.1436
    115  CG       -27.4140  -34.4260   -8.3050 C.2    95  ASP95       0.3671
    116  OD1      -28.1980  -34.0650   -9.1960 O.co2  95  ASP95      -0.2456
    117  OD2      -26.1880  -34.4590   -8.4750 O.co2  95  ASP95      -0.2456
    118  N        -29.7310  -34.2380  -11.6310 N.3    98  ASP98      -0.1239
    119  CA       -29.4490  -35.3110  -12.5820 C.3    98  ASP98       0.1674
    120  C        -30.7010  -36.0940  -12.7550 C.2    98  ASP98       0.2266
    121  O        -31.0020  -36.5340  -13.8450 O.2    98  ASP98      -0.2867
    122  CB       -28.3060  -36.2340  -12.0710 C.3    98  ASP98       0.1410
    123  CG       -26.9290  -35.5460  -12.1180 C.2    98  ASP98       0.3668
    124  OD1      -26.6760  -34.8130  -13.1160 O.co2  98  ASP98      -0.2456
    125  OD2      -26.0920  -35.7160  -11.1770 O.co2  98  ASP98      -0.2456
    126  N        -32.2530  -36.4310  -16.3920 N.3   102  GLU102     -0.1245
    127  CA       -32.6030  -37.7330  -16.9850 C.3   102  GLU102      0.1567
    128  C        -34.0740  -37.8630  -17.3260 C.2   102  GLU102      0.2260
    129  O        -34.4100  -38.2450  -18.4430 O.2   102  GLU102     -0.2867
    130  CB       -32.2290  -38.8690  -16.0650 C.3   102  GLU102      0.0388
    131  CG       -30.7190  -39.1560  -16.0270 C.3   102  GLU102      0.1160
    132  CD       -30.3830  -40.5130  -15.3610 C.2   102  GLU102      0.3649
    133  OE1      -31.2800  -41.1860  -14.7770 O.co2 102  GLU102     -0.2457
    134  OE2      -29.2000  -40.9120  -15.4060 O.co2 102  GLU102     -0.2457
    135  N        -29.3400  -29.2410   -7.4160 N.3   138  GLU138     -0.1245
    136  CA       -28.0740  -29.9550   -7.1500 C.3   138  GLU138      0.1567
    137  C        -27.6310  -30.0110   -5.6980 C.2   138  GLU138      0.2260
    138  O        -26.6950  -30.7480   -5.3580 O.2   138  GLU138     -0.2867
    139  CB       -26.9390  -29.5040   -8.0710 C.3   138  GLU138      0.0388
    140  CG       -26.6420  -28.0380   -8.1920 C.3   138  GLU138      0.1160
    141  CD       -26.0680  -27.6770   -9.5520 C.2   138  GLU138      0.3649
    142  OE1      -24.9960  -27.0570   -9.6140 O.co2 138  GLU138     -0.2457
    143  OE2      -26.7240  -27.9910  -10.5470 O.co2 138  GLU138     -0.2457
    144  N        -30.5170  -34.3830   -2.5400 N.3   141  LEU141     -0.1245
    145  CA       -30.3260  -35.7600   -2.8990 C.3   141  LEU141      0.1561
    146  C        -31.5750  -36.5380   -2.7010 C.2   141  LEU141      0.2260
    147  O        -32.3420  -36.2810   -1.7650 O.2   141  LEU141     -0.2867
    148  CB       -29.2630  -36.3930   -2.0000 C.3   141  LEU141      0.0270
    149  CG       -27.8720  -35.7790   -2.1330 C.3   141  LEU141      0.0019
    150  CD1      -26.9270  -36.3680   -1.0730 C.3   141  LEU141      0.0001
    151  CD2      -27.3180  -35.9600   -3.5520 C.3   141  LEU141      0.0001
    152  N        -28.0840  -30.8060    0.9050 N.3   152  ILE152     -0.1245
    153  CA       -26.6530  -30.9230    1.1780 C.3   152  ILE152      0.1561
    154  C        -25.6590  -29.8020    1.3090 C.2   152  ILE152      0.2260
    155  O        -24.7450  -29.9420    2.1390 O.2   152  ILE152     -0.2867
    156  CB       -25.9010  -31.9300    0.2380 C.3   152  ILE152      0.0252
    157  CG1      -26.2550  -31.7140   -1.2420 C.3   152  ILE152      0.0019
    158  CG2      -26.1620  -33.3460    0.7090 C.3   152  ILE152      0.0019
    159  CD1      -25.3690  -32.5180   -2.2230 C.3   152  ILE152      0.0001
@<TRIPOS>BOND
     1   129   128    2
     2   128   127    1
     3   127   126    1
     4   127   130    1
     5   130   131    1
     6   131   132    1
     7   134   132   ar
     8   132   133   ar
     9   121   120    2
    10   124   123   ar
    11   120   119    1
    12   119   122    1
    13   119   118    1
    14   123   122    1
    15   123   125   ar
    16   109   107   am
    17   107   108    2
    18   107   106    1
    19   143   141   ar
    20   142   141   ar
    21   106   105    1
    22   141   140    1
    23   116   115   ar
    24   113   112    2
    25    18    17    1
    26    16    15    2
    27   117   115   ar
    28   115   114    1
    29   105   102    1
    30   140   139    1
    31   139   136    1
    32   112   111    1
    33     4     3    2
    34    15    14    1
    35   135   136    1
    36    13    14    1
    37    13    11   am
    38    17    14    1
    39   110   111    1
    40   110   103   am
    41   136   137    1
    42   102   103    1
    43   102   101    1
    44    10    11    1
    45    10     9    1
    46   111   114    1
    47   103   104    2
    48     3     9   am
    49     3     2    1
    50    11    12    2
    51    97    96    2
    52     2     1    1
    53     2     5    1
    54   101    96   am
    55   137   138    2
    56    96    95    1
    57    28    29   ar
    58    28    26   ar
    59    29    27   ar
    60     8     6    1
    61     5     6    1
    62    26    24   ar
    63    94    95    1
    64    95    98    1
    65     6     7    1
    66    27    25   ar
    67    99    98    1
    68    33    32    2
    69   151   149    1
    70    19    20    1
    71    24    25   ar
    72    24    23    1
    73    98   100    1
    74    30    31    1
    75   145   146    1
    76   145   144    1
    77   145   148    1
    78   146   147    2
    79    32    31    1
    80    20    23    1
    81    20    21    1
    82   159   157    1
    83   149   148    1
    84   149   150    1
    85    34    31    1
    86    34    36    1
    87    34    35    1
    88    21    22    2
    89   157   156    1
    90    85    84    1
    91    90    89    2
    92    82    83    1
    93    82    81    1
    94   156   158    1
    95   156   153    1
    96    84    83    2
    97    84    86    1
    98    89    88    1
    99    81    80    1
   100   152   153    1
   101    92    91    1
   102    92    93    1
   103    50    49    1
   104   153   154    1
   105    49    48    1
   106   154   155    2
   107    91    88    1
   108    41    38    1
   109    93    87    1
   110    47    48    1
   111    47    46    1
   112    88    87    1
   113    43    46    1
   114    43    44    1
   115    43    42    1
   116    80    77    1
   117    87    78   am
   118    38    39    1
   119    38    37    1
   120    44    45    2
   121    58    56    1
   122    78    79    2
   123    78    77    1
   124    77    76    1
   125    39    40    2
   126    56    55    1
   127    70    69    2
   128    65    64    1
   129    76    69   am
   130    55    57    1
   131    55    52    1
   132    69    68    1
   133    63    64    1
   134    63    60    1
   135    64    66    1
   136    51    52    1
   137    52    53    1
   138    62    61    2
   139    68    71    1
   140    68    67    1
   141    61    60    1
   142    61    67   am
   143    71    72    1
   144    60    59    1
   145    53    54    2
   146    74    73   ar
   147    73    72    1
   148    73    75   ar
