@<TRIPOS>MOLECULE
tmp/4rc4A00.pdb
 169 158 0 0 0
SMALL
GASTEIGER

@<TRIPOS>ATOM
      1  N        -31.8600  123.4600   -3.8670 N.3    12  LEU12      -0.1231
      2  CA       -30.4730  123.1150   -4.2530 C.3    12  LEU12       0.1693
      3  C        -30.3610  121.8180   -5.0470 C.2    12  LEU12       0.2592
      4  O        -29.7390  121.7940   -6.0750 O.2    12  LEU12      -0.2718
      5  CB       -29.5720  123.0620   -3.0510 C.3    12  LEU12       0.0284
      6  CG       -29.3760  124.4460   -2.4310 C.3    12  LEU12       0.0019
      7  CD1      -28.6600  124.3210   -1.0930 C.3    12  LEU12       0.0001
      8  CD2      -28.6070  125.3610   -3.3650 C.3    12  LEU12       0.0001
      9  N        -30.9740  120.7340   -4.6180 N.am   13  GLY13      -0.1957
     10  CA       -31.0660  119.5640   -5.5000 C.3    13  GLY13       0.1869
     11  C        -32.0610  118.5480   -4.9830 C.2    13  GLY13       0.2309
     12  O        -32.6880  118.7580   -3.9200 O.2    13  GLY13      -0.2863
     13  N        -31.5560  110.7650   -1.8530 N.3    17  PHE17      -0.1241
     14  CA       -31.4870  111.4510   -0.5820 C.3    17  PHE17       0.1605
     15  C        -32.6320  112.4620   -0.2240 C.2    17  PHE17       0.2264
     16  O        -32.6650  113.0200    0.9010 O.2    17  PHE17      -0.2867
     17  CB       -30.1540  112.2040   -0.5660 C.3    17  PHE17       0.0534
     18  CG       -30.0580  113.3150   -1.6050 C.ar   17  PHE17      -0.0203
     19  CD1      -30.5430  114.6070   -1.3090 C.ar   17  PHE17      -0.0042
     20  CD2      -29.4980  113.0750   -2.8950 C.ar   17  PHE17      -0.0042
     21  CE1      -30.4880  115.6300   -2.2630 C.ar   17  PHE17      -0.0003
     22  CE2      -29.4450  114.0970   -3.8520 C.ar   17  PHE17      -0.0003
     23  CZ       -29.9310  115.3860   -3.5280 C.ar   17  PHE17      -0.0000
     24  N        -33.2890  119.2460   -1.0630 N.3    20  VAL20      -0.1245
     25  CA       -32.5580  120.1460   -0.2160 C.3    20  VAL20       0.1561
     26  C        -32.7820  121.5370   -0.7350 C.2    20  VAL20       0.2260
     27  O        -32.6200  121.7520   -1.9300 O.2    20  VAL20      -0.2867
     28  CB       -31.0250  119.8560   -0.2830 C.3    20  VAL20       0.0252
     29  CG1      -30.2180  120.8260    0.5800 C.3    20  VAL20       0.0019
     30  CG2      -30.7080  118.4130    0.1150 C.3    20  VAL20       0.0019
     31  N        -29.0620  124.9180    4.9250 N.3    33  ALA33      -0.1245
     32  CA       -29.6200  124.0480    3.9060 C.3    33  ALA33       0.1562
     33  C        -30.6830  123.2950    4.6180 C.2    33  ALA33       0.2260
     34  O        -30.5150  122.9540    5.7700 O.2    33  ALA33      -0.2867
     35  CB       -28.5600  123.1140    3.3080 C.3    33  ALA33       0.0290
     36  N        -33.0790  120.0430    4.4540 N.3    35  LYS35      -0.1245
     37  CA       -33.1240  118.7680    3.7840 C.3    35  LYS35       0.1561
     38  C        -34.3780  118.0060    4.1800 C.2    35  LYS35       0.2260
     39  O        -34.5760  117.6750    5.3300 O.2    35  LYS35      -0.2867
     40  CB       -31.8650  117.9760    4.1250 C.3    35  LYS35       0.0271
     41  CG       -31.8110  116.6180    3.4550 C.3    35  LYS35       0.0035
     42  CD       -30.4640  115.9410    3.6660 C.3    35  LYS35       0.0206
     43  CE       -30.3830  114.6020    2.9310 C.3    35  LYS35       0.1093
     44  NZ       -28.9920  114.0560    2.9060 N.3    35  LYS35      -0.1314
     45  N        -20.2060  118.8580    7.3280 N.3    72  ILE72      -0.1245
     46  CA       -21.2720  119.8050    7.4510 C.3    72  ILE72       0.1561
     47  C        -22.1860  119.3680    8.5750 C.2    72  ILE72       0.2260
     48  O        -22.6600  118.2110    8.5950 O.2    72  ILE72      -0.2867
     49  CB       -22.0090  120.0360    6.1190 C.3    72  ILE72       0.0252
     50  CG1      -21.4400  121.3150    5.5220 C.3    72  ILE72       0.0019
     51  CG2      -23.5060  120.2280    6.3140 C.3    72  ILE72       0.0019
     52  CD1      -21.8230  121.5780    4.1110 C.3    72  ILE72       0.0001
     53  N        -29.0320  122.1970    8.0350 N.3    88  LEU88      -0.1231
     54  CA       -27.5740  122.0390    7.9520 C.3    88  LEU88       0.1693
     55  C        -26.8690  123.3630    7.6930 C.2    88  LEU88       0.2592
     56  O        -27.4720  124.3030    7.2220 O.2    88  LEU88      -0.2718
     57  CB       -27.2560  121.0920    6.8040 C.3    88  LEU88       0.0284
     58  CG       -27.9330  119.7420    6.9940 C.3    88  LEU88       0.0019
     59  CD1      -28.2190  119.1150    5.6590 C.3    88  LEU88       0.0001
     60  CD2      -27.0230  118.8370    7.7970 C.3    88  LEU88       0.0001
     61  N        -25.5790  123.4430    8.0060 N.am   89  GLU89      -0.1966
     62  CA       -24.7670  124.5690    7.5200 C.3    89  GLU89       0.1733
     63  C        -24.8570  124.6900    6.0140 C.2    89  GLU89       0.2616
     64  O        -24.9860  123.6900    5.2970 O.2    89  GLU89      -0.2715
     65  CB       -23.2930  124.3690    7.7820 C.3    89  GLU89       0.0429
     66  CG       -22.8530  124.2150    9.2110 C.3    89  GLU89       0.1163
     67  CD       -21.3450  124.1660    9.2490 C.2    89  GLU89       0.3649
     68  OE1      -20.7810  123.0740    8.9830 O.co2  89  GLU89      -0.2457
     69  OE2      -20.7330  125.2370    9.4720 O.co2  89  GLU89      -0.2457
     70  N        -24.7400  125.9180    5.5480 N.am   90  ARG90      -0.1964
     71  CA       -24.5490  126.2160    4.1340 C.3    90  ARG90       0.1714
     72  C        -23.4820  127.2670    3.9570 C.2    90  ARG90       0.2458
     73  O        -23.6950  128.4270    4.2990 O.2    90  ARG90      -0.2730
     74  CB       -25.8120  126.7330    3.4930 C.3    90  ARG90       0.0347
     75  CG       -25.6270  127.0210    2.0180 C.3    90  ARG90       0.0492
     76  CD       -26.9660  127.2620    1.3550 C.3    90  ARG90       0.2205
     77  NE       -27.7880  128.2800    2.0390 N.pl3  90  ARG90      -0.0865
     78  CZ       -27.7510  129.5940    1.8060 C.cat  90  ARG90       0.5346
     79  NH1      -26.8990  130.1080    0.9470 N.pl3  90  ARG90       0.1354
     80  NH2      -28.5460  130.4090    2.4790 N.pl3  90  ARG90       0.1354
     81  N        -22.3140  126.8540    3.4530 N.am   91  PRO91      -0.2727
     82  CA       -21.2890  127.8230    3.1010 C.3    91  PRO91       0.1402
     83  C        -21.7600  128.6560    1.9530 C.2    91  PRO91       0.2269
     84  O        -22.6580  128.2680    1.1860 O.2    91  PRO91      -0.2865
     85  CB       -20.0990  126.9710    2.6570 C.3    91  PRO91       0.0296
     86  CG       -20.3780  125.5920    3.1570 C.3    91  PRO91       0.0237
     87  CD       -21.8560  125.4550    3.3280 C.3    91  PRO91       0.0939
     88  N        -20.4480  128.3570   -2.4710 N.3    94  VAL94      -0.1231
     89  CA       -20.1420  126.9490   -2.3610 C.3    94  VAL94       0.1692
     90  C        -20.2240  126.2860   -3.7240 C.2    94  VAL94       0.2592
     91  O        -20.8960  126.7830   -4.5920 O.2    94  VAL94      -0.2718
     92  CB       -21.1430  126.2940   -1.4010 C.3    94  VAL94       0.0266
     93  CG1      -22.4940  126.1490   -2.0660 C.3    94  VAL94       0.0020
     94  CG2      -20.6280  124.9460   -0.9450 C.3    94  VAL94       0.0020
     95  N        -19.5480  125.1600   -3.9180 N.am   95  GLN95      -0.1966
     96  CA       -19.7350  124.3720   -5.1370 C.3    95  GLN95       0.1733
     97  C        -19.3250  122.9720   -4.8360 C.2    95  GLN95       0.2616
     98  O        -18.3370  122.7410   -4.1250 O.2    95  GLN95      -0.2715
     99  CB       -18.9020  124.9350   -6.3110 C.3    95  GLN95       0.0408
    100  CG       -19.2060  124.2330   -7.6420 C.3    95  GLN95       0.0908
    101  CD       -18.4010  124.7180   -8.8240 C.2    95  GLN95       0.2608
    102  OE1      -17.2510  125.1130   -8.7190 O.2    95  GLN95      -0.2717
    103  NE2      -18.9970  124.6360   -9.9760 N.am   95  GLN95      -0.0878
    104  N        -20.0670  122.0090   -5.3500 N.am   96  ASP96      -0.1971
    105  CA       -19.7490  120.6330   -5.0160 C.3    96  ASP96       0.1709
    106  C        -18.6500  120.2040   -5.9610 C.2    96  ASP96       0.2293
    107  O        -18.4430  120.8280   -7.0090 O.2    96  ASP96      -0.2864
    108  CB       -20.9860  119.7270   -5.0020 C.3    96  ASP96       0.1436
    109  CG       -21.4780  119.3900   -6.3640 C.2    96  ASP96       0.3671
    110  OD1      -20.6760  119.3920   -7.3240 O.co2  96  ASP96      -0.2456
    111  OD2      -22.6810  119.1000   -6.4850 O.co2  96  ASP96      -0.2456
    112  N        -19.3830  119.3150   -9.7010 N.3    99  ASP99      -0.1239
    113  CA       -19.5290  120.4390  -10.6440 C.3    99  ASP99       0.1674
    114  C        -18.2140  121.0860  -10.8710 C.2    99  ASP99       0.2266
    115  O        -17.9100  121.4900  -11.9740 O.2    99  ASP99      -0.2867
    116  CB       -20.5470  121.4830  -10.1530 C.3    99  ASP99       0.1410
    117  CG       -21.9480  120.8980  -10.0360 C.2    99  ASP99       0.3668
    118  OD1      -22.2660  119.9230  -10.7460 O.co2  99  ASP99      -0.2456
    119  OD2      -22.7240  121.3590   -9.2080 O.co2  99  ASP99      -0.2456
    120  N        -17.6480  110.4720   -2.4030 N.3   137  LYS137     -0.1245
    121  CA       -17.5360  110.6590   -3.8430 C.3   137  LYS137      0.1561
    122  C        -17.6360  112.1760   -4.1710 C.2   137  LYS137      0.2260
    123  O        -17.9490  112.9690   -3.3050 O.2   137  LYS137     -0.2867
    124  CB       -18.6270  109.8900   -4.5670 C.3   137  LYS137      0.0271
    125  CG       -20.0540  110.2290   -4.1490 C.3   137  LYS137      0.0035
    126  CD       -21.0290  109.7400   -5.1960 C.3   137  LYS137      0.0206
    127  CE       -22.4420  109.9270   -4.7090 C.3   137  LYS137      0.1093
    128  NZ       -23.4440  109.6300   -5.7620 N.3   137  LYS137     -0.1314
    129  N        -19.6960  114.2000   -5.5270 N.3   139  GLU139     -0.1231
    130  CA       -20.9010  114.9520   -5.2880 C.3   139  GLU139      0.1699
    131  C        -21.3450  114.9240   -3.8490 C.2   139  GLU139      0.2592
    132  O        -22.3840  115.4460   -3.5240 O.2   139  GLU139     -0.2718
    133  CB       -22.0200  114.5450   -6.2680 C.3   139  GLU139      0.0402
    134  CG       -22.4550  113.1140   -6.2620 C.3   139  GLU139      0.1161
    135  CD       -23.3120  112.7860   -7.4630 C.2   139  GLU139      0.3649
    136  OE1      -24.5320  112.9600   -7.3790 O.co2 139  GLU139     -0.2457
    137  OE2      -22.7760  112.3760   -8.4900 O.co2 139  GLU139     -0.2457
    138  N        -20.5440  114.3380   -2.9720 N.am  140  ASN140     -0.1974
    139  CA       -20.8200  114.4180   -1.5390 C.3   140  ASN140      0.1688
    140  C        -19.7990  115.2620   -0.8290 C.2   140  ASN140      0.2292
    141  O        -19.7210  115.2630    0.3980 O.2   140  ASN140     -0.2864
    142  CB       -20.9780  113.0180   -0.9550 C.3   140  ASN140      0.1181
    143  CG       -22.3510  112.4170   -1.2730 C.2   140  ASN140      0.2629
    144  OD1      -23.3010  113.1540   -1.4660 O.2   140  ASN140     -0.2716
    145  ND2      -22.4620  111.1020   -1.3110 N.am  140  ASN140     -0.0877
    146  N        -18.6140  119.3060   -0.5900 N.3   142  LEU142     -0.1245
    147  CA       -18.7760  120.7060   -0.9190 C.3   142  LEU142      0.1561
    148  C        -17.4760  121.4510   -0.7770 C.2   142  LEU142      0.2260
    149  O        -16.7040  121.1720    0.1080 O.2   142  LEU142     -0.2867
    150  CB       -19.8150  121.3780   -0.0160 C.3   142  LEU142      0.0270
    151  CG       -21.1870  120.7650   -0.1960 C.3   142  LEU142      0.0019
    152  CD1      -22.1970  121.5240    0.6470 C.3   142  LEU142      0.0001
    153  CD2      -21.5750  120.7640   -1.6710 C.3   142  LEU142      0.0001
    154  N        -20.9000  115.7780    2.8870 N.3   153  ILE153     -0.1231
    155  CA       -22.3070  116.0000    3.1320 C.3   153  ILE153      0.1692
    156  C        -23.3270  114.8990    3.2630 C.2   153  ILE153      0.2592
    157  O        -24.3280  115.1010    3.9480 O.2   153  ILE153     -0.2718
    158  CB       -22.9520  117.0380    2.1800 C.3   153  ILE153      0.0266
    159  CG1      -22.6300  116.7300    0.7250 C.3   153  ILE153      0.0019
    160  CG2      -22.5440  118.4340    2.5900 C.3   153  ILE153      0.0020
    161  CD1      -23.5470  117.4460   -0.2430 C.3   153  ILE153      0.0001
    162  N        -23.2620  113.7940    2.6040 N.am  154  ASP154     -0.1974
    163  CA       -24.5720  113.0710    2.6740 C.3   154  ASP154      0.1709
    164  C        -24.4450  111.7800    3.4540 C.2   154  ASP154      0.2293
    165  O        -23.8970  110.7900    2.9420 O.2   154  ASP154     -0.2864
    166  CB       -25.1100  112.8520    1.2670 C.3   154  ASP154      0.1436
    167  CG       -26.4460  112.1520    1.2130 C.2   154  ASP154      0.3671
    168  OD1      -26.9460  111.4990    2.1510 O.co2 154  ASP154     -0.2456
    169  OD2      -26.9920  112.2380    0.1210 O.co2 154  ASP154     -0.2456
@<TRIPOS>BOND
     1   115   114    2
     2   114   113    1
     3   118   117   ar
     4   113   116    1
     5   113   112    1
     6   116   117    1
     7   117   119   ar
     8   103   101   am
     9   101   102    2
    10   101   100    1
    11   137   135   ar
    12   100    99    1
    13   135   136   ar
    14   135   134    1
    15   110   109   ar
    16   107   106    2
    17   111   109   ar
    18   109   108    1
    19    99    96    1
    20   133   134    1
    21   133   130    1
    22     4     3    2
    23   106   105    1
    24   128   127    1
    25   129   130    1
    26    10    11    1
    27    10     9    1
    28   104   105    1
    29   104    97   am
    30   130   131    1
    31   126   127    1
    32   126   125    1
    33    96    97    1
    34    96    95    1
    35     3     9   am
    36     3     2    1
    37   105   108    1
    38    11    12    2
    39    97    98    2
    40    91    90    2
    41   124   125    1
    42   124   121    1
    43     2     1    1
    44     2     5    1
    45   122   121    1
    46   122   123    2
    47    95    90   am
    48    22    23   ar
    49    22    20   ar
    50   131   132    2
    51   131   138   am
    52   121   120    1
    53    90    89    1
    54    23    21   ar
    55     8     6    1
    56     5     6    1
    57   138   139    1
    58    20    18   ar
    59    88    89    1
    60     6     7    1
    61    89    92    1
    62    21    19   ar
    63    93    92    1
    64    27    26    2
    65    13    14    1
    66   153   151    1
    67    18    19   ar
    68    18    17    1
    69   139   142    1
    70   139   140    1
    71   144   143    2
    72    92    94    1
    73   145   143   am
    74   143   142    1
    75    24    25    1
    76   147   148    1
    77   147   146    1
    78   147   150    1
    79   140   141    2
    80   148   149    2
    81    26    25    1
    82    14    17    1
    83    14    15    1
    84    28    25    1
    85    28    30    1
    86    28    29    1
    87   161   159    1
    88    15    16    2
    89   151   150    1
    90   151   152    1
    91   169   167   ar
    92   159   158    1
    93    79    78    1
    94    84    83    2
    95   167   166    1
    96   167   168   ar
    97   166   163    1
    98    76    75    1
    99    76    77    1
   100    78    77    2
   101    78    80    1
   102    83    82    1
   103    75    74    1
   104   158   160    1
   105   158   155    1
   106   162   163    1
   107   162   156   am
   108    85    82    1
   109    85    86    1
   110   163   164    1
   111   154   155    1
   112    44    43    1
   113    43    42    1
   114   165   164    2
   115    82    81    1
   116   155   156    1
   117    86    87    1
   118   156   157    2
   119    35    32    1
   120    87    81    1
   121    81    72   am
   122    41    42    1
   123    41    40    1
   124    74    71    1
   125    37    40    1
   126    37    38    1
   127    37    36    1
   128    32    33    1
   129    32    31    1
   130    72    71    1
   131    72    73    2
   132    52    50    1
   133    71    70    1
   134    38    39    2
   135    33    34    2
   136    64    63    2
   137    50    49    1
   138    70    63   am
   139    59    58    1
   140    63    62    1
   141    49    51    1
   142    49    46    1
   143    57    58    1
   144    57    54    1
   145    58    60    1
   146    56    55    2
   147    45    46    1
   148    46    47    1
   149    62    65    1
   150    62    61    1
   151    55    54    1
   152    55    61   am
   153    65    66    1
   154    54    53    1
   155    47    48    2
   156    68    67   ar
   157    66    67    1
   158    67    69   ar
