@<TRIPOS>MOLECULE
tmp/4rc8A00.pdb
 227 215 0 0 0
SMALL
GASTEIGER

@<TRIPOS>ATOM
      1  N         18.2430   -7.8540   34.0050 N.3    12  TYR12      -0.1241
      2  CA        17.3790   -8.2760   35.1050 C.3    12  TYR12       0.1605
      3  C         16.7280   -7.0890   35.8160 C.2    12  TYR12       0.2264
      4  O         15.5970   -7.1960   36.2860 O.2    12  TYR12      -0.2867
      5  CB        18.1180   -9.1770   36.1070 C.3    12  TYR12       0.0534
      6  CG        17.2050  -10.1680   36.8040 C.ar   12  TYR12      -0.0201
      7  CD1       16.8560  -11.3740   36.1880 C.ar   12  TYR12      -0.0009
      8  CD2       16.6760   -9.8980   38.0660 C.ar   12  TYR12      -0.0009
      9  CE1       16.0110  -12.2880   36.8130 C.ar   12  TYR12       0.0417
     10  CE2       15.8270  -10.8060   38.7000 C.ar   12  TYR12       0.0417
     11  CZ        15.5030  -12.0000   38.0660 C.ar   12  TYR12       0.1957
     12  OH        14.6690  -12.9040   38.6850 O.3    12  TYR12      -0.2866
     13  N         13.6670   -6.4440   33.6410 N.3    15  ILE15      -0.1231
     14  CA        12.7410   -7.5930   33.6670 C.3    15  ILE15       0.1692
     15  C         12.0720   -7.7820   35.0300 C.2    15  ILE15       0.2592
     16  O         10.8520   -7.9620   35.1100 O.2    15  ILE15      -0.2718
     17  CB        13.4430   -8.9200   33.2600 C.3    15  ILE15       0.0266
     18  CG1       14.0230   -8.8260   31.8460 C.3    15  ILE15       0.0019
     19  CG2       12.4750  -10.1100   33.3680 C.3    15  ILE15       0.0020
     20  CD1       12.9980   -8.7070   30.7590 C.3    15  ILE15       0.0001
     21  N         12.8700   -7.7580   36.0960 N.am   16  ASN16      -0.1974
     22  CA        12.3650   -7.8620   37.4610 C.3    16  ASN16       0.1688
     23  C         11.3530   -6.7500   37.7550 C.2    16  ASN16       0.2292
     24  O         10.2870   -7.0070   38.3110 O.2    16  ASN16      -0.2864
     25  CB        13.5360   -7.8350   38.4560 C.3    16  ASN16       0.1181
     26  CG        13.1090   -8.0670   39.8910 C.2    16  ASN16       0.2629
     27  OD1       13.4020   -7.2540   40.7680 O.2    16  ASN16      -0.2716
     28  ND2       12.4250   -9.1810   40.1430 N.am   16  ASN16      -0.0877
     29  N          9.5560   -5.1360   35.5300 N.3    18  ILE18      -0.1231
     30  CA         8.3750   -5.4080   34.7130 C.3    18  ILE18       0.1692
     31  C          7.4580   -6.4200   35.3950 C.2    18  ILE18       0.2591
     32  O          6.2450   -6.2090   35.4640 O.2    18  ILE18      -0.2718
     33  CB         8.7530   -5.8610   33.2810 C.3    18  ILE18       0.0266
     34  CG1        9.1840   -4.6540   32.4410 C.3    18  ILE18       0.0019
     35  CG2        7.5870   -6.5940   32.6090 C.3    18  ILE18       0.0020
     36  CD1        9.8390   -5.0360   31.1250 C.3    18  ILE18       0.0001
     37  N          8.0240   -7.5100   35.9130 N.am   19  VAL19      -0.1980
     38  CA         7.1740   -8.5040   36.5640 C.3    19  VAL19       0.1595
     39  C          6.5870   -8.0090   37.8770 C.2    19  VAL19       0.2287
     40  O          5.4260   -8.2700   38.1560 O.2    19  VAL19      -0.2864
     41  CB         7.8260   -9.9100   36.7140 C.3    19  VAL19       0.0276
     42  CG1        8.1620  -10.4820   35.3430 C.3    19  VAL19       0.0022
     43  CG2        9.0440   -9.8680   37.5960 C.3    19  VAL19       0.0022
     44  N          3.7740   -5.7090   36.9060 N.3    22  GLY22      -0.1210
     45  CA         2.6690   -6.4890   36.3490 C.3    22  GLY22       0.1956
     46  C          1.8280   -7.1720   37.4100 C.2    22  GLY22       0.2611
     47  O          0.6000   -7.1890   37.3230 O.2    22  GLY22      -0.2717
     48  N          2.4930   -7.7340   38.4170 N.am   23  GLU23      -0.1979
     49  CA         1.8000   -8.3800   39.5290 C.3    23  GLU23       0.1602
     50  C          1.0210   -7.3580   40.3580 C.2    23  GLU23       0.2287
     51  O         -0.0930   -7.6320   40.7950 O.2    23  GLU23      -0.2864
     52  CB         2.7780   -9.1350   40.4360 C.3    23  GLU23       0.0415
     53  CG         3.6700  -10.1800   39.7470 C.3    23  GLU23       0.1163
     54  CD         2.9130  -11.3720   39.1800 C.2    23  GLU23       0.3649
     55  OE1        1.7230  -11.5570   39.5100 O.co2  23  GLU23      -0.2457
     56  OE2        3.5200  -12.1430   38.4040 O.co2  23  GLU23      -0.2457
     57  N         -1.9610   -6.3970   38.4290 N.3    26  ALA26      -0.1245
     58  CA        -2.9300   -7.4910   38.4450 C.3    26  ALA26       0.1562
     59  C         -3.7180   -7.5280   39.7550 C.2    26  ALA26       0.2260
     60  O         -4.9240   -7.7880   39.7570 O.2    26  ALA26      -0.2867
     61  CB        -2.2430   -8.8140   38.1940 C.3    26  ALA26       0.0290
     62  N         -1.9850  -12.4280   43.5010 N.3    51  GLU51      -0.1245
     63  CA        -1.1160  -11.4730   42.8040 C.3    51  GLU51       0.1567
     64  C         -0.1860  -10.7430   43.7660 C.2    51  GLU51       0.2260
     65  O          0.9830  -10.5120   43.4560 O.2    51  GLU51      -0.2867
     66  CB        -1.9370  -10.4740   41.9770 C.3    51  GLU51       0.0388
     67  CG        -2.8880  -11.1250   40.9800 C.3    51  GLU51       0.1160
     68  CD        -2.1680  -11.8010   39.8260 C.2    51  GLU51       0.3649
     69  OE1       -0.9290  -11.9640   39.8900 O.co2  51  GLU51      -0.2457
     70  OE2       -2.8400  -12.1620   38.8390 O.co2  51  GLU51      -0.2457
     71  N          2.5830  -13.0880   44.4760 N.3    54  HIS54      -0.1241
     72  CA         3.5080  -13.1220   43.3380 C.3    54  HIS54       0.1621
     73  C          4.4420  -11.9250   43.3490 C.2    54  HIS54       0.2264
     74  O          5.6460  -12.0700   43.1310 O.2    54  HIS54      -0.2867
     75  CB         2.7670  -13.1200   41.9990 C.3    54  HIS54       0.0745
     76  CG         1.7990  -14.2410   41.8280 C.ar   54  HIS54       0.0817
     77  ND1        0.8700  -14.2650   40.8100 N.ar   54  HIS54      -0.2268
     78  CD2        1.6070  -15.3770   42.5430 C.ar   54  HIS54       0.1154
     79  CE1        0.1500  -15.3690   40.9060 C.ar   54  HIS54       0.1986
     80  NE2        0.5740  -16.0580   41.9510 N.ar   54  HIS54      -0.2212
     81  N          8.5930  -12.0130   43.4790 N.3    58  PHE58      -0.1241
     82  CA         9.4990  -11.4510   42.4860 C.3    58  PHE58       0.1605
     83  C         10.3750  -10.3300   43.0490 C.2    58  PHE58       0.2264
     84  O         11.4970  -10.1300   42.5930 O.2    58  PHE58      -0.2867
     85  CB         8.7430  -11.0230   41.2260 C.3    58  PHE58       0.0534
     86  CG         8.2400  -12.1880   40.4130 C.ar   58  PHE58      -0.0203
     87  CD1        9.1050  -13.2240   40.0530 C.ar   58  PHE58      -0.0042
     88  CD2        6.9070  -12.2610   40.0210 C.ar   58  PHE58      -0.0042
     89  CE1        8.6510  -14.3130   39.3060 C.ar   58  PHE58      -0.0003
     90  CE2        6.4470  -13.3460   39.2710 C.ar   58  PHE58      -0.0003
     91  CZ         7.3200  -14.3710   38.9160 C.ar   58  PHE58      -0.0000
     92  N         13.1940  -12.1960   44.3560 N.3    61  CYS61      -0.1235
     93  CA        14.0740  -12.6480   43.2780 C.3    61  CYS61       0.1677
     94  C         15.1240  -11.5920   42.9330 C.2    61  CYS61       0.2270
     95  O         16.2880  -11.9240   42.7120 O.2    61  CYS61      -0.2867
     96  CB        13.2720  -13.0080   42.0260 C.3    61  CYS61       0.0956
     97  SG        12.2720  -14.4970   42.1930 S.3    61  CYS61      -0.0801
     98  N          6.3370    0.8080   30.5930 N.3    77  PHE77      -0.1227
     99  CA         6.0940   -0.4260   29.8410 C.3    77  PHE77       0.1736
    100  C          4.6150   -0.8210   29.8570 C.2    77  PHE77       0.2595
    101  O          4.0530   -1.2100   28.8280 O.2    77  PHE77      -0.2718
    102  CB         6.9650   -1.5320   30.4590 C.3    77  PHE77       0.0547
    103  CG         6.8820   -2.8790   29.7700 C.ar   77  PHE77      -0.0202
    104  CD1        7.6170   -3.1300   28.6170 C.ar   77  PHE77      -0.0042
    105  CD2        6.1110   -3.9060   30.3110 C.ar   77  PHE77      -0.0042
    106  CE1        7.5630   -4.3770   27.9970 C.ar   77  PHE77      -0.0003
    107  CE2        6.0510   -5.1570   29.6970 C.ar   77  PHE77      -0.0003
    108  CZ         6.7820   -5.3890   28.5410 C.ar   77  PHE77      -0.0000
    109  N          3.9880   -0.6990   31.0240 N.am   78  PHE78      -0.1976
    110  CA         2.5880   -1.0900   31.2080 C.3    78  PHE78       0.1639
    111  C          1.5630    0.0170   30.9530 C.2    78  PHE78       0.2290
    112  O          0.3710   -0.2620   30.8290 O.2    78  PHE78      -0.2864
    113  CB         2.3870   -1.6250   32.6300 C.3    78  PHE78       0.0560
    114  CG         2.7060   -3.0820   32.7780 C.ar   78  PHE78      -0.0200
    115  CD1        1.7860   -4.0490   32.3750 C.ar   78  PHE78      -0.0042
    116  CD2        3.9160   -3.4910   33.3250 C.ar   78  PHE78      -0.0042
    117  CE1        2.0730   -5.4060   32.5130 C.ar   78  PHE78      -0.0003
    118  CE2        4.2050   -4.8510   33.4680 C.ar   78  PHE78      -0.0003
    119  CZ         3.2860   -5.8000   33.0560 C.ar   78  PHE78      -0.0000
    120  N         -6.9510   -8.3580   31.5520 N.3   101  GLN101     -0.1245
    121  CA        -6.1970   -9.0150   32.5810 C.3   101  GLN101      0.1566
    122  C         -6.2020  -10.5590   32.5390 C.2   101  GLN101      0.2260
    123  O         -5.1830  -11.1460   32.6040 O.2   101  GLN101     -0.2867
    124  CB        -6.7010   -8.5760   33.9610 C.3   101  GLN101      0.0367
    125  CG        -6.0220   -9.2660   35.1630 C.3   101  GLN101      0.0905
    126  CD        -4.5130   -9.0540   35.2500 C.2   101  GLN101      0.2608
    127  OE1       -4.0480   -7.9670   35.1610 O.2   101  GLN101     -0.2717
    128  NE2       -3.7510  -10.1840   35.3860 N.am  101  GLN101     -0.0878
    129  N         -3.1780  -10.6170   29.4060 N.3   105  ILE105     -0.1231
    130  CA        -2.0440  -10.5250   30.3200 C.3   105  ILE105      0.1692
    131  C         -1.6490  -11.8780   30.9250 C.2   105  ILE105      0.2591
    132  O         -0.4610  -12.2140   30.9460 O.2   105  ILE105     -0.2718
    133  CB        -2.2700   -9.4420   31.3980 C.3   105  ILE105      0.0266
    134  CG1       -2.1700   -8.0560   30.7510 C.3   105  ILE105      0.0019
    135  CG2       -1.2420   -9.5730   32.5130 C.3   105  ILE105      0.0020
    136  CD1       -2.5800   -6.9020   31.6830 C.3   105  ILE105      0.0001
    137  N         -2.6190  -12.6640   31.3940 N.am  106  GLU106     -0.1979
    138  CA        -2.2710  -13.9750   31.9630 C.3   106  GLU106      0.1602
    139  C         -1.6290  -14.8800   30.9160 C.2   106  GLU106      0.2287
    140  O         -0.6960  -15.6060   31.2330 O.2   106  GLU106     -0.2864
    141  CB        -3.4690  -14.6970   32.5990 C.3   106  GLU106      0.0415
    142  CG        -4.1990  -13.9480   33.7210 C.3   106  GLU106      0.1163
    143  CD        -3.4350  -13.8490   35.0330 C.2   106  GLU106      0.3649
    144  OE1       -2.4250  -14.5560   35.2340 O.co2 106  GLU106     -0.2457
    145  OE2       -3.8680  -13.0560   35.8890 O.co2 106  GLU106     -0.2457
    146  N          0.1750  -13.9180   28.3040 N.3   108  PHE108     -0.1227
    147  CA         1.5130  -13.3770   28.0860 C.3   108  PHE108      0.1736
    148  C          2.4250  -13.8630   29.2180 C.2   108  PHE108      0.2595
    149  O          3.5330  -14.3450   28.9710 O.2   108  PHE108     -0.2718
    150  CB         1.4200  -11.8400   28.0010 C.3   108  PHE108      0.0547
    151  CG         2.7200  -11.1400   27.7020 C.ar  108  PHE108     -0.0202
    152  CD1        3.6470  -11.6800   26.8160 C.ar  108  PHE108     -0.0042
    153  CD2        2.9880   -9.8990   28.2780 C.ar  108  PHE108     -0.0042
    154  CE1        4.8410  -11.0100   26.5400 C.ar  108  PHE108     -0.0003
    155  CE2        4.1720   -9.2200   28.0050 C.ar  108  PHE108     -0.0003
    156  CZ         5.0980   -9.7780   27.1340 C.ar  108  PHE108     -0.0000
    157  N          1.9220  -13.7980   30.4480 N.am  109  ALA109     -0.1980
    158  CA         2.6860  -14.2070   31.6240 C.3   109  ALA109      0.1597
    159  C          2.9570  -15.7100   31.6570 C.2   109  ALA109      0.2287
    160  O          4.0700  -16.1350   31.9760 O.2   109  ALA109     -0.2864
    161  CB         1.9770  -13.7660   32.8940 C.3   109  ALA109      0.0319
    162  N          5.6440  -16.3890   29.0010 N.3   112  ALA112     -0.1231
    163  CA         6.9540  -15.8800   29.3910 C.3   112  ALA112      0.1694
    164  C          7.5340  -16.5970   30.6050 C.2   112  ALA112      0.2592
    165  O          8.7130  -16.9470   30.6140 O.2   112  ALA112     -0.2718
    166  CB         6.8960  -14.3690   29.6290 C.3   112  ALA112      0.0304
    167  N          6.7120  -16.8300   31.6260 N.am  113  TYR113     -0.1976
    168  CA         7.2140  -17.4300   32.8520 C.3   113  TYR113      0.1639
    169  C          7.6660  -18.8740   32.6130 C.2   113  TYR113      0.2290
    170  O          8.6750  -19.2980   33.1660 O.2   113  TYR113     -0.2864
    171  CB         6.1760  -17.3610   33.9700 C.3   113  TYR113      0.0560
    172  CG         5.9130  -15.9730   34.5510 C.ar  113  TYR113     -0.0198
    173  CD1        6.4100  -14.8110   33.9460 C.ar  113  TYR113     -0.0009
    174  CD2        5.1270  -15.8280   35.6860 C.ar  113  TYR113     -0.0009
    175  CE1        6.1480  -13.5440   34.4850 C.ar  113  TYR113      0.0417
    176  CE2        4.8580  -14.5700   36.2280 C.ar  113  TYR113      0.0417
    177  CZ         5.3680  -13.4390   35.6260 C.ar  113  TYR113      0.1957
    178  OH         5.0840  -12.1980   36.1710 O.3   113  TYR113     -0.2866
    179  N         11.0460  -18.7280   31.0920 N.3   116  TYR116     -0.1241
    180  CA        12.0310  -18.3460   32.1060 C.3   116  TYR116      0.1605
    181  C         12.4610  -19.5160   32.9900 C.2   116  TYR116      0.2264
    182  O         13.6390  -19.6450   33.3240 O.2   116  TYR116     -0.2867
    183  CB        11.4550  -17.2270   32.9770 C.3   116  TYR116      0.0534
    184  CG        12.3480  -16.7490   34.1040 C.ar  116  TYR116     -0.0201
    185  CD1       13.6460  -16.3010   33.8540 C.ar  116  TYR116     -0.0009
    186  CD2       11.8760  -16.7080   35.4080 C.ar  116  TYR116     -0.0009
    187  CE1       14.4560  -15.8430   34.8870 C.ar  116  TYR116      0.0417
    188  CE2       12.6720  -16.2470   36.4470 C.ar  116  TYR116      0.0417
    189  CZ        13.9550  -15.8110   36.1770 C.ar  116  TYR116      0.1957
    190  OH        14.7440  -15.3620   37.2090 O.3   116  TYR116     -0.2866
    191  N         -1.3110  -18.7380   37.7400 N.3   135  GLU135     -0.1245
    192  CA        -1.6850  -18.0940   36.4790 C.3   135  GLU135      0.1567
    193  C         -2.6580  -18.9370   35.6670 C.2   135  GLU135      0.2260
    194  O         -3.5520  -18.3920   35.0190 O.2   135  GLU135     -0.2867
    195  CB        -0.4600  -17.7410   35.6410 C.3   135  GLU135      0.0388
    196  CG         0.4220  -16.6930   36.2890 C.3   135  GLU135      0.1160
    197  CD         1.6240  -16.3330   35.4550 C.2   135  GLU135      0.3649
    198  OE1        2.1020  -17.1860   34.6670 O.co2 135  GLU135     -0.2457
    199  OE2        2.0960  -15.1850   35.5940 O.co2 135  GLU135     -0.2457
    200  N         10.5140   -5.9800   25.1980 N.3   175  VAL175     -0.1245
    201  CA        11.1860   -6.7840   26.2130 C.3   175  VAL175      0.1561
    202  C         12.1620   -7.8090   25.6060 C.2   175  VAL175      0.2260
    203  O         12.9960   -8.3770   26.3180 O.2   175  VAL175     -0.2867
    204  CB        10.1440   -7.4590   27.1560 C.3   175  VAL175      0.0252
    205  CG1        9.6210   -8.7750   26.5710 C.3   175  VAL175      0.0019
    206  CG2       10.7170   -7.6650   28.5440 C.3   175  VAL175      0.0019
    207  N         15.0980   -9.9970   27.5120 N.3   179  ALA179     -0.1245
    208  CA        14.7180  -11.3920   27.7220 C.3   179  ALA179      0.1562
    209  C         15.7780  -12.3340   27.1470 C.2   179  ALA179      0.2260
    210  O         16.1200  -13.3420   27.7700 O.2   179  ALA179     -0.2867
    211  CB        13.3420  -11.6760   27.1230 C.3   179  ALA179      0.0290
    212  N         16.0850  -16.2150   27.2890 N.3   184  MET184     -0.1245
    213  CA        14.7310  -16.4480   26.7930 C.3   184  MET184      0.1570
    214  C         14.5880  -16.0170   25.3380 C.2   184  MET184      0.2261
    215  O         14.6160  -14.8210   25.0290 O.2   184  MET184     -0.2867
    216  CB        13.7220  -15.6830   27.6440 C.3   184  MET184      0.0387
    217  CG        13.7250  -16.0540   29.1080 C.3   184  MET184      0.0595
    218  SD        12.7750  -14.8620   30.0660 S.3   184  MET184     -0.1393
    219  CE        11.1540  -15.0230   29.3210 C.3   184  MET184      0.0692
    220  N          8.8710  -17.0800   22.7530 N.3   189  LEU189     -0.1245
    221  CA         7.8950  -16.2110   23.4110 C.3   189  LEU189      0.1561
    222  C          6.7250  -15.8780   22.4870 C.2   189  LEU189      0.2260
    223  O          5.5590  -15.9400   22.8940 O.2   189  LEU189     -0.2867
    224  CB         8.5650  -14.9290   23.9260 C.3   189  LEU189      0.0270
    225  CG         7.7220  -13.9770   24.7830 C.3   189  LEU189      0.0019
    226  CD1        6.9810  -14.7230   25.8910 C.3   189  LEU189      0.0001
    227  CD2        8.6040  -12.8800   25.3580 C.3   189  LEU189      0.0001
@<TRIPOS>BOND
     1   222   223    2
     2   222   221    1
     3   220   221    1
     4   221   224    1
     5   224   225    1
     6   225   227    1
     7   225   226    1
     8   215   214    2
     9   200   201    1
    10   214   213    1
    11   202   201    1
    12   202   203    2
    13   201   204    1
    14   154   152   ar
    15   154   156   ar
    16   205   204    1
    17   213   212    1
    18   213   216    1
    19   152   151   ar
    20   211   208    1
    21   156   155   ar
    22   209   208    1
    23   209   210    2
    24   204   206    1
    25   207   208    1
    26   216   217    1
    27   151   150    1
    28   151   153   ar
    29   106   108   ar
    30   106   104   ar
    31   150   147    1
    32   155   153   ar
    33   147   146    1
    34   147   148    1
    35   108   107   ar
    36   104   103   ar
    37   101   100    2
    38   149   148    2
    39   162   163    1
    40   217   218    1
    41   148   157   am
    42   219   218    1
    43   163   166    1
    44   163   164    1
    45   129   130    1
    46   107   105   ar
    47   103   105   ar
    48   103   102    1
    49    99   100    1
    50    99   102    1
    51    99    98    1
    52   100   109   am
    53   130   131    1
    54   130   133    1
    55   157   158    1
    56   164   165    2
    57   164   167   am
    58   134   133    1
    59   134   136    1
    60    20    18    1
    61   112   111    2
    62   139   140    2
    63   139   138    1
    64   131   132    2
    65   131   137   am
    66   111   110    1
    67   109   110    1
    68   179   180    1
    69    36    34    1
    70   110   113    1
    71   137   138    1
    72   133   135    1
    73   120   121    1
    74   158   159    1
    75   158   161    1
    76   167   168    1
    77   159   160    2
    78    18    17    1
    79   138   141    1
    80   180   183    1
    81   180   181    1
    82   115   117   ar
    83   115   114   ar
    84    34    33    1
    85   117   119   ar
    86   122   121    1
    87   122   123    2
    88   121   124    1
    89   141   142    1
    90    35    33    1
    91   169   168    1
    92   169   170    2
    93   113   114    1
    94   114   116   ar
    95   168   171    1
    96   183   184    1
    97   181   182    2
    98   119   118   ar
    99    17    19    1
   100    17    14    1
   101    33    30    1
   102   116   118   ar
   103    13    14    1
   104    14    15    1
   105   142   143    1
   106   185   184   ar
   107   185   187   ar
   108   173   175   ar
   109   173   172   ar
   110   124   125    1
   111   171   172    1
   112     1     2    1
   113   184   186   ar
   114   175   177   ar
   115   172   174   ar
   116   198   197   ar
   117    30    31    1
   118    30    29    1
   119   187   189   ar
   120   194   193    2
   121    15    16    2
   122    15    21   am
   123   143   144   ar
   124   143   145   ar
   125     2     3    1
   126     2     5    1
   127   127   126    2
   128   125   126    1
   129   126   128   am
   130    42    41    1
   131    31    32    2
   132    31    37   am
   133   186   188   ar
   134   197   199   ar
   135   197   196    1
   136   177   178    1
   137   177   176   ar
   138   195   196    1
   139   195   192    1
   140   193   192    1
   141   174   176   ar
   142     3     4    2
   143    37    38    1
   144    21    22    1
   145     5     6    1
   146   189   188   ar
   147   189   190    1
   148     7     6   ar
   149     7     9   ar
   150    45    44    1
   151    45    46    1
   152   192   191    1
   153    38    41    1
   154    38    39    1
   155    41    43    1
   156     6     8   ar
   157     9    11   ar
   158    47    46    2
   159    46    48   am
   160    22    23    1
   161    22    25    1
   162    23    24    2
   163    39    40    2
   164     8    10   ar
   165    11    12    1
   166    11    10   ar
   167    61    58    1
   168    56    54   ar
   169    48    49    1
   170    57    58    1
   171    58    59    1
   172    25    26    1
   173    70    68   ar
   174    91    90   ar
   175    91    89   ar
   176    54    55   ar
   177    54    53    1
   178    90    88   ar
   179    89    87   ar
   180    49    50    1
   181    49    52    1
   182    53    52    1
   183    59    60    2
   184    68    69   ar
   185    68    67    1
   186    26    28   am
   187    26    27    2
   188    88    86   ar
   189    87    86   ar
   190    50    51    2
   191    86    85    1
   192    77    79   ar
   193    77    76   ar
   194    79    80   ar
   195    67    66    1
   196    85    82    1
   197    76    75    1
   198    76    78   ar
   199    80    78   ar
   200    66    63    1
   201    75    72    1
   202    96    97    1
   203    96    93    1
   204    82    83    1
   205    82    81    1
   206    84    83    2
   207    95    94    2
   208    63    62    1
   209    63    64    1
   210    94    93    1
   211    74    73    2
   212    93    92    1
   213    72    73    1
   214    72    71    1
   215    65    64    2
