@<TRIPOS>MOLECULE
tmp/4rcdA00.pdb
 217 211 0 0 0
SMALL
GASTEIGER

@<TRIPOS>ATOM
      1  N         76.7380   42.8950   -0.1960 N.3    13  GLY13      -0.1210
      2  CA        76.3250   42.7660    1.1920 C.3    13  GLY13       0.1956
      3  C         76.3570   44.0310    2.0390 C.2    13  GLY13       0.2612
      4  O         75.9190   43.9930    3.1950 O.2    13  GLY13      -0.2717
      5  N         76.8450   45.1480    1.4870 N.am   14  GLN14      -0.1965
      6  CA        77.0270   46.3900    2.2720 C.3    14  GLN14       0.1733
      7  C         76.0490   47.5080    1.8650 C.2    14  GLN14       0.2616
      8  O         76.2110   48.6610    2.2780 O.2    14  GLN14      -0.2715
      9  CB        78.4710   46.8940    2.1620 C.3    14  GLN14       0.0408
     10  CG        79.5230   45.9710    2.7650 C.3    14  GLN14       0.0908
     11  CD        80.9460   46.4820    2.5990 C.2    14  GLN14       0.2608
     12  OE1       81.1920   47.5190    1.9750 O.2    14  GLN14      -0.2717
     13  NE2       81.8970   45.7480    3.1570 N.am   14  GLN14      -0.0878
     14  N         75.0450   47.1630    1.0600 N.am   15  GLY15      -0.1955
     15  CA        74.0050   48.1050    0.6390 C.3    15  GLY15       0.1869
     16  C         74.3480   48.9230   -0.5960 C.2    15  GLY15       0.2309
     17  O         75.4560   48.8380   -1.1260 O.2    15  GLY15      -0.2863
     18  N         73.5830   55.5740    2.1690 N.3    32  LEU32      -0.1245
     19  CA        72.8360   54.3340    1.9450 C.3    32  LEU32       0.1561
     20  C         71.3660   54.5860    1.6630 C.2    32  LEU32       0.2260
     21  O         70.6880   55.2750    2.4210 O.2    32  LEU32      -0.2867
     22  CB        72.9530   53.4510    3.1910 C.3    32  LEU32       0.0270
     23  CG        72.2700   52.0920    3.2770 C.3    32  LEU32       0.0019
     24  CD1       72.9200   51.1290    2.2920 C.3    32  LEU32       0.0001
     25  CD2       72.4110   51.5570    4.7040 C.3    32  LEU32       0.0001
     26  N         67.7030   53.4920    1.7070 N.3    34  ASP34      -0.1239
     27  CA        66.9860   52.5570    2.5800 C.3    34  ASP34       0.1674
     28  C         65.4830   52.7770    2.5510 C.2    34  ASP34       0.2266
     29  O         64.9810   53.6720    3.2160 O.2    34  ASP34      -0.2867
     30  CB        67.5120   52.7150    4.0300 C.3    34  ASP34       0.1410
     31  CG        66.9050   51.7040    5.0030 C.2    34  ASP34       0.3668
     32  OD1       66.3630   50.6820    4.5640 O.co2  34  ASP34      -0.2456
     33  OD2       66.9970   51.8990    6.2360 O.co2  34  ASP34      -0.2456
     34  N         63.4240   50.9970    4.0200 N.3    36  GLY36      -0.1210
     35  CA        62.9210   50.3650    5.2400 C.3    36  GLY36       0.1956
     36  C         63.0760   51.1770    6.5110 C.2    36  GLY36       0.2613
     37  O         62.8760   50.6490    7.6160 O.2    36  GLY36      -0.2717
     38  N         63.4080   52.4530    6.3650 N.am   37  SER37      -0.1938
     39  CA        63.4380   53.3890    7.4700 C.3    37  SER37       0.2055
     40  C         63.1080   54.8050    6.9510 C.2    37  SER37       0.2644
     41  O         62.9270   55.0060    5.7560 O.2    37  SER37      -0.2714
     42  CB        64.8020   53.3100    8.1880 C.3    37  SER37       0.2130
     43  OG        65.8670   53.7660    7.3750 O.3    37  SER37      -0.2179
     44  N         62.9890   55.7830    7.8430 N.am   38  SER38      -0.1935
     45  CA        62.4720   57.1020    7.4540 C.3    38  SER38       0.2055
     46  C         63.2410   58.3230    7.9920 C.2    38  SER38       0.2643
     47  O         62.7790   59.4600    7.8490 O.2    38  SER38      -0.2714
     48  CB        60.9950   57.1710    7.8630 C.3    38  SER38       0.2130
     49  OG        60.2730   56.0530    7.3560 O.3    38  SER38      -0.2179
     50  N         64.4230   58.0930    8.5680 N.am   39  ASN39      -0.1971
     51  CA        65.3450   59.1640    8.9470 C.3    39  ASN39       0.1688
     52  C         66.5200   59.3390    7.9910 C.2    39  ASN39       0.2292
     53  O         67.0990   58.3530    7.5270 O.2    39  ASN39      -0.2864
     54  CB        65.9130   58.8780   10.3450 C.3    39  ASN39       0.1181
     55  CG        64.9170   59.1590   11.4550 C.2    39  ASN39       0.2629
     56  OD1       64.1340   58.2940   11.8400 O.2    39  ASN39      -0.2716
     57  ND2       64.9810   60.3620   12.0100 N.am   39  ASN39      -0.0877
     58  N         68.1520   55.7120   18.1480 N.3    71  VAL71      -0.1231
     59  CA        67.5600   54.7440   17.2220 C.3    71  VAL71       0.1678
     60  C         68.2210   53.3820   17.3260 C.2    71  VAL71       0.2434
     61  O         69.1590   53.0820   16.5810 O.2    71  VAL71      -0.2733
     62  CB        67.6280   55.2420   15.7560 C.3    71  VAL71       0.0265
     63  CG1       66.7670   54.3640   14.8620 C.3    71  VAL71       0.0020
     64  CG2       67.1850   56.6940   15.6600 C.3    71  VAL71       0.0020
     65  N         67.7360   52.5390   18.2540 N.am   72  PRO72      -0.2718
     66  CA        68.1350   51.1420   18.2160 C.3    72  PRO72       0.1535
     67  C         67.2680   50.4040   17.2200 C.2    72  PRO72       0.2599
     68  O         66.0490   50.5510   17.2440 O.2    72  PRO72      -0.2715
     69  CB        67.8590   50.6510   19.6370 C.3    72  PRO72       0.0310
     70  CG        66.7510   51.5190   20.1210 C.3    72  PRO72       0.0237
     71  CD        66.8800   52.8390   19.4160 C.3    72  PRO72       0.0939
     72  N         67.8980   49.6480   16.3340 N.am   73  TYR73      -0.1960
     73  CA        67.1880   48.7850   15.3980 C.3    73  TYR73       0.1771
     74  C         67.7140   47.3780   15.6490 C.2    73  TYR73       0.2620
     75  O         68.5650   47.1920   16.5290 O.2    73  TYR73      -0.2715
     76  CB        67.3600   49.2620   13.9370 C.3    73  TYR73       0.0574
     77  CG        68.7840   49.3220   13.4070 C.ar   73  TYR73      -0.0198
     78  CD1       69.6530   50.3410   13.7960 C.ar   73  TYR73      -0.0009
     79  CD2       69.2440   48.3840   12.4920 C.ar   73  TYR73      -0.0009
     80  CE1       70.9440   50.4070   13.3150 C.ar   73  TYR73       0.0417
     81  CE2       70.5400   48.4330   12.0040 C.ar   73  TYR73       0.0417
     82  CZ        71.3890   49.4500   12.4170 C.ar   73  TYR73       0.1957
     83  OH        72.6830   49.5180   11.9270 O.3    73  TYR73      -0.2866
     84  N         67.2190   46.3890   14.9080 N.am   74  THR74      -0.1937
     85  CA        67.4940   44.9830   15.2520 C.3    74  THR74       0.2028
     86  C         68.9910   44.6320   15.2370 C.2    74  THR74       0.2642
     87  O         69.4560   43.8900   16.1030 O.2    74  THR74      -0.2714
     88  CB        66.7130   43.9790   14.3560 C.3    74  THR74       0.1808
     89  OG1       67.1710   44.0580   13.0030 O.3    74  THR74      -0.2208
     90  CG2       65.2180   44.2570   14.3950 C.3    74  THR74       0.0379
     91  N         69.7380   45.1820   14.2800 N.am   75  GLN75      -0.1976
     92  CA        71.1380   44.7940   14.0650 C.3    75  GLN75       0.1601
     93  C         72.1840   45.8320   14.5340 C.2    75  GLN75       0.2287
     94  O         73.3820   45.5790   14.4350 O.2    75  GLN75      -0.2864
     95  CB        71.3610   44.4880   12.5750 C.3    75  GLN75       0.0394
     96  CG        70.4580   43.3960   11.9990 C.3    75  GLN75       0.0908
     97  CD        71.1020   42.0170   11.9730 C.2    75  GLN75       0.2608
     98  OE1       71.8500   41.6400   12.8760 O.2    75  GLN75      -0.2717
     99  NE2       70.8030   41.2500   10.9290 N.am   75  GLN75      -0.0878
    100  N         72.2200   53.8410   16.5350 N.3    78  TRP78      -0.1241
    101  CA        72.8630   55.1270   16.4520 C.3    78  TRP78       0.1605
    102  C         72.0560   56.1550   17.1680 C.2    78  TRP78       0.2264
    103  O         70.8610   55.9650   17.4500 O.2    78  TRP78      -0.2867
    104  CB        73.1690   55.5300   15.0080 C.3    78  TRP78       0.0550
    105  CG        71.9890   55.4650   14.0870 C.ar   78  TRP78       0.0003
    106  CD1       71.5890   54.3940   13.2860 C.ar   78  TRP78       0.0946
    107  CD2       70.9870   56.5070   13.8630 C.ar   78  TRP78       0.0152
    108  NE1       70.4520   54.7150   12.5760 N.ar   78  TRP78      -0.2442
    109  CE2       70.0420   55.9650   12.8750 C.ar   78  TRP78       0.0810
    110  CE3       70.8080   57.8010   14.3280 C.ar   78  TRP78       0.0012
    111  CZ2       68.9640   56.6970   12.4200 C.ar   78  TRP78       0.0191
    112  CZ3       69.7120   58.5290   13.8570 C.ar   78  TRP78       0.0001
    113  CH2       68.8190   57.9890   12.9250 C.ar   78  TRP78       0.0015
    114  N         76.6830   50.0780   13.2920 N.3   110  PHE110     -0.1241
    115  CA        75.9760   50.8190   12.2430 C.3   110  PHE110      0.1605
    116  C         76.9070   50.9990   11.0510 C.2   110  PHE110      0.2264
    117  O         76.6450   50.4780    9.9520 O.2   110  PHE110     -0.2867
    118  CB        75.4910   52.1700   12.7780 C.3   110  PHE110      0.0534
    119  CG        74.8620   53.0590   11.7300 C.ar  110  PHE110     -0.0203
    120  CD1       73.6470   52.7210   11.1430 C.ar  110  PHE110     -0.0042
    121  CD2       75.4940   54.2350   11.3220 C.ar  110  PHE110     -0.0042
    122  CE1       73.0700   53.5440   10.1840 C.ar  110  PHE110     -0.0003
    123  CE2       74.9170   55.0570   10.3650 C.ar  110  PHE110     -0.0003
    124  CZ        73.7090   54.7010    9.7880 C.ar  110  PHE110     -0.0000
    125  N         79.9920   50.2140    8.7000 N.3   112  ILE112     -0.1245
    126  CA        80.6390   48.9510    8.3280 C.3   112  ILE112      0.1561
    127  C         82.1130   49.2240    8.0480 C.2   112  ILE112      0.2260
    128  O         82.4650   50.1500    7.3030 O.2   112  ILE112     -0.2867
    129  CB        79.9890   48.3250    7.0660 C.3   112  ILE112      0.0252
    130  CG1       78.5300   47.9290    7.3410 C.3   112  ILE112      0.0019
    131  CG2       80.7850   47.1190    6.5800 C.3   112  ILE112      0.0019
    132  CD1       77.7290   47.6370    6.0780 C.3   112  ILE112      0.0001
    133  N         80.2430   54.2760    2.5510 N.3   117  TRP117     -0.1241
    134  CA        79.1290   55.1640    2.8540 C.3   117  TRP117      0.1605
    135  C         79.2200   55.6950    4.2650 C.2   117  TRP117      0.2264
    136  O         79.8290   55.0610    5.1330 O.2   117  TRP117     -0.2867
    137  CB        77.7780   54.5160    2.5360 C.3   117  TRP117      0.0550
    138  CG        77.4480   53.2280    3.2410 C.ar  117  TRP117      0.0003
    139  CD1       77.5100   51.9420    2.7220 C.ar  117  TRP117      0.0946
    140  CD2       76.9340   53.0610    4.6060 C.ar  117  TRP117      0.0152
    141  NE1       77.1060   51.0250    3.6450 N.ar  117  TRP117     -0.2442
    142  CE2       76.7470   51.6290    4.7980 C.ar  117  TRP117      0.0810
    143  CE3       76.6410   53.9250    5.6530 C.ar  117  TRP117      0.0012
    144  CZ2       76.2830   51.1040    5.9920 C.ar  117  TRP117      0.0191
    145  CZ3       76.1860   53.3840    6.8490 C.ar  117  TRP117      0.0001
    146  CH2       76.0080   52.0100    7.0110 C.ar  117  TRP117      0.0015
    147  N         72.7210   57.3690    6.0620 N.3   120  ILE120     -0.1245
    148  CA        71.5560   56.5800    5.6330 C.3   120  ILE120      0.1561
    149  C         70.4140   57.5140    5.2260 C.2   120  ILE120      0.2260
    150  O         70.1410   58.5160    5.9080 O.2   120  ILE120     -0.2867
    151  CB        71.1300   55.5930    6.7530 C.3   120  ILE120      0.0252
    152  CG1       70.0260   54.6450    6.2950 C.3   120  ILE120      0.0019
    153  CG2       70.7060   56.3550    8.0130 C.3   120  ILE120      0.0019
    154  CD1       69.8540   53.4340    7.1880 C.3   120  ILE120      0.0001
    155  N         57.0590   55.9190   10.8880 N.3   128  ILE128     -0.1245
    156  CA        58.1530   55.2200   11.5570 C.3   128  ILE128      0.1561
    157  C         59.4220   56.0660   11.6980 C.2   128  ILE128      0.2260
    158  O         60.4910   55.5250   11.9710 O.2   128  ILE128     -0.2867
    159  CB        58.4940   53.8680   10.8860 C.3   128  ILE128      0.0252
    160  CG1       58.7740   54.0400    9.3930 C.3   128  ILE128      0.0019
    161  CG2       57.3960   52.8380   11.1590 C.3   128  ILE128      0.0019
    162  CD1       59.3190   52.7810    8.7410 C.3   128  ILE128      0.0001
    163  N         61.9640   58.7100   13.5560 N.3   130  ARG130     -0.1245
    164  CA        62.3210   58.9860   14.9580 C.3   130  ARG130      0.1563
    165  C         62.7090   60.4440   15.1280 C.2   130  ARG130      0.2260
    166  O         63.2970   61.0480   14.2210 O.2   130  ARG130     -0.2867
    167  CB        63.4450   58.0740   15.4490 C.3   130  ARG130      0.0307
    168  CG        63.1240   56.5890   15.4070 C.3   130  ARG130      0.0489
    169  CD        61.8720   56.2420   16.1930 C.3   130  ARG130      0.2205
    170  NE        61.5300   54.8290   16.0560 N.pl3 130  ARG130     -0.0865
    171  CZ        60.3060   54.3200   16.1990 C.cat 130  ARG130      0.5346
    172  NH1       59.2680   55.0960   16.4920 N.pl3 130  ARG130      0.1354
    173  NH2       60.1160   53.0180   16.0430 N.pl3 130  ARG130      0.1354
    174  N         56.1460   51.5570    6.7970 N.3   190  TYR190     -0.1241
    175  CA        57.0300   50.8800    5.8460 C.3   190  TYR190      0.1605
    176  C         56.2990   50.8890    4.4970 C.2   190  TYR190      0.2264
    177  O         55.1750   51.3780    4.4230 O.2   190  TYR190     -0.2867
    178  CB        57.3070   49.4340    6.2470 C.3   190  TYR190      0.0534
    179  CG        58.0120   49.2870    7.5780 C.ar  190  TYR190     -0.0201
    180  CD1       57.2880   49.1840    8.7620 C.ar  190  TYR190     -0.0009
    181  CD2       59.3950   49.2510    7.6490 C.ar  190  TYR190     -0.0009
    182  CE1       57.9260   49.0470    9.9860 C.ar  190  TYR190      0.0417
    183  CE2       60.0440   49.1120    8.8650 C.ar  190  TYR190      0.0417
    184  CZ        59.3040   49.0190   10.0320 C.ar  190  TYR190      0.1957
    185  OH        59.9490   48.8790   11.2470 O.3   190  TYR190     -0.2866
    186  N         62.1230   46.4420    0.9310 N.3   220  ASP220     -0.1225
    187  CA        63.2030   47.0490    1.7330 C.3   220  ASP220      0.1805
    188  C         64.5790   46.9450    1.0810 C.2   220  ASP220      0.2598
    189  O         65.2390   45.8990    1.1360 O.2   220  ASP220     -0.2718
    190  CB        63.2350   46.3880    3.1160 C.3   220  ASP220      0.1424
    191  CG        64.2870   46.9910    4.0280 C.2   220  ASP220      0.3668
    192  OD1       64.8830   48.0310    3.6780 O.co2 220  ASP220     -0.2456
    193  OD2       64.5000   46.4070    5.1030 O.co2 220  ASP220     -0.2456
    194  N         65.0310   48.0480    0.4920 N.am  221  SER221     -0.1938
    195  CA        66.3410   48.1060   -0.1310 C.3   221  SER221      0.2055
    196  C         67.4910   48.0290    0.8720 C.2   221  SER221      0.2644
    197  O         68.6400   47.8490    0.4700 O.2   221  SER221     -0.2714
    198  CB        66.4870   49.4020   -0.9320 C.3   221  SER221      0.2130
    199  OG        66.4600   50.5340   -0.0760 O.3   221  SER221     -0.2179
    200  N         67.1880   48.1940    2.1580 N.am  222  GLY222     -0.1939
    201  CA        68.2100   48.1750    3.2070 C.3   222  GLY222      0.2014
    202  C         68.3910   46.8200    3.8730 C.2   222  GLY222      0.2640
    203  O         69.0760   46.7160    4.8860 O.2   222  GLY222     -0.2714
    204  N         67.7510   45.7920    3.3210 N.am  223  THR223     -0.1936
    205  CA        67.9100   44.4140    3.7990 C.3   223  THR223      0.2028
    206  C         68.4280   43.5900    2.6350 C.2   223  THR223      0.2642
    207  O         67.9270   43.7000    1.5140 O.2   223  THR223     -0.2714
    208  CB        66.5830   43.8230    4.2890 C.3   223  THR223      0.1808
    209  OG1       66.1830   44.4780    5.4880 O.3   223  THR223     -0.2208
    210  CG2       66.7080   42.3210    4.5540 C.3   223  THR223      0.0379
    211  N         69.4440   42.7690    2.8850 N.am  224  THR224     -0.1950
    212  CA        70.0530   41.9890    1.8170 C.3   224  THR224      0.1897
    213  C         69.1660   40.8060    1.3890 C.2   224  THR224      0.2313
    214  O         68.9650   40.5680    0.1900 O.2   224  THR224     -0.2863
    215  CB        71.4440   41.4560    2.2420 C.3   224  THR224      0.1794
    216  OG1       72.3260   42.5610    2.5040 O.3   224  THR224     -0.2208
    217  CG2       72.0390   40.5870    1.1430 C.3   224  THR224      0.0378
@<TRIPOS>BOND
     1    17    16    2
     2   198   195    1
     3   198   199    1
     4    16    15    1
     5     1     2    1
     6   195   194    1
     7   195   196    1
     8   214   213    2
     9   197   196    2
    10   194   188   am
    11    15    14    1
    12   196   200   am
    13   186   187    1
    14    14     7   am
    15   188   189    2
    16   188   187    1
    17   217   215    1
    18     2     3    1
    19   213   212    1
    20     5     3   am
    21     5     6    1
    22   207   206    2
    23    20    19    1
    24    20    21    2
    25    26    27    1
    26   187   190    1
    27   212   215    1
    28   212   211    1
    29     7     6    1
    30     7     8    2
    31    19    18    1
    32    19    22    1
    33    12    11    2
    34     3     4    2
    35   200   201    1
    36     9     6    1
    37     9    10    1
    38   215   216    1
    39    24    23    1
    40   137   134    1
    41   137   138    1
    42   133   134    1
    43    28    27    1
    44    28    29    2
    45    27    30    1
    46    11    10    1
    47    11    13   am
    48   206   211   am
    49   206   205    1
    50   139   138   ar
    51   139   141   ar
    52   134   135    1
    53   190   191    1
    54    22    23    1
    55   201   202    1
    56   138   140   ar
    57    23    25    1
    58   204   205    1
    59   204   202   am
    60   141   142   ar
    61   192   191   ar
    62   205   208    1
    63   202   203    2
    64    34    35    1
    65   191   193   ar
    66    30    31    1
    67   135   136    2
    68   208   210    1
    69   208   209    1
    70   177   176    2
    71   176   175    1
    72    32    31   ar
    73   140   142   ar
    74   140   143   ar
    75   142   144   ar
    76    31    33   ar
    77   149   148    1
    78   149   150    2
    79    35    36    1
    80   148   147    1
    81   148   151    1
    82   143   145   ar
    83    41    40    2
    84   175   178    1
    85   175   174    1
    86   144   146   ar
    87   132   130    1
    88   178   179    1
    89   152   151    1
    90   152   154    1
    91    38    36   am
    92    38    39    1
    93    36    37    2
    94   131   129    1
    95   151   153    1
    96   145   146   ar
    97    40    39    1
    98    40    44   am
    99   129   130    1
   100   129   126    1
   101   128   127    2
   102    49    48    1
   103    43    42    1
   104    45    44    1
   105    45    48    1
   106    45    46    1
   107    39    42    1
   108    53    52    2
   109   179   181   ar
   110   179   180   ar
   111   181   183   ar
   112    47    46    2
   113    52    51    1
   114    46    50   am
   115   127   126    1
   116   126   125    1
   117    50    51    1
   118   162   160    1
   119   180   182   ar
   120   183   184   ar
   121    51    54    1
   122   160   159    1
   123   124   122   ar
   124   124   123   ar
   125   117   116    2
   126   182   184   ar
   127   184   185    1
   128   122   120   ar
   129    54    55    1
   130   123   121   ar
   131   159   161    1
   132   159   156    1
   133   155   156    1
   134    99    97   am
   135   116   115    1
   136   120   119   ar
   137   121   119   ar
   138    55    56    2
   139    55    57   am
   140   156   157    1
   141   157   158    2
   142   119   118    1
   143    83    82    1
   144    97    96    1
   145    97    98    2
   146    96    95    1
   147    81    82   ar
   148    81    79   ar
   149   115   118    1
   150   115   114    1
   151    82    80   ar
   152   111   109   ar
   153   111   113   ar
   154    79    77   ar
   155    95    92    1
   156   108   109   ar
   157   108   106   ar
   158   109   107   ar
   159   113   112   ar
   160    89    88    1
   161   106   105   ar
   162    80    78   ar
   163    77    78   ar
   164    77    76    1
   165   163   164    1
   166   112   110   ar
   167   107   105   ar
   168   107   110   ar
   169    76    73    1
   170    92    91    1
   171    92    93    1
   172   105   104    1
   173   166   165    2
   174    91    86   am
   175    88    90    1
   176    88    85    1
   177    94    93    2
   178    63    62    1
   179    84    85    1
   180    84    74   am
   181   164   165    1
   182   164   167    1
   183   104   101    1
   184    86    85    1
   185    86    87    2
   186    73    74    1
   187    73    72    1
   188   168   167    1
   189   168   169    1
   190    74    75    2
   191    64    62    1
   192    62    59    1
   193   173   171    1
   194   170   169    1
   195   170   171    2
   196   171   172    1
   197    72    67   am
   198   101   100    1
   199   101   102    1
   200    61    60    2
   201   102   103    2
   202    67    68    2
   203    67    66    1
   204    59    60    1
   205    59    58    1
   206    60    65   am
   207    66    65    1
   208    66    69    1
   209    65    71    1
   210    71    70    1
   211    69    70    1
