@<TRIPOS>MOLECULE
tmp/4rceA00.pdb
 217 211 0 0 0
SMALL
GASTEIGER

@<TRIPOS>ATOM
      1  N         76.8770   42.9430   -0.3380 N.3    13  GLY13      -0.1210
      2  CA        76.3230   42.7250    0.9980 C.3    13  GLY13       0.1956
      3  C         76.4300   43.8870    1.9680 C.2    13  GLY13       0.2612
      4  O         75.9950   43.7520    3.1080 O.2    13  GLY13      -0.2717
      5  N         76.9640   45.0290    1.5170 N.am   14  GLN14      -0.1965
      6  CA        77.0630   46.2420    2.3330 C.3    14  GLN14       0.1733
      7  C         76.1490   47.3570    1.8210 C.2    14  GLN14       0.2616
      8  O         76.3880   48.5290    2.0990 O.2    14  GLN14      -0.2715
      9  CB        78.5070   46.7640    2.3430 C.3    14  GLN14       0.0408
     10  CG        79.5540   45.7470    2.7430 C.3    14  GLN14       0.0908
     11  CD        80.9750   46.2880    2.6830 C.2    14  GLN14       0.2608
     12  OE1       81.2620   47.2600    1.9670 O.2    14  GLN14      -0.2717
     13  NE2       81.8820   45.6510    3.4410 N.am   14  GLN14      -0.0878
     14  N         75.1140   47.0000    1.0600 N.am   15  GLY15      -0.1955
     15  CA        74.0960   47.9660    0.6220 C.3    15  GLY15       0.1869
     16  C         74.4820   48.8080   -0.5820 C.2    15  GLY15       0.2309
     17  O         75.6080   48.7300   -1.0670 O.2    15  GLY15      -0.2863
     18  N         73.6850   55.5690    2.0750 N.3    32  LEU32      -0.1245
     19  CA        72.9960   54.2970    1.8740 C.3    32  LEU32       0.1561
     20  C         71.5280   54.5560    1.5580 C.2    32  LEU32       0.2260
     21  O         70.8890   55.3660    2.2080 O.2    32  LEU32      -0.2867
     22  CB        73.1170   53.4430    3.1360 C.3    32  LEU32       0.0270
     23  CG        72.3820   52.0960    3.2140 C.3    32  LEU32       0.0019
     24  CD1       73.0970   51.0450    2.3780 C.3    32  LEU32       0.0001
     25  CD2       72.2810   51.6550    4.6680 C.3    32  LEU32       0.0001
     26  N         67.8210   53.4020    1.5840 N.3    34  ASP34      -0.1239
     27  CA        67.1040   52.4860    2.4570 C.3    34  ASP34       0.1674
     28  C         65.5970   52.7330    2.4360 C.2    34  ASP34       0.2266
     29  O         65.0960   53.6740    3.0690 O.2    34  ASP34      -0.2867
     30  CB        67.6240   52.6620    3.8950 C.3    34  ASP34       0.1410
     31  CG        67.0530   51.6340    4.8600 C.2    34  ASP34       0.3668
     32  OD1       66.5750   50.5780    4.4000 O.co2  34  ASP34      -0.2456
     33  OD2       67.1190   51.8600    6.0990 O.co2  34  ASP34      -0.2456
     34  N         63.5220   50.9460    3.9190 N.3    36  GLY36      -0.1210
     35  CA        62.9920   50.3440    5.1450 C.3    36  GLY36       0.1956
     36  C         63.1800   51.1730    6.4070 C.2    36  GLY36       0.2613
     37  O         62.9800   50.6720    7.5150 O.2    36  GLY36      -0.2717
     38  N         63.5640   52.4330    6.2420 N.am   37  SER37      -0.1938
     39  CA        63.5950   53.3950    7.3370 C.3    37  SER37       0.2055
     40  C         63.2500   54.7690    6.7650 C.2    37  SER37       0.2644
     41  O         63.1100   54.9160    5.5500 O.2    37  SER37      -0.2714
     42  CB        64.9720   53.4080    8.0000 C.3    37  SER37       0.2130
     43  OG        65.9480   53.9520    7.1360 O.3    37  SER37      -0.2179
     44  N         63.1280   55.7710    7.6380 N.am   38  SER38      -0.1935
     45  CA        62.6150   57.0820    7.2300 C.3    38  SER38       0.2055
     46  C         63.4050   58.2830    7.7440 C.2    38  SER38       0.2643
     47  O         62.9260   59.4010    7.6710 O.2    38  SER38      -0.2714
     48  CB        61.1500   57.2150    7.6550 C.3    38  SER38       0.2130
     49  OG        60.4220   56.0520    7.2810 O.3    38  SER38      -0.2179
     50  N         64.6220   58.0800    8.2280 N.am   39  ASN39      -0.1971
     51  CA        65.4340   59.2070    8.6710 C.3    39  ASN39       0.1688
     52  C         66.5800   59.4400    7.7290 C.2    39  ASN39       0.2292
     53  O         67.1760   58.4820    7.2190 O.2    39  ASN39      -0.2864
     54  CB        66.0130   58.9580   10.0680 C.3    39  ASN39       0.1181
     55  CG        65.0140   59.2160   11.1760 C.2    39  ASN39       0.2629
     56  OD1       64.2510   58.3310   11.5440 O.2    39  ASN39      -0.2716
     57  ND2       65.0290   60.4270   11.7240 N.am   39  ASN39      -0.0877
     58  N         68.1020   55.8670   18.1130 N.3    71  VAL71      -0.1231
     59  CA        67.5320   54.8810   17.2040 C.3    71  VAL71       0.1678
     60  C         68.2180   53.5230   17.3130 C.2    71  VAL71       0.2434
     61  O         69.1840   53.2480   16.6140 O.2    71  VAL71      -0.2733
     62  CB        67.5270   55.3910   15.7340 C.3    71  VAL71       0.0265
     63  CG1       66.7810   54.4210   14.8270 C.3    71  VAL71       0.0020
     64  CG2       66.8900   56.7740   15.6550 C.3    71  VAL71       0.0020
     65  N         67.7010   52.6610   18.1950 N.am   72  PRO72      -0.2718
     66  CA        68.0750   51.2590   18.1640 C.3    72  PRO72       0.1535
     67  C         67.2170   50.4990   17.1510 C.2    72  PRO72       0.2599
     68  O         66.0330   50.7550   17.0430 O.2    72  PRO72      -0.2715
     69  CB        67.8030   50.7880   19.5980 C.3    72  PRO72       0.0310
     70  CG        66.7950   51.7450   20.1560 C.3    72  PRO72       0.0237
     71  CD        66.7320   52.9540   19.2700 C.3    72  PRO72       0.0939
     72  N         67.8410   49.6120   16.3880 N.am   73  TYR73      -0.1960
     73  CA        67.1530   48.7260   15.4550 C.3    73  TYR73       0.1771
     74  C         67.6700   47.3140   15.7230 C.2    73  TYR73       0.2620
     75  O         68.4850   47.1260   16.6340 O.2    73  TYR73      -0.2715
     76  CB        67.3640   49.1860   13.9960 C.3    73  TYR73       0.0574
     77  CG        68.7970   49.3150   13.5110 C.ar   73  TYR73      -0.0198
     78  CD1       69.6280   50.3500   13.9570 C.ar   73  TYR73      -0.0009
     79  CD2       69.3060   48.4190   12.5820 C.ar   73  TYR73      -0.0009
     80  CE1       70.9400   50.4640   13.5020 C.ar   73  TYR73       0.0417
     81  CE2       70.5980   48.5170   12.1220 C.ar   73  TYR73       0.0417
     82  CZ        71.4160   49.5380   12.5800 C.ar   73  TYR73       0.1957
     83  OH        72.7040   49.6160   12.1110 O.3    73  TYR73      -0.2866
     84  N         67.2140   46.3100   14.9780 N.am   74  THR74      -0.1937
     85  CA        67.4880   44.9180   15.4020 C.3    74  THR74       0.2028
     86  C         68.9710   44.5800   15.3950 C.2    74  THR74       0.2642
     87  O         69.4200   43.7920   16.2170 O.2    74  THR74      -0.2714
     88  CB        66.7390   43.8530   14.5630 C.3    74  THR74       0.1808
     89  OG1       67.0900   43.9900   13.1790 O.3    74  THR74      -0.2208
     90  CG2       65.2360   43.9880   14.7320 C.3    74  THR74       0.0379
     91  N         69.7360   45.1710   14.4830 N.am   75  GLN75      -0.1976
     92  CA        71.1310   44.7680   14.3120 C.3    75  GLN75       0.1601
     93  C         72.1590   45.8390   14.7310 C.2    75  GLN75       0.2287
     94  O         73.3540   45.6630   14.5070 O.2    75  GLN75      -0.2864
     95  CB        71.3680   44.2820   12.8710 C.3    75  GLN75       0.0394
     96  CG        70.3010   43.3080   12.3560 C.3    75  GLN75       0.0908
     97  CD        70.8590   41.9880   11.8120 C.2    75  GLN75       0.2608
     98  OE1       70.7500   41.6990   10.6150 O.2    75  GLN75      -0.2717
     99  NE2       71.4380   41.1690   12.6960 N.am   75  GLN75      -0.0878
    100  N         72.0260   53.8650   16.2670 N.3    78  TRP78      -0.1241
    101  CA        72.6640   55.1650   16.1450 C.3    78  TRP78       0.1605
    102  C         71.9460   56.2280   16.9300 C.2    78  TRP78       0.2264
    103  O         70.7630   56.1090   17.2570 O.2    78  TRP78      -0.2867
    104  CB        72.8230   55.5760   14.6810 C.3    78  TRP78       0.0550
    105  CG        71.5380   55.8940   13.9830 C.ar   78  TRP78       0.0003
    106  CD1       70.7410   55.0370   13.2310 C.ar   78  TRP78       0.0946
    107  CD2       70.8610   57.1880   13.9410 C.ar   78  TRP78       0.0152
    108  NE1       69.6370   55.6990   12.7400 N.ar   78  TRP78      -0.2442
    109  CE2       69.6530   56.9950   13.1260 C.ar   78  TRP78       0.0810
    110  CE3       71.1250   58.4410   14.4640 C.ar   78  TRP78       0.0012
    111  CZ2       68.7650   58.0210   12.8810 C.ar   78  TRP78       0.0191
    112  CZ3       70.2230   59.4740   14.2020 C.ar   78  TRP78       0.0001
    113  CH2       69.0710   59.2660   13.4240 C.ar   78  TRP78       0.0015
    114  N         76.5740   50.1010   13.2240 N.3   110  PHE110     -0.1241
    115  CA        75.8690   50.8410   12.2180 C.3   110  PHE110      0.1605
    116  C         76.7770   50.9890   11.0230 C.2   110  PHE110      0.2264
    117  O         76.4580   50.5000    9.9350 O.2   110  PHE110     -0.2867
    118  CB        75.4520   52.1950   12.7800 C.3   110  PHE110      0.0534
    119  CG        74.7800   53.0920   11.7900 C.ar  110  PHE110     -0.0203
    120  CD1       73.4950   52.8310   11.3620 C.ar  110  PHE110     -0.0042
    121  CD2       75.4340   54.2180   11.2990 C.ar  110  PHE110     -0.0042
    122  CE1       72.8640   53.6730   10.4600 C.ar  110  PHE110     -0.0003
    123  CE2       74.8120   55.0580   10.3880 C.ar  110  PHE110     -0.0003
    124  CZ        73.5220   54.7820    9.9740 C.ar  110  PHE110     -0.0000
    125  N         79.9430   50.2340    8.6530 N.3   112  ILE112     -0.1245
    126  CA        80.6030   48.9940    8.2790 C.3   112  ILE112      0.1561
    127  C         82.0880   49.2660    8.0580 C.2   112  ILE112      0.2260
    128  O         82.4580   50.2330    7.3830 O.2   112  ILE112     -0.2867
    129  CB        79.9940   48.4140    6.9950 C.3   112  ILE112      0.0252
    130  CG1       78.5340   48.0230    7.2260 C.3   112  ILE112      0.0019
    131  CG2       80.8000   47.2170    6.4980 C.3   112  ILE112      0.0019
    132  CD1       77.8200   47.6330    5.9430 C.3   112  ILE112      0.0001
    133  N         80.3160   54.2680    2.4530 N.3   117  TRP117     -0.1241
    134  CA        79.2080   55.1750    2.7780 C.3   117  TRP117      0.1605
    135  C         79.2550   55.6200    4.2050 C.2   117  TRP117      0.2264
    136  O         79.7680   54.9020    5.0700 O.2   117  TRP117     -0.2867
    137  CB        77.8330   54.5610    2.4520 C.3   117  TRP117      0.0550
    138  CG        77.4970   53.2300    3.1120 C.ar  117  TRP117      0.0003
    139  CD1       77.5890   51.9690    2.5570 C.ar  117  TRP117      0.0946
    140  CD2       76.9590   53.0050    4.4620 C.ar  117  TRP117      0.0152
    141  NE1       77.1660   51.0120    3.4410 N.ar  117  TRP117     -0.2442
    142  CE2       76.7890   51.5710    4.6010 C.ar  117  TRP117      0.0810
    143  CE3       76.6250   53.8200    5.5200 C.ar  117  TRP117      0.0012
    144  CZ2       76.3050   51.0010    5.7610 C.ar  117  TRP117      0.0191
    145  CZ3       76.1400   53.2380    6.6810 C.ar  117  TRP117      0.0001
    146  CH2       75.9780   51.8660    6.7980 C.ar  117  TRP117      0.0015
    147  N         72.6600   57.3530    5.9240 N.3   120  ILE120     -0.1245
    148  CA        71.5200   56.5290    5.5390 C.3   120  ILE120      0.1561
    149  C         70.4230   57.4700    5.0950 C.2   120  ILE120      0.2260
    150  O         70.1820   58.4840    5.7610 O.2   120  ILE120     -0.2867
    151  CB        71.0650   55.6160    6.7020 C.3   120  ILE120      0.0252
    152  CG1       70.0380   54.5920    6.2310 C.3   120  ILE120      0.0019
    153  CG2       70.5390   56.4280    7.8790 C.3   120  ILE120      0.0019
    154  CD1       69.8820   53.3990    7.1690 C.3   120  ILE120      0.0001
    155  N         57.2440   55.9690   10.7390 N.3   128  ILE128     -0.1245
    156  CA        58.3070   55.1980   11.3780 C.3   128  ILE128      0.1561
    157  C         59.5750   56.0450   11.5160 C.2   128  ILE128      0.2260
    158  O         60.6090   55.5430   11.9260 O.2   128  ILE128     -0.2867
    159  CB        58.5750   53.8480   10.6460 C.3   128  ILE128      0.0252
    160  CG1       59.2170   54.0470    9.2560 C.3   128  ILE128      0.0019
    161  CG2       57.2850   53.0600   10.5020 C.3   128  ILE128      0.0019
    162  CD1       59.4160   52.7510    8.5080 C.3   128  ILE128      0.0001
    163  N         62.0380   58.7380   13.3040 N.3   130  ARG130     -0.1245
    164  CA        62.3550   59.0060   14.7040 C.3   130  ARG130      0.1563
    165  C         62.7450   60.4710   14.8590 C.2   130  ARG130      0.2260
    166  O         63.3820   61.0330   13.9630 O.2   130  ARG130     -0.2867
    167  CB        63.4720   58.0850   15.2200 C.3   130  ARG130      0.0307
    168  CG        63.1270   56.5950   15.1860 C.3   130  ARG130      0.0489
    169  CD        61.9300   56.2650   16.0590 C.3   130  ARG130      0.2205
    170  NE        61.7590   54.8190   16.2700 N.pl3 130  ARG130     -0.0865
    171  CZ        60.8620   54.0390   15.6600 C.cat 130  ARG130      0.5346
    172  NH1       60.0150   54.5210   14.7520 N.pl3 130  ARG130      0.1354
    173  NH2       60.8150   52.7480   15.9600 N.pl3 130  ARG130      0.1354
    174  N         56.1880   51.6160    6.5540 N.3   190  TYR190     -0.1241
    175  CA        57.0810   50.9460    5.6240 C.3   190  TYR190      0.1605
    176  C         56.3720   50.9040    4.2670 C.2   190  TYR190      0.2264
    177  O         55.2150   51.3400    4.1510 O.2   190  TYR190     -0.2867
    178  CB        57.3340   49.5030    6.0540 C.3   190  TYR190      0.0534
    179  CG        57.9810   49.3130    7.4130 C.ar  190  TYR190     -0.0201
    180  CD1       57.2070   49.1940    8.5720 C.ar  190  TYR190     -0.0009
    181  CD2       59.3630   49.2200    7.5390 C.ar  190  TYR190     -0.0009
    182  CE1       57.7980   49.0020    9.8130 C.ar  190  TYR190      0.0417
    183  CE2       59.9640   49.0300    8.7790 C.ar  190  TYR190      0.0417
    184  CZ        59.1800   48.9140    9.9090 C.ar  190  TYR190      0.1957
    185  OH        59.7800   48.7150   11.1360 O.3   190  TYR190     -0.2866
    186  N         62.1940   46.3780    0.8350 N.3   220  ASP220     -0.1225
    187  CA        63.2700   47.0040    1.6270 C.3   220  ASP220      0.1805
    188  C         64.6290   46.9060    0.9510 C.2   220  ASP220      0.2598
    189  O         65.2530   45.8680    0.9740 O.2   220  ASP220     -0.2718
    190  CB        63.3340   46.3390    3.0050 C.3   220  ASP220      0.1424
    191  CG        64.3180   46.9980    3.9300 C.2   220  ASP220      0.3668
    192  OD1       65.0070   47.9370    3.4990 O.co2 220  ASP220     -0.2456
    193  OD2       64.4060   46.5760    5.1090 O.co2 220  ASP220     -0.2456
    194  N         65.1060   48.0080    0.3890 N.am  221  SER221     -0.1938
    195  CA        66.4110   48.0250   -0.2440 C.3   221  SER221      0.2055
    196  C         67.5770   47.9540    0.7470 C.2   221  SER221      0.2644
    197  O         68.6970   47.7090    0.3440 O.2   221  SER221     -0.2714
    198  CB        66.5580   49.2900   -1.0760 C.3   221  SER221      0.2130
    199  OG        66.6910   50.4170   -0.2290 O.3   221  SER221     -0.2179
    200  N         67.3230   48.2050    2.0260 N.am  222  GLY222     -0.1939
    201  CA        68.3580   48.0890    3.0560 C.3   222  GLY222      0.2014
    202  C         68.5000   46.7250    3.7140 C.2   222  GLY222      0.2640
    203  O         69.1110   46.6260    4.7680 O.2   222  GLY222     -0.2714
    204  N         67.9450   45.6790    3.1020 N.am  223  THR223     -0.1936
    205  CA        68.0900   44.2990    3.5880 C.3   223  THR223      0.2028
    206  C         68.5900   43.4650    2.4320 C.2   223  THR223      0.2642
    207  O         68.0460   43.5280    1.3450 O.2   223  THR223     -0.2714
    208  CB        66.7490   43.6980    4.0700 C.3   223  THR223      0.1808
    209  OG1       66.2420   44.4710    5.1630 O.3   223  THR223     -0.2208
    210  CG2       66.9100   42.2370    4.5010 C.3   223  THR223      0.0379
    211  N         69.6320   42.6860    2.6740 N.am  224  THR224     -0.1950
    212  CA        70.2390   41.8630    1.6470 C.3   224  THR224      0.1897
    213  C         69.3470   40.6830    1.2710 C.2   224  THR224      0.2313
    214  O         69.1720   40.3810    0.0850 O.2   224  THR224     -0.2863
    215  CB        71.5910   41.3080    2.1460 C.3   224  THR224      0.1794
    216  OG1       72.4900   42.4020    2.3810 O.3   224  THR224     -0.2208
    217  CG2       72.2000   40.3300    1.1290 C.3   224  THR224      0.0378
@<TRIPOS>BOND
     1   198   195    1
     2   198   199    1
     3    17    16    2
     4    16    15    1
     5     1     2    1
     6   195   194    1
     7   195   196    1
     8   214   213    2
     9   197   196    2
    10   194   188   am
    11    15    14    1
    12   196   200   am
    13   186   187    1
    14   188   189    2
    15   188   187    1
    16     2     3    1
    17    14     7   am
    18   217   215    1
    19   213   212    1
    20   207   206    2
    21     5     3   am
    22     5     6    1
    23    20    19    1
    24    20    21    2
    25    26    27    1
    26   187   190    1
    27   212   215    1
    28   212   211    1
    29     7     8    2
    30     7     6    1
    31    19    18    1
    32    19    22    1
    33    12    11    2
    34     3     4    2
    35   200   201    1
    36   215   216    1
    37     6     9    1
    38     9    10    1
    39    24    23    1
    40   206   211   am
    41   206   205    1
    42    28    27    1
    43    28    29    2
    44   137   134    1
    45   137   138    1
    46   133   134    1
    47    27    30    1
    48   139   138   ar
    49   139   141   ar
    50    11    10    1
    51    11    13   am
    52   134   135    1
    53   190   191    1
    54   201   202    1
    55   204   205    1
    56   204   202   am
    57   138   140   ar
    58    22    23    1
    59    23    25    1
    60   141   142   ar
    61   192   191   ar
    62   205   208    1
    63   202   203    2
    64    30    31    1
    65    34    35    1
    66   191   193   ar
    67   208   210    1
    68   208   209    1
    69   177   176    2
    70   135   136    2
    71   176   175    1
    72    32    31   ar
    73   140   142   ar
    74   140   143   ar
    75   142   144   ar
    76    31    33   ar
    77   149   148    1
    78   149   150    2
    79    35    36    1
    80   143   145   ar
    81   148   147    1
    82   148   151    1
    83    41    40    2
    84   175   178    1
    85   175   174    1
    86   144   146   ar
    87   132   130    1
    88   178   179    1
    89   152   151    1
    90   152   154    1
    91    38    36   am
    92    38    39    1
    93    36    37    2
    94   131   129    1
    95   145   146   ar
    96   151   153    1
    97    40    39    1
    98    40    44   am
    99   129   130    1
   100   129   126    1
   101    43    42    1
   102    53    52    2
   103    45    44    1
   104    45    48    1
   105    45    46    1
   106    49    48    1
   107    39    42    1
   108   128   127    2
   109   179   181   ar
   110   179   180   ar
   111   181   183   ar
   112    47    46    2
   113    52    51    1
   114    46    50   am
   115   127   126    1
   116    50    51    1
   117   126   125    1
   118   162   160    1
   119   180   182   ar
   120    51    54    1
   121   183   184   ar
   122   160   159    1
   123   182   184   ar
   124   184   185    1
   125   117   116    2
   126   124   123   ar
   127   124   122   ar
   128    54    55    1
   129   123   121   ar
   130   122   120   ar
   131   161   159    1
   132    98    97    2
   133   159   156    1
   134   155   156    1
   135   116   115    1
   136    55    56    2
   137    55    57   am
   138   121   119   ar
   139   120   119   ar
   140   156   157    1
   141   157   158    2
   142   119   118    1
   143    97    96    1
   144    97    99   am
   145    83    82    1
   146    81    82   ar
   147    81    79   ar
   148   115   118    1
   149   115   114    1
   150    96    95    1
   151    82    80   ar
   152    79    77   ar
   153   108   109   ar
   154   108   106   ar
   155    95    92    1
   156   111   109   ar
   157   111   113   ar
   158   109   107   ar
   159    89    88    1
   160   106   105   ar
   161   163   164    1
   162   113   112   ar
   163    80    78   ar
   164    77    78   ar
   165    77    76    1
   166   107   105   ar
   167   107   110   ar
   168   166   165    2
   169   105   104    1
   170    76    73    1
   171   112   110   ar
   172    92    91    1
   173    92    93    1
   174    91    86   am
   175    94    93    2
   176    88    90    1
   177    88    85    1
   178   104   101    1
   179   164   165    1
   180   164   167    1
   181   172   171    1
   182    63    62    1
   183    84    85    1
   184    84    74   am
   185   168   167    1
   186   168   169    1
   187    86    85    1
   188    86    87    2
   189    73    74    1
   190    73    72    1
   191    64    62    1
   192   171   173    1
   193   171   170    2
   194    74    75    2
   195    62    59    1
   196   169   170    1
   197   101   100    1
   198   101   102    1
   199    72    67   am
   200    61    60    2
   201   102   103    2
   202    68    67    2
   203    67    66    1
   204    59    60    1
   205    59    58    1
   206    60    65   am
   207    66    65    1
   208    66    69    1
   209    65    71    1
   210    71    70    1
   211    69    70    1
