@<TRIPOS>MOLECULE
tmp/4rcfA00.pdb
 217 211 0 0 0
SMALL
GASTEIGER

@<TRIPOS>ATOM
      1  N         76.4680   42.6890   -0.1690 N.3    13  GLY13      -0.1210
      2  CA        76.0980   42.5040    1.2220 C.3    13  GLY13       0.1956
      3  C         76.2310   43.7370    2.0960 C.2    13  GLY13       0.2612
      4  O         75.9610   43.6670    3.2930 O.2    13  GLY13      -0.2717
      5  N         76.6390   44.8640    1.5150 N.am   14  GLN14      -0.1965
      6  CA        76.8240   46.1040    2.2830 C.3    14  GLN14       0.1733
      7  C         75.9070   47.2330    1.7980 C.2    14  GLN14       0.2616
      8  O         76.0770   48.3970    2.1920 O.2    14  GLN14      -0.2715
      9  CB        78.2810   46.5440    2.2350 C.3    14  GLN14       0.0408
     10  CG        79.2610   45.5370    2.8100 C.3    14  GLN14       0.0908
     11  CD        80.7110   46.0050    2.7580 C.2    14  GLN14       0.2608
     12  OE1       81.0420   47.0150    2.1310 O.2    14  GLN14      -0.2717
     13  NE2       81.5890   45.2570    3.4160 N.am   14  GLN14      -0.0878
     14  N         74.9230   46.8810    0.9650 N.am   15  GLY15      -0.1955
     15  CA        73.9200   47.8370    0.5090 C.3    15  GLY15       0.1869
     16  C         74.3560   48.6780   -0.6770 C.2    15  GLY15       0.2309
     17  O         75.4950   48.6150   -1.1240 O.2    15  GLY15      -0.2863
     18  N         73.6810   55.4150    2.0430 N.3    32  LEU32      -0.1245
     19  CA        72.9530   54.1560    1.8500 C.3    32  LEU32       0.1561
     20  C         71.4810   54.4210    1.5470 C.2    32  LEU32       0.2260
     21  O         70.8120   55.1630    2.2510 O.2    32  LEU32      -0.2867
     22  CB        73.0630   53.2880    3.1140 C.3    32  LEU32       0.0270
     23  CG        72.3170   51.9580    3.2490 C.3    32  LEU32       0.0019
     24  CD1       72.9790   50.8950    2.3830 C.3    32  LEU32       0.0001
     25  CD2       72.3130   51.5150    4.7110 C.3    32  LEU32       0.0001
     26  N         67.8240   53.2810    1.5490 N.3    34  ASP34      -0.1239
     27  CA        67.0890   52.3680    2.4230 C.3    34  ASP34       0.1674
     28  C         65.6020   52.6320    2.3830 C.2    34  ASP34       0.2266
     29  O         65.1070   53.5430    3.0380 O.2    34  ASP34      -0.2867
     30  CB        67.5960   52.4990    3.8650 C.3    34  ASP34       0.1410
     31  CG        66.9880   51.4760    4.8160 C.2    34  ASP34       0.3668
     32  OD1       66.3790   50.4880    4.3520 O.co2  34  ASP34      -0.2456
     33  OD2       67.1510   51.6470    6.0580 O.co2  34  ASP34      -0.2456
     34  N         63.5600   50.8160    3.8520 N.3    36  GLY36      -0.1210
     35  CA        63.0760   50.2270    5.0930 C.3    36  GLY36       0.1956
     36  C         63.2450   51.0810    6.3420 C.2    36  GLY36       0.2613
     37  O         63.0600   50.5880    7.4530 O.2    36  GLY36      -0.2717
     38  N         63.5670   52.3560    6.1710 N.am   37  SER37      -0.1938
     39  CA        63.6080   53.3070    7.2750 C.3    37  SER37       0.2055
     40  C         63.2640   54.6930    6.7460 C.2    37  SER37       0.2644
     41  O         63.0570   54.8620    5.5410 O.2    37  SER37      -0.2714
     42  CB        64.9980   53.2970    7.9240 C.3    37  SER37       0.2130
     43  OG        66.0040   53.8120    7.0710 O.3    37  SER37      -0.2179
     44  N         63.2030   55.6900    7.6280 N.am   38  SER38      -0.1935
     45  CA        62.6490   56.9970    7.2340 C.3    38  SER38       0.2055
     46  C         63.4240   58.2350    7.7150 C.2    38  SER38       0.2643
     47  O         62.9040   59.3460    7.6560 O.2    38  SER38      -0.2714
     48  CB        61.1830   57.0850    7.6770 C.3    38  SER38       0.2130
     49  OG        60.4290   55.9960    7.1620 O.3    38  SER38      -0.2179
     50  N         64.6580   58.0480    8.1870 N.am   39  ASN39      -0.1971
     51  CA        65.5060   59.1570    8.6000 C.3    39  ASN39       0.1688
     52  C         66.6430   59.3650    7.6440 C.2    39  ASN39       0.2292
     53  O         67.2070   58.4000    7.1410 O.2    39  ASN39      -0.2864
     54  CB        66.1080   58.8980    9.9930 C.3    39  ASN39       0.1181
     55  CG        65.1210   59.1510   11.1210 C.2    39  ASN39       0.2629
     56  OD1       64.3200   58.2940   11.4580 O.2    39  ASN39      -0.2716
     57  ND2       65.2200   60.3270   11.7460 N.am   39  ASN39      -0.0877
     58  N         68.2900   55.9470   18.0880 N.3    71  VAL71      -0.1231
     59  CA        67.7420   54.9910   17.1070 C.3    71  VAL71       0.1678
     60  C         68.3710   53.6100   17.1910 C.2    71  VAL71       0.2434
     61  O         69.2690   53.2700   16.4240 O.2    71  VAL71      -0.2733
     62  CB        67.8470   55.5330   15.6570 C.3    71  VAL71       0.0265
     63  CG1       67.0730   54.6300   14.6940 C.3    71  VAL71       0.0020
     64  CG2       67.3120   56.9510   15.5970 C.3    71  VAL71       0.0020
     65  N         67.8940   52.7950   18.1340 N.am   72  PRO72      -0.2718
     66  CA        68.2030   51.3750   18.0750 C.3    72  PRO72       0.1535
     67  C         67.3360   50.6870   17.0290 C.2    72  PRO72       0.2599
     68  O         66.1890   51.0850   16.8010 O.2    72  PRO72      -0.2715
     69  CB        67.8920   50.8810   19.4890 C.3    72  PRO72       0.0310
     70  CG        66.8970   51.8420   20.0280 C.3    72  PRO72       0.0237
     71  CD        67.0570   53.1470   19.2960 C.3    72  PRO72       0.0939
     72  N         67.9090   49.6970   16.3660 N.am   73  TYR73      -0.1960
     73  CA        67.1830   48.8470   15.4400 C.3    73  TYR73       0.1771
     74  C         67.6910   47.4380   15.6790 C.2    73  TYR73       0.2620
     75  O         68.5290   47.2390   16.5620 O.2    73  TYR73      -0.2715
     76  CB        67.3660   49.3210   13.9910 C.3    73  TYR73       0.0574
     77  CG        68.7910   49.3320   13.4680 C.ar   73  TYR73      -0.0198
     78  CD1       69.6850   50.3430   13.8240 C.ar   73  TYR73      -0.0009
     79  CD2       69.2170   48.3700   12.5780 C.ar   73  TYR73      -0.0009
     80  CE1       70.9830   50.3600   13.3290 C.ar   73  TYR73       0.0417
     81  CE2       70.5080   48.3620   12.0810 C.ar   73  TYR73       0.0417
     82  CZ        71.3900   49.3680   12.4560 C.ar   73  TYR73       0.1957
     83  OH        72.6640   49.3500   11.9390 O.3    73  TYR73      -0.2866
     84  N         67.1990   46.4500   14.9330 N.am   74  THR74      -0.1937
     85  CA        67.4060   45.0650   15.3760 C.3    74  THR74       0.2028
     86  C         68.8780   44.6290   15.3320 C.2    74  THR74       0.2642
     87  O         69.2980   43.7900   16.1180 O.2    74  THR74      -0.2714
     88  CB        66.5110   44.0570   14.6330 C.3    74  THR74       0.1808
     89  OG1       66.8590   44.0260   13.2490 O.3    74  THR74      -0.2208
     90  CG2       65.0330   44.4330   14.7920 C.3    74  THR74       0.0379
     91  N         69.6740   45.2180   14.4480 N.am   75  GLN75      -0.1976
     92  CA        71.0630   44.7910   14.3220 C.3    75  GLN75       0.1601
     93  C         72.0920   45.8690   14.6970 C.2    75  GLN75       0.2287
     94  O         73.2740   45.6490   14.5140 O.2    75  GLN75      -0.2864
     95  CB        71.3080   44.2290   12.9140 C.3    75  GLN75       0.0394
     96  CG        70.2890   43.1550   12.5310 C.3    75  GLN75       0.0908
     97  CD        70.8910   41.9600   11.8230 C.2    75  GLN75       0.2608
     98  OE1       70.6610   41.7550   10.6290 O.2    75  GLN75      -0.2717
     99  NE2       71.6520   41.1510   12.5600 N.am   75  GLN75      -0.0878
    100  N         72.1990   53.9040   16.3550 N.3    78  TRP78      -0.1241
    101  CA        72.8360   55.1970   16.2180 C.3    78  TRP78       0.1605
    102  C         72.0710   56.2030   17.0040 C.2    78  TRP78       0.2264
    103  O         70.8910   56.0100   17.2940 O.2    78  TRP78      -0.2867
    104  CB        73.0170   55.6150   14.7510 C.3    78  TRP78       0.0550
    105  CG        71.7410   55.8720   13.9880 C.ar   78  TRP78       0.0003
    106  CD1       71.0510   54.9960   13.1530 C.ar   78  TRP78       0.0946
    107  CD2       70.9980   57.1200   13.9280 C.ar   78  TRP78       0.0152
    108  NE1       69.9430   55.6050   12.6140 N.ar   78  TRP78      -0.2442
    109  CE2       69.8640   56.8870   13.0340 C.ar   78  TRP78       0.0810
    110  CE3       71.1660   58.3760   14.4880 C.ar   78  TRP78       0.0012
    111  CZ2       68.9370   57.8720   12.7660 C.ar   78  TRP78       0.0191
    112  CZ3       70.2330   59.3580   14.2100 C.ar   78  TRP78       0.0001
    113  CH2       69.1320   59.1090   13.3670 C.ar   78  TRP78       0.0015
    114  N         76.6180   50.0670   13.2330 N.3   110  PHE110     -0.1241
    115  CA        75.8810   50.7800   12.1920 C.3   110  PHE110      0.1605
    116  C         76.7840   50.9280   10.9810 C.2   110  PHE110      0.2264
    117  O         76.4850   50.4220    9.8960 O.2   110  PHE110     -0.2867
    118  CB        75.3880   52.1150   12.7000 C.3   110  PHE110      0.0534
    119  CG        74.7480   52.9830   11.6440 C.ar  110  PHE110     -0.0203
    120  CD1       73.4600   52.7130   11.1780 C.ar  110  PHE110     -0.0042
    121  CD2       75.4180   54.0850   11.1450 C.ar  110  PHE110     -0.0042
    122  CE1       72.8590   53.5240   10.2230 C.ar  110  PHE110     -0.0003
    123  CE2       74.8310   54.8890   10.1710 C.ar  110  PHE110     -0.0003
    124  CZ        73.5530   54.6100    9.7130 C.ar  110  PHE110     -0.0000
    125  N         79.9370   50.1040    8.6550 N.3   112  ILE112     -0.1245
    126  CA        80.5770   48.8430    8.2780 C.3   112  ILE112      0.1561
    127  C         82.0510   49.0760    7.9700 C.2   112  ILE112      0.2260
    128  O         82.4080   49.9660    7.1890 O.2   112  ILE112     -0.2867
    129  CB        79.8930   48.2350    7.0380 C.3   112  ILE112      0.0252
    130  CG1       78.4250   47.9010    7.3410 C.3   112  ILE112      0.0019
    131  CG2       80.6510   47.0060    6.5290 C.3   112  ILE112      0.0019
    132  CD1       77.6610   47.4510    6.1140 C.3   112  ILE112      0.0001
    133  N         80.2190   54.0780    2.3950 N.3   117  TRP117     -0.1241
    134  CA        79.1250   55.0060    2.6830 C.3   117  TRP117      0.1605
    135  C         79.2420   55.5130    4.0970 C.2   117  TRP117      0.2264
    136  O         79.8570   54.8620    4.9510 O.2   117  TRP117     -0.2867
    137  CB        77.7370   54.4210    2.3850 C.3   117  TRP117      0.0550
    138  CG        77.4000   53.1040    3.0610 C.ar  117  TRP117      0.0003
    139  CD1       77.4600   51.8290    2.5070 C.ar  117  TRP117      0.0946
    140  CD2       76.8760   52.9000    4.4200 C.ar  117  TRP117      0.0152
    141  NE1       77.0440   50.8870    3.4130 N.ar  117  TRP117     -0.2442
    142  CE2       76.6800   51.4680    4.5750 C.ar  117  TRP117      0.0810
    143  CE3       76.5800   53.7400    5.4930 C.ar  117  TRP117      0.0012
    144  CZ2       76.2120   50.9180    5.7570 C.ar  117  TRP117      0.0191
    145  CZ3       76.1060   53.1690    6.6740 C.ar  117  TRP117      0.0001
    146  CH2       75.9280   51.7920    6.7980 C.ar  117  TRP117      0.0015
    147  N         72.7980   57.2510    5.9270 N.3   120  ILE120     -0.1245
    148  CA        71.6390   56.4710    5.4950 C.3   120  ILE120      0.1561
    149  C         70.5210   57.4140    5.0480 C.2   120  ILE120      0.2260
    150  O         70.2640   58.4300    5.6950 O.2   120  ILE120     -0.2867
    151  CB        71.1660   55.5010    6.5950 C.3   120  ILE120      0.0252
    152  CG1       70.0580   54.5700    6.0900 C.3   120  ILE120      0.0019
    153  CG2       70.6940   56.2470    7.8480 C.3   120  ILE120      0.0019
    154  CD1       69.7270   53.4540    7.0530 C.3   120  ILE120      0.0001
    155  N         57.2910   55.8380   10.5700 N.3   128  ILE128     -0.1245
    156  CA        58.3910   55.1500   11.2440 C.3   128  ILE128      0.1561
    157  C         59.6520   56.0110   11.3980 C.2   128  ILE128      0.2260
    158  O         60.7080   55.4960   11.7330 O.2   128  ILE128     -0.2867
    159  CB        58.6880   53.7670   10.6110 C.3   128  ILE128      0.0252
    160  CG1       59.1940   53.8780    9.1700 C.3   128  ILE128      0.0019
    161  CG2       57.4480   52.8830   10.6820 C.3   128  ILE128      0.0019
    162  CD1       59.5430   52.5220    8.5620 C.3   128  ILE128      0.0001
    163  N         62.1570   58.6440   13.2940 N.3   130  ARG130     -0.1245
    164  CA        62.5010   58.8920   14.6870 C.3   130  ARG130      0.1563
    165  C         62.8870   60.3550   14.8380 C.2   130  ARG130      0.2260
    166  O         63.5270   60.9180   13.9610 O.2   130  ARG130     -0.2867
    167  CB        63.6600   57.9970   15.1290 C.3   130  ARG130      0.0307
    168  CG        63.4280   56.5160   14.8920 C.3   130  ARG130      0.0489
    169  CD        62.2590   55.9940   15.6990 C.3   130  ARG130      0.2205
    170  NE        62.2030   54.5320   15.6740 N.pl3 130  ARG130     -0.0865
    171  CZ        61.3420   53.7940   14.9700 C.cat 130  ARG130      0.5346
    172  NH1       61.4090   52.4720   15.0520 N.pl3 130  ARG130      0.1354
    173  NH2       60.4180   54.3440   14.1840 N.pl3 130  ARG130      0.1354
    174  N         56.2400   51.4670    6.4900 N.3   190  TYR190     -0.1241
    175  CA        57.1170   50.7830    5.5550 C.3   190  TYR190      0.1605
    176  C         56.4020   50.7810    4.2090 C.2   190  TYR190      0.2264
    177  O         55.2300   51.1650    4.1170 O.2   190  TYR190     -0.2867
    178  CB        57.3490   49.3410    5.9610 C.3   190  TYR190      0.0534
    179  CG        58.0550   49.1930    7.2830 C.ar  190  TYR190     -0.0201
    180  CD1       59.4460   49.2040    7.3440 C.ar  190  TYR190     -0.0009
    181  CD2       57.3410   49.0830    8.4690 C.ar  190  TYR190     -0.0009
    182  CE1       60.1060   49.0610    8.5530 C.ar  190  TYR190      0.0417
    183  CE2       57.9940   48.9600    9.6900 C.ar  190  TYR190      0.0417
    184  CZ        59.3730   48.9500    9.7170 C.ar  190  TYR190      0.1957
    185  OH        60.0320   48.8210   10.9200 O.3   190  TYR190     -0.2866
    186  N         62.2340   46.2440    0.7930 N.3   220  ASP220     -0.1225
    187  CA        63.3140   46.8190    1.6100 C.3   220  ASP220      0.1805
    188  C         64.6800   46.7460    0.9390 C.2   220  ASP220      0.2598
    189  O         65.3600   45.7180    0.9690 O.2   220  ASP220     -0.2718
    190  CB        63.3600   46.1300    2.9790 C.3   220  ASP220      0.1424
    191  CG        64.3580   46.7770    3.9250 C.2   220  ASP220      0.3668
    192  OD1       64.9090   47.8510    3.5930 O.co2 220  ASP220     -0.2456
    193  OD2       64.5750   46.2020    5.0130 O.co2 220  ASP220     -0.2456
    194  N         65.1040   47.8530    0.3570 N.am  221  SER221     -0.1938
    195  CA        66.4240   47.9250   -0.2410 C.3   221  SER221      0.2055
    196  C         67.5730   47.8400    0.7680 C.2   221  SER221      0.2644
    197  O         68.7220   47.6430    0.3760 O.2   221  SER221     -0.2714
    198  CB        66.5660   49.1990   -1.0770 C.3   221  SER221      0.2130
    199  OG        66.5230   50.3500   -0.2610 O.3   221  SER221     -0.2179
    200  N         67.2680   48.0100    2.0540 N.am  222  GLY222     -0.1939
    201  CA        68.2740   47.9710    3.1210 C.3   222  GLY222      0.2014
    202  C         68.4450   46.6220    3.7860 C.2   222  GLY222      0.2640
    203  O         69.0610   46.5290    4.8410 O.2   222  GLY222     -0.2714
    204  N         67.8660   45.5830    3.1900 N.am  223  THR223     -0.1936
    205  CA        68.0480   44.1920    3.6200 C.3   223  THR223      0.2028
    206  C         68.5860   43.3930    2.4340 C.2   223  THR223      0.2642
    207  O         68.1300   43.5260    1.2920 O.2   223  THR223     -0.2714
    208  CB        66.7320   43.5660    4.1330 C.3   223  THR223      0.1808
    209  OG1       66.3130   44.2550    5.3110 O.3   223  THR223     -0.2208
    210  CG2       66.9000   42.0390    4.4330 C.3   223  THR223      0.0379
    211  N         69.6160   42.6000    2.6960 N.am  224  THR224     -0.1950
    212  CA        70.2560   41.8350    1.6570 C.3   224  THR224      0.1897
    213  C         69.3800   40.6560    1.2170 C.2   224  THR224      0.2313
    214  O         69.1640   40.4460    0.0140 O.2   224  THR224     -0.2863
    215  CB        71.6130   41.3030    2.1640 C.3   224  THR224      0.1794
    216  OG1       72.4640   42.4260    2.4620 O.3   224  THR224     -0.2208
    217  CG2       72.2510   40.4000    1.1060 C.3   224  THR224      0.0378
@<TRIPOS>BOND
     1    17    16    2
     2   198   199    1
     3   198   195    1
     4    16    15    1
     5   195   194    1
     6   195   196    1
     7     1     2    1
     8   214   213    2
     9   194   188   am
    10   197   196    2
    11    15    14    1
    12   196   200   am
    13   186   187    1
    14   188   189    2
    15   188   187    1
    16    14     7   am
    17   217   215    1
    18   213   212    1
    19     2     3    1
    20   207   206    2
    21     5     3   am
    22     5     6    1
    23    20    19    1
    24    20    21    2
    25    26    27    1
    26   187   190    1
    27   212   215    1
    28   212   211    1
    29     7     8    2
    30     7     6    1
    31    19    18    1
    32    19    22    1
    33   200   201    1
    34     3     4    2
    35    12    11    2
    36   215   216    1
    37     9     6    1
    38     9    10    1
    39    28    27    1
    40    28    29    2
    41    24    23    1
    42   137   134    1
    43   137   138    1
    44   133   134    1
    45    27    30    1
    46   206   211   am
    47   206   205    1
    48   139   138   ar
    49   139   141   ar
    50   134   135    1
    51    11    10    1
    52    11    13   am
    53   190   191    1
    54   138   140   ar
    55    22    23    1
    56   201   202    1
    57   204   205    1
    58   204   202   am
    59    23    25    1
    60   141   142   ar
    61   192   191   ar
    62   205   208    1
    63   202   203    2
    64    34    35    1
    65    30    31    1
    66   191   193   ar
    67   135   136    2
    68   177   176    2
    69   208   210    1
    70   208   209    1
    71   176   175    1
    72    32    31   ar
    73   140   142   ar
    74   140   143   ar
    75   142   144   ar
    76    31    33   ar
    77   149   148    1
    78   149   150    2
    79    35    36    1
    80   143   145   ar
    81   148   147    1
    82   148   151    1
    83    41    40    2
    84   175   178    1
    85   175   174    1
    86   144   146   ar
    87   178   179    1
    88   152   151    1
    89   152   154    1
    90   132   130    1
    91    38    36   am
    92    38    39    1
    93    36    37    2
    94   131   129    1
    95   151   153    1
    96   145   146   ar
    97    40    39    1
    98    40    44   am
    99   129   130    1
   100   129   126    1
   101    43    42    1
   102    53    52    2
   103    49    48    1
   104   128   127    2
   105    45    44    1
   106    45    48    1
   107    45    46    1
   108    39    42    1
   109   179   180   ar
   110   179   181   ar
   111   180   182   ar
   112    52    51    1
   113    47    46    2
   114    46    50   am
   115   127   126    1
   116    50    51    1
   117   126   125    1
   118   181   183   ar
   119   182   184   ar
   120   162   160    1
   121    51    54    1
   122   160   159    1
   123   183   184   ar
   124   124   123   ar
   125   124   122   ar
   126   184   185    1
   127   117   116    2
   128    54    55    1
   129   123   121   ar
   130   122   120   ar
   131   155   156    1
   132   159   161    1
   133   159   156    1
   134    98    97    2
   135   116   115    1
   136    55    56    2
   137    55    57   am
   138   121   119   ar
   139   120   119   ar
   140   156   157    1
   141   157   158    2
   142   119   118    1
   143    97    96    1
   144    97    99   am
   145    83    82    1
   146    81    82   ar
   147    81    79   ar
   148   115   118    1
   149   115   114    1
   150    82    80   ar
   151    96    95    1
   152    79    77   ar
   153   108   109   ar
   154   108   106   ar
   155   111   109   ar
   156   111   113   ar
   157    95    92    1
   158   109   107   ar
   159   106   105   ar
   160    89    88    1
   161   163   164    1
   162    80    78   ar
   163   113   112   ar
   164    77    78   ar
   165    77    76    1
   166   107   105   ar
   167   107   110   ar
   168   166   165    2
   169   105   104    1
   170    76    73    1
   171   173   171    1
   172   112   110   ar
   173    92    91    1
   174    92    93    1
   175    91    86   am
   176    94    93    2
   177    88    90    1
   178    88    85    1
   179   164   165    1
   180   164   167    1
   181    63    62    1
   182   104   101    1
   183   168   167    1
   184   168   169    1
   185    84    85    1
   186    84    74   am
   187   171   172    1
   188   171   170    2
   189    86    85    1
   190    86    87    2
   191    73    74    1
   192    73    72    1
   193    64    62    1
   194    62    59    1
   195   170   169    1
   196    74    75    2
   197   101   100    1
   198   101   102    1
   199    72    67   am
   200    61    60    2
   201    68    67    2
   202   102   103    2
   203    67    66    1
   204    59    60    1
   205    59    58    1
   206    60    65   am
   207    66    65    1
   208    66    69    1
   209    65    71    1
   210    71    70    1
   211    69    70    1
