@<TRIPOS>MOLECULE
tmp/4rchA01.pdb
 182 176 0 0 0
SMALL
GASTEIGER

@<TRIPOS>ATOM
      1  N         32.9240   13.3680   56.3070 N.3    48  TYR48      -0.1227
      2  CA        33.5330   14.7010   56.1420 C.3    48  TYR48       0.1736
      3  C         34.4920   15.0760   57.2520 C.2    48  TYR48       0.2595
      4  O         34.9860   16.2020   57.2940 O.2    48  TYR48      -0.2718
      5  CB        32.5050   15.8150   55.8210 C.3    48  TYR48       0.0548
      6  CG        31.9150   15.6080   54.4540 C.ar   48  TYR48      -0.0200
      7  CD1       30.7900   14.8020   54.2730 C.ar   48  TYR48      -0.0009
      8  CD2       32.4970   16.1810   53.3330 C.ar   48  TYR48      -0.0009
      9  CE1       30.2550   14.5760   53.0050 C.ar   48  TYR48       0.0417
     10  CE2       31.9640   15.9680   52.0560 C.ar   48  TYR48       0.0417
     11  CZ        30.8550   15.1700   51.9040 C.ar   48  TYR48       0.1957
     12  OH        30.3390   14.9430   50.6480 O.3    48  TYR48      -0.2866
     13  N         34.7840   14.1190   58.1330 N.am   49  VAL49      -0.1966
     14  CA        35.9030   14.2780   59.0470 C.3    49  VAL49       0.1727
     15  C         37.1410   13.8320   58.2810 C.2    49  VAL49       0.2616
     16  O         37.1690   12.7110   57.7320 O.2    49  VAL49      -0.2715
     17  CB        35.7050   13.4530   60.3270 C.3    49  VAL49       0.0290
     18  CG1       36.9340   13.5390   61.2040 C.3    49  VAL49       0.0023
     19  CG2       34.4590   13.9110   61.0520 C.3    49  VAL49       0.0023
     20  N         38.1410   14.7110   58.2110 N.am   50  ARG50      -0.1963
     21  CA        39.2840   14.4900   57.3270 C.3    50  ARG50       0.1729
     22  C         40.5620   14.5970   58.0810 C.2    50  ARG50       0.2616
     23  O         40.5850   15.1990   59.1430 O.2    50  ARG50      -0.2715
     24  CB        39.3390   15.5570   56.2350 C.3    50  ARG50       0.0348
     25  CG        38.2320   15.5270   55.2080 C.3    50  ARG50       0.0492
     26  CD        38.3170   16.8080   54.3770 C.3    50  ARG50       0.2205
     27  NE        37.1670   16.9860   53.4910 N.pl3  50  ARG50      -0.0865
     28  CZ        37.1860   16.7400   52.1830 C.cat  50  ARG50       0.5346
     29  NH1       38.2950   16.3000   51.5790 N.pl3  50  ARG50       0.1354
     30  NH2       36.0840   16.9310   51.4800 N.pl3  50  ARG50       0.1354
     31  N         41.6360   14.0640   57.5030 N.am   51  SER51      -0.1950
     32  CA        42.9770   14.1820   58.0870 C.3    51  SER51       0.1924
     33  C         43.6720   15.4770   57.6900 C.2    51  SER51       0.2314
     34  O         44.6430   15.8980   58.3370 O.2    51  SER51      -0.2863
     35  CB        43.8650   13.0110   57.6580 C.3    51  SER51       0.2116
     36  OG        44.0340   13.0070   56.2470 O.3    51  SER51      -0.2180
     37  N         42.8440   18.9360   57.3970 N.3    53  PRO53      -0.2102
     38  CA        42.7860   20.3090   57.8920 C.3    53  PRO53       0.1504
     39  C         43.8690   20.6380   58.9100 C.2    53  PRO53       0.2575
     40  O         44.3550   19.7520   59.6260 O.2    53  PRO53      -0.2718
     41  CB        41.4090   20.3800   58.5580 C.3    53  PRO53       0.0282
     42  CG        41.1520   18.9820   59.0050 C.3    53  PRO53       0.0208
     43  CD        41.6740   18.1640   57.8620 C.3    53  PRO53       0.0893
     44  N         44.2480   21.9090   58.9360 N.am   54  GLU54      -0.1980
     45  CA        45.1180   22.4470   59.9680 C.3    54  GLU54       0.1602
     46  C         44.3270   23.5150   60.7270 C.2    54  GLU54       0.2287
     47  O         43.3160   24.0240   60.2270 O.2    54  GLU54      -0.2864
     48  CB        46.4170   23.0080   59.3450 C.3    54  GLU54       0.0415
     49  CG        47.5020   23.4750   60.3210 C.3    54  GLU54       0.1163
     50  CD        47.6070   22.6110   61.5670 C.2    54  GLU54       0.3649
     51  OE1       47.7840   21.3790   61.4410 O.co2  54  GLU54      -0.2457
     52  OE2       47.5050   23.1670   62.6800 O.co2  54  GLU54      -0.2457
     53  N         51.0220   19.4500   70.0470 N.3    83  GLU83      -0.1231
     54  CA        50.7010   18.7580   68.7790 C.3    83  GLU83       0.1699
     55  C         49.1810   18.6940   68.5240 C.2    83  GLU83       0.2593
     56  O         48.6970   17.8560   67.7540 O.2    83  GLU83      -0.2718
     57  CB        51.3340   17.3520   68.7360 C.3    83  GLU83       0.0402
     58  CG        52.8630   17.3380   68.6570 C.3    83  GLU83       0.1161
     59  CD        53.4970   16.2220   69.4850 C.2    83  GLU83       0.3649
     60  OE1       52.8750   15.7710   70.4780 O.co2  83  GLU83      -0.2457
     61  OE2       54.6300   15.8010   69.1560 O.co2  83  GLU83      -0.2457
     62  N         48.4460   19.5860   69.1890 N.am   84  GLY84      -0.1942
     63  CA        46.9970   19.6690   69.0580 C.3    84  GLY84       0.2014
     64  C         46.2550   20.2800   70.2410 C.2    84  GLY84       0.2638
     65  O         46.8530   20.8180   71.1790 O.2    84  GLY84      -0.2714
     66  N         44.9320   20.1620   70.1900 N.am   85  GLN85      -0.1977
     67  CA        44.0540   20.8080   71.1410 C.3    85  GLN85       0.1601
     68  C         43.6720   19.8620   72.2950 C.2    85  GLN85       0.2287
     69  O         43.4040   18.6750   72.0720 O.2    85  GLN85      -0.2864
     70  CB        42.7940   21.3000   70.4190 C.3    85  GLN85       0.0394
     71  CG        43.0270   21.8850   69.0270 C.3    85  GLN85       0.0908
     72  CD        42.6100   20.9460   67.8920 C.2    85  GLN85       0.2608
     73  OE1       43.4450   20.5330   67.0890 O.2    85  GLN85      -0.2717
     74  NE2       41.3060   20.6280   67.8050 N.am   85  GLN85      -0.0878
     75  N         30.0320   18.1730   56.6280 N.3   146  ILE146     -0.1245
     76  CA        30.1430   18.1080   58.0880 C.3   146  ILE146      0.1561
     77  C         28.9160   18.6090   58.8770 C.2   146  ILE146      0.2260
     78  O         28.7050   18.1770   60.0160 O.2   146  ILE146     -0.2867
     79  CB        31.4630   18.7410   58.5870 C.3   146  ILE146      0.0252
     80  CG1       31.7480   18.3640   60.0460 C.3   146  ILE146      0.0019
     81  CG2       31.4730   20.2580   58.4090 C.3   146  ILE146      0.0019
     82  CD1       32.1290   16.9090   60.2580 C.3   146  ILE146      0.0001
     83  N         36.4040    7.9320   68.1060 N.3   197  MET197     -0.1230
     84  CA        37.7000    7.9330   67.4090 C.3   197  MET197      0.1702
     85  C         38.4300    9.2310   67.6550 C.2   197  MET197      0.2592
     86  O         39.6080    9.2250   68.0830 O.2   197  MET197     -0.2718
     87  CB        37.5890    7.6850   65.9050 C.3   197  MET197      0.0401
     88  CG        38.9490    7.5270   65.2240 C.3   197  MET197      0.0596
     89  SD        38.8040    7.5050   63.4240 S.3   197  MET197     -0.1393
     90  CE        38.4230    9.2460   63.1510 C.3   197  MET197      0.0692
     91  N         37.7400   10.3390   67.3820 N.am  198  ILE198     -0.1980
     92  CA        38.3750   11.6700   67.4820 C.3   198  ILE198      0.1595
     93  C         38.8870   11.9630   68.8850 C.2   198  ILE198      0.2287
     94  O         39.9950   12.4920   69.0490 O.2   198  ILE198     -0.2864
     95  CB        37.4390   12.8040   66.9860 C.3   198  ILE198      0.0276
     96  CG1       37.1890   12.6400   65.4820 C.3   198  ILE198      0.0022
     97  CG2       38.0470   14.1700   67.2910 C.3   198  ILE198      0.0022
     98  CD1       38.4270   12.8610   64.6190 C.3   198  ILE198      0.0001
     99  N         42.2720   10.5410   69.6020 N.3   201  TYR201     -0.1227
    100  CA        43.3260   11.0610   68.7420 C.3   201  TYR201      0.1736
    101  C         44.2880   11.9640   69.4840 C.2   201  TYR201      0.2595
    102  O         45.4860   11.9260   69.1920 O.2   201  TYR201     -0.2718
    103  CB        42.7750   11.7830   67.4900 C.3   201  TYR201      0.0548
    104  CG        43.8780   12.1810   66.5210 C.ar  201  TYR201     -0.0200
    105  CD1       44.2950   11.3050   65.5280 C.ar  201  TYR201     -0.0009
    106  CD2       44.5350   13.4240   66.6240 C.ar  201  TYR201     -0.0009
    107  CE1       45.3180   11.6460   64.6530 C.ar  201  TYR201      0.0417
    108  CE2       45.5610   13.7730   65.7480 C.ar  201  TYR201      0.0417
    109  CZ        45.9450   12.8810   64.7650 C.ar  201  TYR201      0.1957
    110  OH        46.9550   13.1880   63.8770 O.3   201  TYR201     -0.2866
    111  N         43.7930   12.7910   70.4080 N.am  202  TYR202     -0.1976
    112  CA        44.6950   13.7440   71.0750 C.3   202  TYR202      0.1639
    113  C         45.8730   13.0250   71.7350 C.2   202  TYR202      0.2290
    114  O         47.0440   13.3810   71.5110 O.2   202  TYR202     -0.2864
    115  CB        43.9920   14.6630   72.0890 C.3   202  TYR202      0.0560
    116  CG        44.9940   15.5740   72.8100 C.ar  202  TYR202     -0.0198
    117  CD1       45.5890   16.6670   72.1510 C.ar  202  TYR202     -0.0009
    118  CD2       45.3860   15.3160   74.1320 C.ar  202  TYR202     -0.0009
    119  CE1       46.5150   17.4840   72.7990 C.ar  202  TYR202      0.0417
    120  CE2       46.3150   16.1240   74.7830 C.ar  202  TYR202      0.0417
    121  CZ        46.8730   17.2050   74.1190 C.ar  202  TYR202      0.1957
    122  OH        47.7840   18.0020   74.7780 O.3   202  TYR202     -0.2866
    123  N         47.9970    9.6470   68.2050 N.3   205  HIS205     -0.1241
    124  CA        47.9080    9.9790   66.7720 C.3   205  HIS205      0.1621
    125  C         47.6500    8.7790   65.8520 C.2   205  HIS205      0.2264
    126  O         47.1750    8.9370   64.7200 O.2   205  HIS205     -0.2867
    127  CB        49.1770   10.7170   66.3210 C.3   205  HIS205      0.0745
    128  CG        49.1670   12.1870   66.6160 C.ar  205  HIS205      0.0817
    129  ND1       48.4720   12.7360   67.6760 N.ar  205  HIS205     -0.2268
    130  CD2       49.7950   13.2200   66.0040 C.ar  205  HIS205      0.1154
    131  CE1       48.6630   14.0420   67.6960 C.ar  205  HIS205      0.1986
    132  NE2       49.4650   14.3610   66.6950 N.ar  205  HIS205     -0.2212
    133  N         45.4760    6.5990   66.4340 N.3   207  CYS207     -0.1221
    134  CA        44.0790    6.1840   66.5270 C.3   207  CYS207      0.1808
    135  C         43.3260    6.5290   65.2550 C.2   207  CYS207      0.2601
    136  O         43.0320    7.6950   64.9920 O.2   207  CYS207     -0.2717
    137  CB        43.3810    6.7590   67.7630 C.3   207  CYS207      0.0970
    138  SG        41.6400    6.2960   67.8380 S.3   207  CYS207     -0.0800
    139  N         43.0280    5.5010   64.4670 N.am  208  GLU208     -0.1979
    140  CA        42.3590    5.6810   63.1870 C.3   208  GLU208      0.1602
    141  C         41.0970    4.8300   63.0310 C.2   208  GLU208      0.2287
    142  O         40.5830    4.7050   61.9300 O.2   208  GLU208     -0.2864
    143  CB        43.3180    5.3900   62.0340 C.3   208  GLU208      0.0415
    144  CG        44.5140    6.3280   61.9060 C.3   208  GLU208      0.1163
    145  CD        45.1910    6.1740   60.5410 C.2   208  GLU208      0.3649
    146  OE1       46.1360    5.3620   60.4090 O.co2 208  GLU208     -0.2457
    147  OE2       44.7520    6.8440   59.5790 O.co2 208  GLU208     -0.2457
    148  N         39.6290    5.5770   59.2240 N.3   222  MET222     -0.1245
    149  CA        40.1590    6.4950   58.2460 C.3   222  MET222      0.1570
    150  C         40.4260    5.7820   56.9080 C.2   222  MET222      0.2261
    151  O         41.2410    4.8500   56.8540 O.2   222  MET222     -0.2867
    152  CB        41.4390    7.1370   58.8050 C.3   222  MET222      0.0387
    153  CG        41.2220    8.0280   60.0270 C.3   222  MET222      0.0595
    154  SD        39.8620    9.1870   59.7750 S.3   222  MET222     -0.1393
    155  CE        40.6000   10.3490   58.6210 C.3   222  MET222      0.0692
    156  N         35.5930   18.5940   69.5230 N.3   438  LEU438     -0.1231
    157  CA        36.8820   18.7340   68.8270 C.3   438  LEU438      0.1693
    158  C         36.7150   18.8810   67.3090 C.2   438  LEU438      0.2591
    159  O         37.4990   19.5740   66.6450 O.2   438  LEU438     -0.2718
    160  CB        37.8270   17.5810   69.1690 C.3   438  LEU438      0.0284
    161  CG        38.5270   17.5390   70.5390 C.3   438  LEU438      0.0019
    162  CD1       39.0580   16.1460   70.8570 C.3   438  LEU438      0.0001
    163  CD2       39.6650   18.5540   70.6440 C.3   438  LEU438      0.0001
    164  N         35.6980   18.2190   66.7720 N.am  439  VAL439     -0.1980
    165  CA        35.3710   18.3330   65.3670 C.3   439  VAL439      0.1595
    166  C         34.7290   19.7180   65.1080 C.2   439  VAL439      0.2287
    167  O         34.9850   20.3360   64.0840 O.2   439  VAL439     -0.2864
    168  CB        34.4660   17.1660   64.8960 C.3   439  VAL439      0.0276
    169  CG1       34.0770   17.3380   63.4380 C.3   439  VAL439      0.0022
    170  CG2       35.1820   15.8200   65.0630 C.3   439  VAL439      0.0022
    171  N         37.4390   22.4500   64.8970 N.3   442  VAL442     -0.1231
    172  CA        38.1390   22.4900   63.6120 C.3   442  VAL442      0.1692
    173  C         37.2300   23.0170   62.5000 C.2   442  VAL442      0.2591
    174  O         37.6600   23.8120   61.6690 O.2   442  VAL442     -0.2718
    175  CB        38.7660   21.1360   63.2290 C.3   442  VAL442      0.0266
    176  CG1       39.1740   21.1300   61.7640 C.3   442  VAL442      0.0020
    177  CG2       39.9850   20.8780   64.0860 C.3   442  VAL442      0.0020
    178  N         35.9720   22.5980   62.5000 N.am  443  ALA443     -0.1980
    179  CA        35.0360   23.0690   61.4990 C.3   443  ALA443      0.1597
    180  C         34.7850   24.5710   61.6320 C.2   443  ALA443      0.2287
    181  O         34.5370   25.2370   60.6330 O.2   443  ALA443     -0.2864
    182  CB        33.7250   22.3140   61.5860 C.3   443  ALA443      0.0319
@<TRIPOS>BOND
     1    12    11    1
     2    30    28    1
     3    29    28    1
     4    11    10   ar
     5    11     9   ar
     6    10     8   ar
     7    28    27    2
     8     9     7   ar
     9     8     6   ar
    10    27    26    1
    11     7     6   ar
    12    26    25    1
    13     6     5    1
    14    25    24    1
    15     5     2    1
    16     2     1    1
    17     2     3    1
    18    24    21    1
    19    36    35    1
    20    75    76    1
    21   151   150    2
    22   150   149    1
    23     3     4    2
    24     3    13   am
    25    21    22    1
    26    21    20    1
    27    37    43    1
    28    37    38    1
    29    31    22   am
    30    31    32    1
    31    35    32    1
    32    33    32    1
    33    33    34    2
    34    16    15    2
    35    43    42    1
    36    38    41    1
    37    38    39    1
    38    22    23    2
    39    76    79    1
    40    76    77    1
    41    13    14    1
    42    20    15   am
    43   149   152    1
    44   149   148    1
    45    15    14    1
    46    81    79    1
    47    41    42    1
    48    79    80    1
    49   155   154    1
    50   152   153    1
    51    77    78    2
    52    39    44   am
    53    39    40    2
    54    44    45    1
    55    14    17    1
    56    48    45    1
    57    48    49    1
    58   147   145   ar
    59   154   153    1
    60    45    46    1
    61    80    82    1
    62    47    46    2
    63    49    50    1
    64    17    19    1
    65    17    18    1
    66   146   145   ar
    67   145   144    1
    68   181   180    2
    69    51    50   ar
    70   179   182    1
    71   179   180    1
    72   179   178    1
    73    50    52   ar
    74   174   173    2
    75   176   175    1
    76   144   143    1
    77   142   141    2
    78   143   140    1
    79   178   173   am
    80   173   172    1
    81   141   140    1
    82    90    89    1
    83   140   139    1
    84   175   172    1
    85   175   177    1
    86    89    88    1
    87   169   168    1
    88   172   171    1
    89   110   109    1
    90   167   166    2
    91   139   135   am
    92    98    96    1
    93   107   109   ar
    94   107   105   ar
    95   126   125    2
    96   109   108   ar
    97   168   170    1
    98   168   165    1
    99   136   135    2
   100   166   165    1
   101    88    87    1
   102   135   134    1
   103   165   164    1
   104    96    95    1
   105   105   104   ar
   106   108   106   ar
   107   125   124    1
   108    87    84    1
   109   130   128   ar
   110   130   132   ar
   111   127   128    1
   112   127   124    1
   113   133   134    1
   114   104   106   ar
   115   104   103    1
   116   134   137    1
   117   128   129   ar
   118   159   158    2
   119   132   131   ar
   120   124   123    1
   121   164   158   am
   122    95    97    1
   123    95    92    1
   124    73    72    2
   125   158   157    1
   126    91    92    1
   127    91    85   am
   128    84    85    1
   129    84    83    1
   130    92    93    1
   131   103   100    1
   132    85    86    2
   133   129   131   ar
   134    56    55    2
   135   137   138    1
   136    74    72   am
   137    72    71    1
   138    55    54    1
   139    55    62   am
   140    58    57    1
   141    58    59    1
   142    57    54    1
   143   100   101    1
   144   100    99    1
   145    54    53    1
   146   157   160    1
   147   157   156    1
   148    93    94    2
   149    71    70    1
   150    63    62    1
   151    63    64    1
   152    61    59   ar
   153   160   161    1
   154   102   101    2
   155   101   111   am
   156    59    60   ar
   157    66    64   am
   158    66    67    1
   159    64    65    2
   160   111   112    1
   161    70    67    1
   162   161   163    1
   163   161   162    1
   164   112   113    1
   165   112   115    1
   166    67    68    1
   167   114   113    2
   168    69    68    2
   169   115   116    1
   170   117   119   ar
   171   117   116   ar
   172   119   121   ar
   173   116   118   ar
   174   121   122    1
   175   121   120   ar
   176   118   120   ar
