@<TRIPOS>MOLECULE
tmp/4rcjA00.pdb
 212 209 0 0 0
SMALL
GASTEIGER

@<TRIPOS>ATOM
      1  N         -1.8630   -9.6000  -12.6460 N.3    31  LYS31      -0.1231
      2  CA        -1.7250  -10.8300  -11.9150 C.3    31  LYS31       0.1693
      3  C         -1.6620  -10.5300  -10.4220 C.2    31  LYS31       0.2593
      4  O         -1.1500   -9.4770   -9.9720 O.2    31  LYS31      -0.2718
      5  CB        -0.5090  -11.6280  -12.3990 C.3    31  LYS31       0.0285
      6  CG        -0.5430  -12.1200  -13.8570 C.3    31  LYS31       0.0035
      7  CD        -1.5570  -13.1100  -14.2450 C.3    31  LYS31       0.0206
      8  CE        -1.6200  -14.3830  -13.4710 C.3    31  LYS31       0.1093
      9  NZ        -2.3780  -15.4650  -14.2160 N.3    31  LYS31      -0.1314
     10  N         -2.1690  -11.4830   -9.6210 N.am   32  SER32      -0.1938
     11  CA        -2.0800  -11.3940   -8.1750 C.3    32  SER32       0.2055
     12  C         -1.8460  -12.7930   -7.5760 C.2    32  SER32       0.2643
     13  O         -2.4650  -13.7840   -8.0090 O.2    32  SER32      -0.2714
     14  CB        -3.4190  -10.9190   -7.5780 C.3    32  SER32       0.2130
     15  OG        -3.3280  -10.6350   -6.1490 O.3    32  SER32      -0.2179
     16  N         -0.9950  -12.8260   -6.5620 N.am   33  TYR33      -0.1959
     17  CA        -0.8690  -14.0340   -5.6990 C.3    33  TYR33       0.1771
     18  C         -1.5870  -13.9620   -4.3740 C.2    33  TYR33       0.2620
     19  O         -1.4140  -14.8650   -3.4980 O.2    33  TYR33      -0.2715
     20  CB         0.5420  -14.6040   -5.6730 C.3    33  TYR33       0.0574
     21  CG         1.5820  -13.7100   -5.1060 C.ar   33  TYR33      -0.0198
     22  CD1        1.5340  -13.2750   -3.7650 C.ar   33  TYR33      -0.0009
     23  CD2        2.6150  -13.1650   -5.9100 C.ar   33  TYR33      -0.0009
     24  CE1        2.4840  -12.3980   -3.2360 C.ar   33  TYR33       0.0417
     25  CE2        3.5670  -12.3570   -5.3480 C.ar   33  TYR33       0.0417
     26  CZ         3.4750  -11.9140   -4.0300 C.ar   33  TYR33       0.1957
     27  OH         4.4520  -11.1240   -3.5490 O.3    33  TYR33      -0.2866
     28  N         -2.5130  -12.9680   -4.2620 N.am   34  SER34      -0.1950
     29  CA        -3.4430  -12.8590   -3.1510 C.3    34  SER34       0.1924
     30  C         -4.8840  -12.7320   -3.6750 C.2    34  SER34       0.2314
     31  O         -5.2240  -11.8000   -4.4130 O.2    34  SER34      -0.2863
     32  CB        -3.1390  -11.6650   -2.2730 C.3    34  SER34       0.2116
     33  OG        -4.1330  -11.4180   -1.3060 O.3    34  SER34      -0.2180
     34  N         -6.5140   -9.7270   -1.9850 N.3    37  ASP37      -0.1239
     35  CA        -6.3440   -8.4600   -2.6520 C.3    37  ASP37       0.1674
     36  C         -7.3940   -8.1700   -3.7350 C.2    37  ASP37       0.2266
     37  O         -7.7320   -6.9540   -3.9730 O.2    37  ASP37      -0.2867
     38  CB        -4.9610   -8.3490   -3.2560 C.3    37  ASP37       0.1410
     39  CG        -3.8380   -8.1350   -2.1540 C.2    37  ASP37       0.3668
     40  OD1       -4.1280   -8.0830   -0.9430 O.co2  37  ASP37      -0.2456
     41  OD2       -2.6130   -8.1000   -2.5430 O.co2  37  ASP37      -0.2456
     42  N         -6.3210   -0.3120   -7.0670 N.3    47  TRP47      -0.1227
     43  CA        -5.3160   -1.3400   -7.3170 C.3    47  TRP47       0.1737
     44  C         -3.9440   -0.7270   -7.0490 C.2    47  TRP47       0.2596
     45  O         -3.8170    0.5050   -6.9150 O.2    47  TRP47      -0.2718
     46  CB        -5.4030   -1.9600   -8.7140 C.3    47  TRP47       0.0564
     47  CG        -4.5890   -3.2250   -8.8850 C.ar   47  TRP47       0.0003
     48  CD1       -3.5300   -3.4110   -9.7080 C.ar   47  TRP47       0.0946
     49  CD2       -4.7240   -4.4550   -8.1400 C.ar   47  TRP47       0.0152
     50  NE1       -2.9920   -4.6470   -9.5440 N.ar   47  TRP47      -0.2442
     51  CE2       -3.6630   -5.3130   -8.5650 C.ar   47  TRP47       0.0810
     52  CE3       -5.5790   -4.8770   -7.0920 C.ar   47  TRP47       0.0012
     53  CZ2       -3.5230   -6.6000   -8.1030 C.ar   47  TRP47       0.0191
     54  CZ3       -5.3930   -6.1410   -6.6320 C.ar   47  TRP47       0.0001
     55  CH2       -4.3790   -6.9800   -7.1410 C.ar   47  TRP47       0.0015
     56  N         -2.9610   -1.6280   -6.9800 N.am   48  CYS48      -0.1956
     57  CA        -1.5450   -1.2520   -6.8730 C.3    48  CYS48       0.1843
     58  C         -0.7440   -2.3780   -7.4920 C.2    48  CYS48       0.2626
     59  O         -1.0240   -3.5530   -7.1970 O.2    48  CYS48      -0.2714
     60  CB        -1.1750   -0.9800   -5.3840 C.3    48  CYS48       0.0997
     61  SG         0.5780   -0.5230   -5.1540 S.3    48  CYS48      -0.0797
     62  N          0.2710   -2.0830   -8.2750 N.am   49  SER49      -0.1936
     63  CA         1.1570   -3.1070   -8.8750 C.3    49  SER49       0.2055
     64  C          2.5510   -2.9300   -8.2080 C.2    49  SER49       0.2643
     65  O          2.7230   -2.2550   -7.1970 O.2    49  SER49      -0.2714
     66  CB         1.2050   -2.9710  -10.4130 C.3    49  SER49       0.2130
     67  OG         1.9360   -4.0070  -11.0250 O.3    49  SER49      -0.2179
     68  N          3.5580   -3.5060   -8.8430 N.am   50  THR50      -0.1950
     69  CA         4.9390   -3.1490   -8.5220 C.3    50  THR50       0.1897
     70  C          5.2160   -1.6920   -8.8900 C.2    50  THR50       0.2313
     71  O          4.4620   -1.0600   -9.6040 O.2    50  THR50      -0.2863
     72  CB         5.8990   -4.0400   -9.2820 C.3    50  THR50       0.1794
     73  OG1        5.7350   -3.8680  -10.7060 O.3    50  THR50      -0.2208
     74  CG2        5.7320   -5.5190   -8.9080 C.3    50  THR50       0.0378
     75  N         -6.2770  -11.8240  -13.1820 N.3    75  SER75      -0.1202
     76  CA        -6.1700  -13.2790  -12.9300 C.3    75  SER75       0.2020
     77  C         -5.2650  -13.6310  -11.7690 C.2    75  SER75       0.2619
     78  O         -4.1600  -13.1400  -11.7260 O.2    75  SER75      -0.2717
     79  CB        -5.6810  -13.9390  -14.2200 C.3    75  SER75       0.2103
     80  OG        -5.2810  -15.3140  -14.0290 O.3    75  SER75      -0.2182
     81  N         -5.7390  -14.4810  -10.8650 N.am   76  VAL76      -0.1965
     82  CA        -4.9310  -14.9330   -9.7450 C.3    76  VAL76       0.1727
     83  C         -3.9480  -16.0200  -10.1990 C.2    76  VAL76       0.2616
     84  O         -4.2970  -16.9380  -10.9370 O.2    76  VAL76      -0.2715
     85  CB        -5.8750  -15.4370   -8.6120 C.3    76  VAL76       0.0290
     86  CG1       -5.1260  -16.1160   -7.4740 C.3    76  VAL76       0.0023
     87  CG2       -6.7210  -14.2740   -8.0270 C.3    76  VAL76       0.0023
     88  N         -2.6750  -15.8730   -9.8050 N.am   77  ASN77      -0.1958
     89  CA        -1.6180  -16.8310  -10.1540 C.3    77  ASN77       0.1819
     90  C         -2.0550  -18.2630   -9.8050 C.2    77  ASN77       0.2622
     91  O         -2.5170  -18.5360   -8.7010 O.2    77  ASN77      -0.2715
     92  CB        -0.3520  -16.5700   -9.3090 C.3    77  ASN77       0.1195
     93  CG         0.4340  -15.3790   -9.7500 C.2    77  ASN77       0.2630
     94  OD1       -0.1120  -14.4630  -10.3560 O.2    77  ASN77      -0.2716
     95  ND2        1.7210  -15.3450   -9.3570 N.am   77  ASN77      -0.0877
     96  N         -2.0210  -19.1430  -10.8130 N.am   78  GLY78      -0.1940
     97  CA        -2.2360  -20.5510  -10.6150 C.3    78  GLY78       0.2014
     98  C         -3.6950  -21.0060  -10.5600 C.2    78  GLY78       0.2640
     99  O         -4.0120  -22.1910  -10.3450 O.2    78  GLY78      -0.2714
    100  N         -4.5950  -20.0600  -10.6910 N.am   79  SER79      -0.1935
    101  CA        -6.0330  -20.2870  -10.5370 C.3    79  SER79       0.2055
    102  C         -6.6570  -21.0200  -11.7190 C.2    79  SER79       0.2643
    103  O         -7.7800  -21.5220  -11.5630 O.2    79  SER79      -0.2714
    104  CB        -6.7640  -18.9770  -10.2880 C.3    79  SER79       0.2130
    105  OG        -6.6810  -18.1410  -11.4710 O.3    79  SER79      -0.2179
    106  N         -6.0480  -20.9110  -12.8860 N.am   80  GLY80      -0.1954
    107  CA        -6.6130  -21.4610  -14.1360 C.3    80  GLY80       0.1869
    108  C         -7.7170  -20.6380  -14.7740 C.2    80  GLY80       0.2309
    109  O         -8.3460  -21.0880  -15.7200 O.2    80  GLY80      -0.2863
    110  N         -3.8190   -4.4040    1.7200 N.3   101  TRP101     -0.1241
    111  CA        -3.3210   -5.5150    0.9600 C.3   101  TRP101      0.1605
    112  C         -2.7190   -6.5880    1.9350 C.2   101  TRP101      0.2264
    113  O         -2.4150   -6.2880    3.1120 O.2   101  TRP101     -0.2867
    114  CB        -2.2260   -5.0940    0.0060 C.3   101  TRP101      0.0550
    115  CG        -2.5400   -3.9310   -0.9130 C.ar  101  TRP101      0.0003
    116  CD1       -1.8500   -2.7810   -1.0000 C.ar  101  TRP101      0.0946
    117  CD2       -3.6460   -3.8300   -1.8190 C.ar  101  TRP101      0.0152
    118  NE1       -2.4190   -1.9600   -1.9480 N.ar  101  TRP101     -0.2442
    119  CE2       -3.5470   -2.5740   -2.4660 C.ar  101  TRP101      0.0810
    120  CE3       -4.6790   -4.6910   -2.1710 C.ar  101  TRP101      0.0012
    121  CZ2       -4.4580   -2.1740   -3.4520 C.ar  101  TRP101      0.0191
    122  CZ3       -5.6110   -4.3070   -3.1080 C.ar  101  TRP101      0.0001
    123  CH2       -5.4890   -3.0610   -3.7900 C.ar  101  TRP101      0.0015
    124  N          0.1780   -8.0050    1.9320 N.3   103  GLN103     -0.1245
    125  CA         1.6660   -7.7900    2.1370 C.3   103  GLN103      0.1566
    126  C          1.9840   -6.3030    2.1720 C.2   103  GLN103      0.2260
    127  O          1.3770   -5.5790    1.3870 O.2   103  GLN103     -0.2867
    128  CB         2.4920   -8.3990    1.0060 C.3   103  GLN103      0.0367
    129  CG         2.4280   -9.8790    0.8680 C.3   103  GLN103      0.0905
    130  CD         3.4120  -10.3000   -0.1920 C.2   103  GLN103      0.2608
    131  OE1        3.2880   -9.8690   -1.3440 O.2   103  GLN103     -0.2717
    132  NE2        4.4710  -10.9650    0.2040 N.am  103  GLN103     -0.0878
    133  N          4.6370   -4.9210    0.8930 N.3   105  LYS105     -0.1231
    134  CA         5.4120   -4.6560   -0.3260 C.3   105  LYS105      0.1693
    135  C          4.6840   -3.7430   -1.3430 C.2   105  LYS105      0.2592
    136  O          5.3330   -3.0220   -2.1550 O.2   105  LYS105     -0.2718
    137  CB         5.7660   -6.0550   -0.9090 C.3   105  LYS105      0.0285
    138  CG         5.8530   -6.2940   -2.3860 C.3   105  LYS105      0.0035
    139  CD         5.8840   -7.8110   -2.6680 C.3   105  LYS105      0.0206
    140  CE         6.6400   -8.0240   -3.9560 C.3   105  LYS105      0.1093
    141  NZ         6.6930   -9.4430   -4.4240 N.3   105  LYS105     -0.1314
    142  N          3.3370   -3.7820   -1.3800 N.am  106  TRP106     -0.1976
    143  CA         2.6010   -3.0540   -2.3780 C.3   106  TRP106      0.1640
    144  C          2.4590   -1.5640   -2.0250 C.2   106  TRP106      0.2290
    145  O          1.6700   -1.2330   -1.1600 O.2   106  TRP106     -0.2864
    146  CB         1.2150   -3.6830   -2.6160 C.3   106  TRP106      0.0576
    147  CG         1.4040   -5.1940   -2.9390 C.ar  106  TRP106      0.0006
    148  CD1        1.1790   -6.2490   -2.1130 C.ar  106  TRP106      0.0946
    149  CD2        2.1470   -5.7680   -4.0570 C.ar  106  TRP106      0.0152
    150  NE1        1.5910   -7.3910   -2.6630 N.ar  106  TRP106     -0.2442
    151  CE2        2.2260   -7.1300   -3.8530 C.ar  106  TRP106      0.0810
    152  CE3        2.7090   -5.2300   -5.2110 C.ar  106  TRP106      0.0012
    153  CZ2        2.8520   -7.9830   -4.8020 C.ar  106  TRP106      0.0191
    154  CZ3        3.2990   -6.0670   -6.1110 C.ar  106  TRP106      0.0001
    155  CH2        3.3540   -7.3720   -5.9200 C.ar  106  TRP106      0.0015
    156  N         -9.1830  -20.3560  -18.4100 N.3   122  ASN122     -0.1240
    157  CA        -8.0780  -20.1050  -19.3810 C.3   122  ASN122      0.1653
    158  C         -8.2740  -20.8680  -20.7110 C.2   122  ASN122      0.2266
    159  O         -7.8520  -20.3810  -21.7620 O.2   122  ASN122     -0.2867
    160  CB        -6.7050  -20.4100  -18.7850 C.3   122  ASN122      0.1155
    161  CG        -6.2870  -19.4360  -17.6890 C.2   122  ASN122      0.2627
    162  OD1       -6.8320  -18.3450  -17.5210 O.2   122  ASN122     -0.2716
    163  ND2       -5.2820  -19.8260  -16.9610 N.am  122  ASN122     -0.0877
    164  N          3.2580  -16.1390  -27.2460 N.3   136  LYS136     -0.1245
    165  CA         2.7060  -16.9110  -26.1390 C.3   136  LYS136      0.1561
    166  C          1.2020  -16.6460  -26.0100 C.2   136  LYS136      0.2260
    167  O          0.7160  -15.5800  -26.3550 O.2   136  LYS136     -0.2867
    168  CB         3.4090  -16.5980  -24.8410 C.3   136  LYS136      0.0271
    169  CG         4.8800  -16.9840  -24.8570 C.3   136  LYS136      0.0035
    170  CD         5.5780  -16.4410  -23.6670 C.3   136  LYS136      0.0206
    171  CE         6.9940  -16.9570  -23.5920 C.3   136  LYS136      0.1093
    172  NZ         7.5240  -16.4960  -22.2920 N.3   136  LYS136     -0.1314
    173  N         -3.1030  -16.1660  -21.8360 N.3   139  THR139     -0.1203
    174  CA        -3.2620  -16.7940  -20.5370 C.3   139  THR139      0.1994
    175  C         -1.8970  -17.0890  -19.8070 C.2   139  THR139      0.2618
    176  O         -1.8980  -17.4920  -18.6430 O.2   139  THR139     -0.2717
    177  CB        -4.0940  -18.0950  -20.6960 C.3   139  THR139      0.1784
    178  OG1       -3.4630  -18.9230  -21.6920 O.3   139  THR139     -0.2211
    179  CG2       -5.5480  -17.8580  -21.1620 C.3   139  THR139      0.0376
    180  N         -0.7530  -16.9200  -20.5010 N.am  140  ASN140     -0.1960
    181  CA         0.6030  -17.1380  -19.9400 C.3   140  ASN140      0.1819
    182  C          1.4180  -15.8400  -19.6870 C.2   140  ASN140      0.2622
    183  O          2.7070  -15.8260  -19.6580 O.2   140  ASN140     -0.2715
    184  CB         1.4080  -18.1280  -20.8150 C.3   140  ASN140      0.1195
    185  CG         0.6620  -19.4340  -21.0470 C.2   140  ASN140      0.2630
    186  OD1       -0.3430  -19.4670  -21.7580 O.2   140  ASN140     -0.2716
    187  ND2        1.1300  -20.5010  -20.4390 N.am  140  ASN140     -0.0877
    188  N          0.6940  -14.7730  -19.4310 N.am  141  SER141     -0.1936
    189  CA         1.2120  -13.4560  -19.2500 C.3   141  SER141      0.2055
    190  C          1.6310  -13.2020  -17.8030 C.2   141  SER141      0.2643
    191  O          1.0080  -13.7210  -16.8490 O.2   141  SER141     -0.2714
    192  CB         0.1370  -12.4550  -19.6310 C.3   141  SER141      0.2130
    193  OG        -0.2380  -12.5610  -20.9890 O.3   141  SER141     -0.2179
    194  N          2.6860  -12.4140  -17.6720 N.am  142  ARG142     -0.1963
    195  CA         3.1150  -11.7910  -16.4000 C.3   142  ARG142      0.1729
    196  C          2.2680  -10.5720  -16.1070 C.2   142  ARG142      0.2616
    197  O          1.6480   -9.9730  -16.9710 O.2   142  ARG142     -0.2715
    198  CB         4.5780  -11.3540  -16.4720 C.3   142  ARG142      0.0348
    199  CG         5.4820  -12.5180  -16.7910 C.3   142  ARG142      0.0492
    200  CD         5.8200  -13.2920  -15.5750 C.3   142  ARG142      0.2205
    201  NE         7.0690  -14.0450  -15.7620 N.pl3 142  ARG142     -0.0865
    202  CZ         7.6050  -14.8080  -14.8160 C.cat 142  ARG142      0.5346
    203  NH1        6.9970  -14.9330  -13.6190 N.pl3 142  ARG142      0.1354
    204  NH2        8.7440  -15.4490  -15.0570 N.pl3 142  ARG142      0.1354
    205  N          2.3810  -10.1000  -14.8810 N.am  143  ASP143     -0.1971
    206  CA         1.7930   -8.8290  -14.4740 C.3   143  ASP143      0.1709
    207  C          2.1640   -7.6500  -15.3990 C.2   143  ASP143      0.2293
    208  O          3.3470   -7.4530  -15.7000 O.2   143  ASP143     -0.2864
    209  CB         2.2540   -8.5440  -13.0280 C.3   143  ASP143      0.1436
    210  CG         1.4590   -7.4620  -12.3550 C.2   143  ASP143      0.3671
    211  OD1        0.1940   -7.4350  -12.5460 O.co2 143  ASP143     -0.2456
    212  OD2        2.0980   -6.6200  -11.6460 O.co2 143  ASP143     -0.2456
@<TRIPOS>BOND
     1   164   165    1
     2   167   166    2
     3   165   166    1
     4   165   168    1
     5   169   168    1
     6   169   170    1
     7   170   171    1
     8   171   172    1
     9   173   174    1
    10   159   158    2
    11   186   185    2
    12   178   177    1
    13   179   177    1
    14   185   184    1
    15   185   187   am
    16   193   192    1
    17   184   181    1
    18   158   157    1
    19   177   174    1
    20   174   175    1
    21   180   181    1
    22   180   175   am
    23   181   182    1
    24   175   176    2
    25   182   183    2
    26   182   188   am
    27   192   189    1
    28   188   189    1
    29   157   160    1
    30   157   156    1
    31   189   190    1
    32   160   161    1
    33   190   194   am
    34   190   191    2
    35   161   162    2
    36   161   163   am
    37   194   195    1
    38   197   196    2
    39   199   198    1
    40   199   200    1
    41   198   195    1
    42   195   196    1
    43   196   205   am
    44   201   200    1
    45   201   202    2
    46   109   108    2
    47   208   207    2
    48   207   206    1
    49   204   202    1
    50   205   206    1
    51   202   203    1
    52   108   107    1
    53   206   209    1
    54     7     6    1
    55     7     8    1
    56    79    80    1
    57    79    76    1
    58     9     8    1
    59   107   106    1
    60     6     5    1
    61    75    76    1
    62   209   210    1
    63    76    77    1
    64   106   102   am
    65     1     2    1
    66   211   210   ar
    67     5     2    1
    68   210   212   ar
    69     2     3    1
    70    77    78    2
    71    77    81   am
    72   102   103    2
    73   102   101    1
    74   105   104    1
    75    67    66    1
    76    84    83    2
    77    81    82    1
    78    96    97    1
    79    96    90   am
    80    73    72    1
    81   100    98   am
    82   100   101    1
    83    97    98    1
    84    98    99    2
    85   101   104    1
    86     3     4    2
    87     3    10   am
    88    66    63    1
    89    94    93    2
    90    83    88   am
    91    83    82    1
    92    89    90    1
    93    89    88    1
    94    89    92    1
    95    90    91    2
    96    93    95   am
    97    93    92    1
    98    82    85    1
    99    48    50   ar
   100    48    47   ar
   101    10    11    1
   102    71    70    2
   103    50    51   ar
   104    72    74    1
   105    72    69    1
   106    70    69    1
   107    47    46    1
   108    47    49   ar
   109    63    62    1
   110    63    64    1
   111    68    69    1
   112    68    64   am
   113    46    43    1
   114    85    87    1
   115    85    86    1
   116    51    49   ar
   117    51    53   ar
   118    62    58   am
   119    64    65    2
   120    11    14    1
   121    11    12    1
   122    49    52   ar
   123    53    55   ar
   124    13    12    2
   125    14    15    1
   126    12    16   am
   127    58    59    2
   128    58    57    1
   129    43    42    1
   130    43    44    1
   131    55    54   ar
   132    52    54   ar
   133    44    56   am
   134    44    45    2
   135    56    57    1
   136    57    60    1
   137    16    17    1
   138   154   155   ar
   139   154   152   ar
   140   155   153   ar
   141    23    25   ar
   142    23    21   ar
   143    17    20    1
   144    17    18    1
   145    20    21    1
   146    60    61    1
   147    25    26   ar
   148   152   149   ar
   149    21    22   ar
   150   153   151   ar
   151   141   140    1
   152    31    30    2
   153    18    28   am
   154    18    19    2
   155    28    29    1
   156   149   151   ar
   157   149   147   ar
   158    26    27    1
   159    26    24   ar
   160    37    36    2
   161   140   139    1
   162   151   150   ar
   163   123   121   ar
   164   123   122   ar
   165    22    24   ar
   166    36    35    1
   167    30    29    1
   168   121   119   ar
   169    38    35    1
   170    38    39    1
   171    29    32    1
   172   122   120   ar
   173   147   146    1
   174   147   148   ar
   175   139   138    1
   176   150   148   ar
   177    35    34    1
   178   146   143    1
   179    41    39   ar
   180   119   118   ar
   181   119   117   ar
   182   138   137    1
   183   143   144    1
   184   143   142    1
   185    32    33    1
   186   120   117   ar
   187   136   135    2
   188    39    40   ar
   189   144   145    2
   190   118   116   ar
   191   117   115   ar
   192   142   135   am
   193   131   130    2
   194   135   134    1
   195   116   115   ar
   196   115   114    1
   197   137   134    1
   198   134   133    1
   199   130   132   am
   200   130   129    1
   201   114   111    1
   202   129   128    1
   203   111   110    1
   204   111   112    1
   205   128   125    1
   206   127   126    2
   207   124   125    1
   208   112   113    2
   209   125   126    1
