@<TRIPOS>MOLECULE
tmp/4rcmA00.pdb
 123 122 0 0 0
SMALL
GASTEIGER

@<TRIPOS>ATOM
      1  N         12.4010  -49.4390   65.3550 N.3    22  LYS22      -0.1231
      2  CA        11.4690  -48.2920   65.5640 C.3    22  LYS22       0.1693
      3  C         11.9210  -47.2180   64.6030 C.2    22  LYS22       0.2593
      4  O         13.1070  -46.7770   64.6240 O.2    22  LYS22      -0.2718
      5  CB        11.5110  -47.7400   67.0000 C.3    22  LYS22       0.0285
      6  CG        11.1660  -48.7190   68.0980 C.3    22  LYS22       0.0035
      7  CD         9.7450  -49.2700   67.9740 C.3    22  LYS22       0.0206
      8  CE         8.6520  -48.2130   68.1480 C.3    22  LYS22       0.1093
      9  NZ         7.2870  -48.8220   68.2520 N.3    22  LYS22      -0.1314
     10  N         11.0380  -46.8850   63.6980 N.am   23  SER23      -0.1938
     11  CA        11.3010  -45.8370   62.7160 C.3    23  SER23       0.2055
     12  C         10.6140  -44.5470   63.1330 C.2    23  SER23       0.2644
     13  O          9.4510  -44.5770   63.6070 O.2    23  SER23      -0.2714
     14  CB        10.7590  -46.2690   61.3440 C.3    23  SER23       0.2130
     15  OG        10.7840  -45.1840   60.4460 O.3    23  SER23      -0.2179
     16  N         11.2990  -43.4300   62.9130 N.am   24  SER24      -0.1935
     17  CA        10.7170  -42.0810   63.0830 C.3    24  SER24       0.2055
     18  C          9.5730  -41.7090   62.1040 C.2    24  SER24       0.2643
     19  O          8.8220  -40.7690   62.4050 O.2    24  SER24      -0.2714
     20  CB        11.8420  -41.0220   63.0260 C.3    24  SER24       0.2130
     21  OG        12.6560  -41.1030   64.2060 O.3    24  SER24      -0.2179
     22  N          9.4110  -42.4480   60.9800 N.am   25  SER25      -0.1949
     23  CA         8.4630  -42.0920   59.9420 C.3    25  SER25       0.1924
     24  C          7.8940  -43.2640   59.1200 C.2    25  SER25       0.2314
     25  O          8.5920  -44.2160   58.7680 O.2    25  SER25      -0.2863
     26  CB         9.0880  -41.0890   58.9700 C.3    25  SER25       0.2116
     27  OG        10.3090  -41.5800   58.4470 O.3    25  SER25      -0.2180
     28  N         10.1940  -43.3960   55.8900 N.3    28  HIS28      -0.1241
     29  CA        11.3550  -44.2700   55.8900 C.3    28  HIS28       0.1621
     30  C         11.0140  -45.7590   55.7870 C.2    28  HIS28       0.2264
     31  O         11.7610  -46.4710   55.1830 O.2    28  HIS28      -0.2867
     32  CB        12.2660  -44.0570   57.1200 C.3    28  HIS28       0.0745
     33  CG        13.1280  -42.8500   57.0160 C.ar   28  HIS28       0.0817
     34  ND1       14.2680  -42.6790   57.7750 N.ar   28  HIS28      -0.2268
     35  CD2       13.0560  -41.7810   56.1910 C.ar   28  HIS28       0.1154
     36  CE1       14.8390  -41.5380   57.4480 C.ar   28  HIS28       0.1986
     37  NE2       14.1180  -40.9710   56.4930 N.ar   28  HIS28      -0.2212
     38  N         18.0040  -50.9250   55.0100 N.3    38  TRP38      -0.1227
     39  CA        17.7410  -50.2460   56.2550 C.3    38  TRP38       0.1737
     40  C         19.0500  -49.8220   56.8800 C.2    38  TRP38       0.2596
     41  O         20.1240  -50.3950   56.5920 O.2    38  TRP38      -0.2718
     42  CB        16.9290  -51.1220   57.2350 C.3    38  TRP38       0.0564
     43  CG        16.4650  -50.3390   58.4400 C.ar   38  TRP38       0.0003
     44  CD1       16.9410  -50.4410   59.7070 C.ar   38  TRP38       0.0946
     45  CD2       15.4950  -49.2690   58.4550 C.ar   38  TRP38       0.0152
     46  NE1       16.2690  -49.5660   60.5390 N.ar   38  TRP38      -0.2442
     47  CE2       15.3910  -48.8210   59.7920 C.ar   38  TRP38       0.0810
     48  CE3       14.6630  -48.6890   57.4770 C.ar   38  TRP38       0.0012
     49  CZ2       14.5070  -47.8090   60.1800 C.ar   38  TRP38       0.0191
     50  CZ3       13.7720  -47.6520   57.8740 C.ar   38  TRP38       0.0001
     51  CH2       13.7000  -47.2490   59.2250 C.ar   38  TRP38       0.0015
     52  N         18.9690  -48.7410   57.6510 N.am   39  SER39      -0.1938
     53  CA        20.0890  -48.2370   58.4750 C.3    39  SER39       0.2055
     54  C         19.5160  -47.9370   59.8470 C.2    39  SER39       0.2644
     55  O         18.4570  -47.2740   59.9550 O.2    39  SER39      -0.2714
     56  CB        20.6840  -46.9210   57.9280 C.3    39  SER39       0.2130
     57  OG        21.5370  -47.0940   56.7970 O.3    39  SER39      -0.2179
     58  N         20.1710  -48.4380   60.8840 N.am   40  SER40      -0.1935
     59  CA        19.8570  -48.0410   62.2920 C.3    40  SER40       0.2055
     60  C         20.8770  -46.9680   62.6380 C.2    40  SER40       0.2643
     61  O         21.4510  -46.3800   61.7330 O.2    40  SER40      -0.2714
     62  CB        19.9760  -49.2220   63.2780 C.3    40  SER40       0.2130
     63  OG        19.3490  -48.9330   64.5700 O.3    40  SER40      -0.2179
     64  N         21.0610  -46.6910   63.9350 N.am   41  THR41      -0.1950
     65  CA        22.0990  -45.7890   64.4180 C.3    41  THR41       0.1897
     66  C         23.3910  -46.5490   64.3230 C.2    41  THR41       0.2313
     67  O         23.3630  -47.7490   64.0290 O.2    41  THR41      -0.2863
     68  CB        21.8100  -45.3550   65.8850 C.3    41  THR41       0.1794
     69  OG1       21.4900  -46.4950   66.6940 O.3    41  THR41      -0.2208
     70  CG2       20.6380  -44.4610   65.9200 C.3    41  THR41       0.0378
     71  N          7.3880  -45.1980   65.7830 N.3    68  ASN68      -0.1240
     72  CA         7.2670  -44.5250   67.0720 C.3    68  ASN68       0.1653
     73  C          6.0260  -43.6280   67.1380 C.2    68  ASN68       0.2266
     74  O          5.5310  -43.1120   66.0980 O.2    68  ASN68      -0.2867
     75  CB         8.5280  -43.7180   67.4170 C.3    68  ASN68       0.1155
     76  CG         8.6710  -43.4890   68.9140 C.2    68  ASN68       0.2627
     77  OD1        8.4940  -44.4200   69.7070 O.2    68  ASN68      -0.2716
     78  ND2        8.9960  -42.2570   69.3130 N.am   68  ASN68      -0.0877
     79  N         17.5550  -41.5350   53.0780 N.3    92  TRP92      -0.1241
     80  CA        17.1810  -41.1380   54.4440 C.3    92  TRP92       0.1605
     81  C         17.2740  -39.6030   54.5860 C.2    92  TRP92       0.2264
     82  O         18.3140  -39.0100   54.3150 O.2    92  TRP92      -0.2867
     83  CB        18.0800  -41.8060   55.5160 C.3    92  TRP92       0.0550
     84  CG        18.3030  -43.3480   55.3620 C.ar   92  TRP92       0.0003
     85  CD1       19.4880  -44.0000   55.4190 C.ar   92  TRP92       0.0946
     86  CD2       17.3150  -44.3390   55.1370 C.ar   92  TRP92       0.0152
     87  NE1       19.3120  -45.3530   55.2110 N.ar   92  TRP92      -0.2442
     88  CE2       17.9790  -45.5880   55.0550 C.ar   92  TRP92       0.0810
     89  CE3       15.9210  -44.3070   54.9980 C.ar   92  TRP92       0.0012
     90  CZ2       17.3180  -46.7650   54.8420 C.ar   92  TRP92       0.0191
     91  CZ3       15.2730  -45.4890   54.7630 C.ar   92  TRP92       0.0001
     92  CH2       15.9630  -46.6950   54.6880 C.ar   92  TRP92       0.0015
     93  N         22.1590  -41.6980   61.0980 N.3    98  TYR98      -0.1241
     94  CA        22.1430  -43.1700   60.9390 C.3    98  TYR98       0.1605
     95  C         23.4950  -43.5940   60.3910 C.2    98  TYR98       0.2264
     96  O         24.2620  -42.7380   59.9170 O.2    98  TYR98      -0.2867
     97  CB        21.0140  -43.5610   59.9790 C.3    98  TYR98       0.0534
     98  CG        19.7410  -42.8480   60.3180 C.ar   98  TYR98      -0.0201
     99  CD1       19.1910  -42.9710   61.5890 C.ar   98  TYR98      -0.0009
    100  CD2       19.0990  -41.9940   59.3970 C.ar   98  TYR98      -0.0009
    101  CE1       18.0290  -42.2960   61.9500 C.ar   98  TYR98       0.0417
    102  CE2       17.9230  -41.3060   59.7490 C.ar   98  TYR98       0.0417
    103  CZ        17.3870  -41.4660   61.0380 C.ar   98  TYR98       0.1957
    104  OH        16.2130  -40.8250   61.4330 O.3    98  TYR98      -0.2866
    105  N         12.3090  -50.3350   72.5450 N.3   134  ARG134     -0.1231
    106  CA        13.0610  -49.3630   71.8180 C.3   134  ARG134      0.1694
    107  C         13.7670  -50.0290   70.6190 C.2   134  ARG134      0.2592
    108  O         13.6290  -51.2350   70.3780 O.2   134  ARG134     -0.2718
    109  CB        14.1140  -48.7060   72.7340 C.3   134  ARG134      0.0321
    110  CG        13.5760  -47.8870   73.9140 C.3   134  ARG134      0.0489
    111  CD        14.7270  -47.5220   74.8540 C.3   134  ARG134      0.2205
    112  NE        15.3370  -48.7160   75.4680 N.pl3 134  ARG134     -0.0865
    113  CZ        15.0310  -49.2040   76.6730 C.cat 134  ARG134      0.5346
    114  NH1       14.1160  -48.6210   77.4500 N.pl3 134  ARG134      0.1354
    115  NH2       15.6450  -50.2910   77.1100 N.pl3 134  ARG134      0.1354
    116  N         14.5700  -49.2340   69.9190 N.am  135  ASP135     -0.1974
    117  CA        15.1440  -49.6230   68.6490 C.3   135  ASP135      0.1709
    118  C         16.2130  -50.6640   68.8420 C.2   135  ASP135      0.2293
    119  O         17.1350  -50.5040   69.6660 O.2   135  ASP135     -0.2864
    120  CB        15.6920  -48.3710   67.9120 C.3   135  ASP135      0.1436
    121  CG        16.1110  -48.6640   66.4920 C.2   135  ASP135      0.3671
    122  OD1       15.2850  -49.2480   65.7260 O.co2 135  ASP135     -0.2456
    123  OD2       17.2510  -48.2990   66.0980 O.co2 135  ASP135     -0.2456
@<TRIPOS>BOND
     1    79    80    1
     2    82    81    2
     3    80    81    1
     4    80    83    1
     5    92    91   ar
     6    92    90   ar
     7    91    89   ar
     8    90    88   ar
     9    89    86   ar
    10    38    39    1
    11    88    86   ar
    12    88    87   ar
    13    86    84   ar
    14    31    30    2
    15    87    85   ar
    16    84    85   ar
    17    84    83    1
    18    30    29    1
    19    29    28    1
    20    29    32    1
    21    35    37   ar
    22    35    33   ar
    23    39    40    1
    24    39    42    1
    25    37    36   ar
    26    41    40    2
    27    57    56    1
    28    40    52   am
    29    33    32    1
    30    33    34   ar
    31    42    43    1
    32    36    34   ar
    33    48    50   ar
    34    48    45   ar
    35    52    53    1
    36    50    51   ar
    37    56    53    1
    38    43    45   ar
    39    43    44   ar
    40    27    26    1
    41    45    47   ar
    42    53    54    1
    43    25    24    2
    44    26    23    1
    45    24    23    1
    46    51    49   ar
    47   100   102   ar
    48   100    98   ar
    49    44    46   ar
    50   102   103   ar
    51    47    49   ar
    52    47    46   ar
    53    54    55    2
    54    54    58   am
    55    96    95    2
    56    23    22    1
    57    97    98    1
    58    97    94    1
    59    98    99   ar
    60    95    94    1
    61    15    14    1
    62    58    59    1
    63    94    93    1
    64    22    18   am
    65   103   104    1
    66   103   101   ar
    67    14    11    1
    68    99   101   ar
    69    61    60    2
    70    18    19    2
    71    18    17    1
    72    59    60    1
    73    59    62    1
    74    60    64   am
    75    11    12    1
    76    11    10    1
    77    16    17    1
    78    16    12   am
    79    20    17    1
    80    20    21    1
    81    12    13    2
    82    62    63    1
    83    10     3   am
    84    64    65    1
    85    67    66    2
    86    66    65    1
    87    65    68    1
    88     3     4    2
    89     3     2    1
    90     1     2    1
    91     2     5    1
    92   122   121   ar
    93    71    72    1
    94    68    70    1
    95    68    69    1
    96    74    73    2
    97   123   121   ar
    98   121   120    1
    99     5     6    1
   100    72    73    1
   101    72    75    1
   102    75    76    1
   103   120   117    1
   104     7     6    1
   105     7     8    1
   106     8     9    1
   107   117   118    1
   108   117   116    1
   109   118   119    2
   110    76    78   am
   111    76    77    2
   112   116   107   am
   113   108   107    2
   114   107   106    1
   115   106   105    1
   116   106   109    1
   117   109   110    1
   118   110   111    1
   119   111   112    1
   120   112   113    2
   121   113   115    1
   122   113   114    1
