@<TRIPOS>MOLECULE
tmp/4rcpA00.pdb
 198 197 0 0 0
SMALL
GASTEIGER

@<TRIPOS>ATOM
      1  N          1.7240    4.2890   16.6470 N.3    41  SER41      -0.1202
      2  CA         0.9630    4.7730   17.7910 C.3    41  SER41       0.2020
      3  C         -0.2970    3.9520   18.0510 C.2    41  SER41       0.2619
      4  O         -0.7380    3.8330   19.1940 O.2    41  SER41      -0.2717
      5  CB         0.6060    6.2470   17.5900 C.3    41  SER41       0.2103
      6  OG         0.0590    6.4700   16.3020 O.3    41  SER41      -0.2182
      7  N         -0.8690    3.3900   16.9910 N.am   42  LYS42      -0.1965
      8  CA        -2.0750    2.5670   17.1050 C.3    42  LYS42       0.1728
      9  C         -2.1080    1.5590   15.9650 C.2    42  LYS42       0.2616
     10  O         -1.4610    1.7530   14.9390 O.2    42  LYS42      -0.2715
     11  CB        -3.3440    3.4160   16.9810 C.3    42  LYS42       0.0311
     12  CG        -3.3540    4.7160   17.7360 C.3    42  LYS42       0.0038
     13  CD        -4.6820    5.4120   17.5100 C.3    42  LYS42       0.0206
     14  CE        -4.7860    6.6760   18.3320 C.3    42  LYS42       0.1093
     15  NZ        -6.1530    7.2490   18.2430 N.3    42  LYS42      -0.1314
     16  N         -2.8690    0.4840   16.1470 N.am   43  TRP43      -0.1960
     17  CA        -3.0190   -0.5160   15.0940 C.3    43  TRP43       0.1771
     18  C         -4.3200   -1.2930   15.2460 C.2    43  TRP43       0.2620
     19  O         -4.8680   -1.4140   16.3440 O.2    43  TRP43      -0.2715
     20  CB        -1.8310   -1.4920   15.0540 C.3    43  TRP43       0.0590
     21  CG        -1.5760   -2.2340   16.3290 C.ar   43  TRP43       0.0006
     22  CD1       -0.6910   -1.8930   17.3110 C.ar   43  TRP43       0.0946
     23  CD2       -2.2320   -3.4280   16.7750 C.ar   43  TRP43       0.0152
     24  NE1       -0.7550   -2.7970   18.3420 N.ar   43  TRP43      -0.2442
     25  CE2       -1.6940   -3.7500   18.0410 C.ar   43  TRP43       0.0810
     26  CE3       -3.2250   -4.2550   16.2290 C.ar   43  TRP43       0.0012
     27  CZ2       -2.1150   -4.8650   18.7750 C.ar   43  TRP43       0.0191
     28  CZ3       -3.6460   -5.3650   16.9610 C.ar   43  TRP43       0.0001
     29  CH2       -3.0880   -5.6570   18.2230 C.ar   43  TRP43       0.0015
     30  N         -4.8220   -1.7910   14.1220 N.am   44  VAL44      -0.1963
     31  CA        -6.0500   -2.5680   14.1050 C.3    44  VAL44       0.1727
     32  C         -5.8410   -3.7870   13.2240 C.2    44  VAL44       0.2616
     33  O         -5.5520   -3.6590   12.0370 O.2    44  VAL44      -0.2715
     34  CB        -7.2290   -1.7510   13.5450 C.3    44  VAL44       0.0290
     35  CG1       -8.4820   -2.6110   13.4980 C.3    44  VAL44       0.0023
     36  CG2       -7.4630   -0.5270   14.4130 C.3    44  VAL44       0.0023
     37  N         -5.9720   -4.9670   13.8170 N.am   45  ASP45      -0.1957
     38  CA        -5.8070   -6.2110   13.0780 C.3    45  ASP45       0.1840
     39  C         -7.1660   -6.6590   12.5390 C.2    45  ASP45       0.2622
     40  O         -7.9830   -7.2190   13.2710 O.2    45  ASP45      -0.2715
     41  CB        -5.2190   -7.2880   13.9920 C.3    45  ASP45       0.1450
     42  CG        -5.0580   -8.6230   13.2920 C.2    45  ASP45       0.3671
     43  OD1       -5.4030   -8.7140   12.0970 O.co2  45  ASP45      -0.2456
     44  OD2       -4.5850   -9.5780   13.9460 O.co2  45  ASP45      -0.2456
     45  N         -7.4070   -6.3890   11.2610 N.am   46  TYR46      -0.1974
     46  CA        -8.6620   -6.7730   10.6220 C.3    46  TYR46       0.1639
     47  C         -8.2890   -7.7910    9.5530 C.2    46  TYR46       0.2290
     48  O         -8.7910   -7.7520    8.4290 O.2    46  TYR46      -0.2864
     49  CB        -9.3340   -5.5400    9.9960 C.3    46  TYR46       0.0560
     50  CG       -10.8270   -5.6770    9.7370 C.ar   46  TYR46      -0.0198
     51  CD1      -11.6110   -4.5490    9.5030 C.ar   46  TYR46      -0.0009
     52  CD2      -11.4500   -6.9290    9.7060 C.ar   46  TYR46      -0.0009
     53  CE1      -12.9780   -4.6550    9.2450 C.ar   46  TYR46       0.0417
     54  CE2      -12.8210   -7.0480    9.4450 C.ar   46  TYR46       0.0417
     55  CZ       -13.5750   -5.9060    9.2160 C.ar   46  TYR46       0.1957
     56  OH       -14.9220   -6.0070    8.9460 O.3    46  TYR46      -0.2866
     57  N         -9.5380   -7.6680    5.6100 N.3    50  TYR50      -0.1241
     58  CA        -8.7320   -6.7120    4.8550 C.3    50  TYR50       0.1605
     59  C         -7.2310   -6.6670    5.1070 C.2    50  TYR50       0.2264
     60  O         -6.4490   -6.5550    4.1660 O.2    50  TYR50      -0.2867
     61  CB        -9.3120   -5.3100    5.0600 C.3    50  TYR50       0.0534
     62  CG       -10.8030   -5.2350    4.8120 C.ar   50  TYR50      -0.0201
     63  CD1      -11.6840   -4.9130    5.8410 C.ar   50  TYR50      -0.0009
     64  CD2      -11.3300   -5.4830    3.5470 C.ar   50  TYR50      -0.0009
     65  CE1      -13.0600   -4.8350    5.6140 C.ar   50  TYR50       0.0417
     66  CE2      -12.7050   -5.4100    3.3090 C.ar   50  TYR50       0.0417
     67  CZ       -13.5600   -5.0840    4.3470 C.ar   50  TYR50       0.1957
     68  OH       -14.9140   -5.0010    4.1150 O.3    50  TYR50      -0.2866
     69  N        -10.8320    1.6140    2.0410 N.3   107  LEU107     -0.1245
     70  CA       -10.5190    0.8130    3.2170 C.3   107  LEU107      0.1561
     71  C         -9.5670    1.5770    4.1270 C.2   107  LEU107      0.2260
     72  O         -9.7210    1.5640    5.3450 O.2   107  LEU107     -0.2867
     73  CB        -9.8960   -0.5250    2.8020 C.3   107  LEU107      0.0270
     74  CG       -10.8730   -1.5090    2.1550 C.3   107  LEU107      0.0019
     75  CD1      -10.1360   -2.7730    1.7230 C.3   107  LEU107      0.0001
     76  CD2      -11.9750   -1.8480    3.1510 C.3   107  LEU107      0.0001
     77  N        -11.4440    4.1260    6.1000 N.3   110  TYR110     -0.1227
     78  CA       -12.1700    3.5500    7.2290 C.3   110  TYR110      0.1736
     79  C        -11.2250    3.3160    8.4080 C.2   110  TYR110      0.2595
     80  O        -11.5800    3.5730    9.5550 O.2   110  TYR110     -0.2718
     81  CB       -12.8360    2.2270    6.8390 C.3   110  TYR110      0.0548
     82  CG       -14.2130    2.3790    6.2310 C.ar  110  TYR110     -0.0200
     83  CD1      -14.3740    2.6710    4.8800 C.ar  110  TYR110     -0.0009
     84  CD2      -15.3580    2.2360    7.0150 C.ar  110  TYR110     -0.0009
     85  CE1      -15.6460    2.8150    4.3200 C.ar  110  TYR110      0.0417
     86  CE2      -16.6320    2.3790    6.4680 C.ar  110  TYR110      0.0417
     87  CZ       -16.7680    2.6670    5.1190 C.ar  110  TYR110      0.1957
     88  OH       -18.0260    2.7990    4.5670 O.3   110  TYR110     -0.2866
     89  N        -10.0220    2.8240    8.1250 N.am  111  PHE111     -0.1976
     90  CA        -9.0430    2.5830    9.1820 C.3   111  PHE111      0.1639
     91  C         -8.6510    3.9160    9.8110 C.2   111  PHE111      0.2290
     92  O         -8.5690    4.0470   11.0340 O.2   111  PHE111     -0.2864
     93  CB        -7.7810    1.9130    8.6200 C.3   111  PHE111      0.0560
     94  CG        -7.8670    0.4110    8.5270 C.ar  111  PHE111     -0.0200
     95  CD1       -7.9450   -0.2210    7.2890 C.ar  111  PHE111     -0.0042
     96  CD2       -7.8210   -0.3730    9.6760 C.ar  111  PHE111     -0.0042
     97  CE1       -7.9710   -1.6160    7.1940 C.ar  111  PHE111     -0.0003
     98  CE2       -7.8470   -1.7680    9.5930 C.ar  111  PHE111     -0.0003
     99  CZ        -7.9210   -2.3900    8.3460 C.ar  111  PHE111     -0.0000
    100  N        -11.4100    5.3540   12.0460 N.3   114  TYR114     -0.1241
    101  CA       -11.4980    4.6100   13.2980 C.3   114  TYR114      0.1605
    102  C        -10.3670    5.0030   14.2530 C.2   114  TYR114      0.2264
    103  O        -10.6030    5.3180   15.4180 O.2   114  TYR114     -0.2867
    104  CB       -11.4310    3.1020   13.0370 C.3   114  TYR114      0.0534
    105  CG       -11.5310    2.2750   14.3010 C.ar  114  TYR114     -0.0201
    106  CD1      -12.7690    1.9970   14.8800 C.ar  114  TYR114     -0.0009
    107  CD2      -10.3830    1.8170   14.9450 C.ar  114  TYR114     -0.0009
    108  CE1      -12.8600    1.2810   16.0780 C.ar  114  TYR114      0.0417
    109  CE2      -10.4590    1.1050   16.1400 C.ar  114  TYR114      0.0417
    110  CZ       -11.6980    0.8430   16.7010 C.ar  114  TYR114      0.1957
    111  OH       -11.7700    0.1560   17.8870 O.3   114  TYR114     -0.2866
    112  N         -8.9350    4.4080   20.4540 N.3   119  LEU119     -0.1231
    113  CA        -7.6380    3.9140   20.9170 C.3   119  LEU119      0.1693
    114  C         -6.6460    4.9800   21.3720 C.2   119  LEU119      0.2591
    115  O         -6.6740    6.1230   20.9130 O.2   119  LEU119     -0.2718
    116  CB        -6.9860    3.0490   19.8310 C.3   119  LEU119      0.0284
    117  CG        -7.8570    2.0110   19.1110 C.3   119  LEU119      0.0019
    118  CD1       -6.9790    1.1790   18.1810 C.3   119  LEU119      0.0001
    119  CD2       -8.5620    1.1140   20.1220 C.3   119  LEU119      0.0001
    120  N         -5.7600    4.5820   22.2780 N.am  120  LEU120     -0.1980
    121  CA        -4.7390    5.4780   22.8100 C.3   120  LEU120      0.1596
    122  C         -3.5900    5.5840   21.8170 C.2   120  LEU120      0.2287
    123  O         -3.3720    4.6770   21.0140 O.2   120  LEU120     -0.2864
    124  CB        -4.1800    4.9350   24.1290 C.3   120  LEU120      0.0297
    125  CG        -5.1150    4.6890   25.3130 C.3   120  LEU120      0.0022
    126  CD1       -6.2160    3.7260   24.9120 C.3   120  LEU120      0.0001
    127  CD2       -4.3140    4.1090   26.4690 C.3   120  LEU120      0.0001
    128  N          2.3920  -11.8520   15.2200 N.3   140  ARG140     -0.1245
    129  CA         2.1230  -11.8730   16.6500 C.3   140  ARG140      0.1563
    130  C          2.6170  -13.1840   17.2400 C.2   140  ARG140      0.2260
    131  O          2.6920  -14.2020   16.5490 O.2   140  ARG140     -0.2867
    132  CB         0.6150  -11.7730   16.9190 C.3   140  ARG140      0.0307
    133  CG        -0.0970  -10.5470   16.3740 C.3   140  ARG140      0.0489
    134  CD        -1.5170  -10.9300   15.9490 C.3   140  ARG140      0.2205
    135  NE        -2.5090   -9.8840   16.1950 N.pl3 140  ARG140     -0.0865
    136  CZ        -3.0120   -9.5960   17.3910 C.cat 140  ARG140      0.5346
    137  NH1       -3.9110   -8.6280   17.5210 N.pl3 140  ARG140      0.1354
    138  NH2       -2.6210  -10.2780   18.4590 N.pl3 140  ARG140      0.1354
    139  N          5.3020   -4.5730   20.8380 N.3   157  ASN157     -0.1225
    140  CA         4.3480   -4.1790   21.8700 C.3   157  ASN157      0.1785
    141  C          3.9350   -5.4330   22.6320 C.2   157  ASN157      0.2597
    142  O          3.3270   -6.3350   22.0540 O.2   157  ASN157     -0.2718
    143  CB         3.0880   -3.5700   21.2450 C.3   157  ASN157      0.1169
    144  CG         3.3140   -2.1840   20.6540 C.2   157  ASN157      0.2627
    145  OD1        4.4470   -1.7390   20.4630 O.2   157  ASN157     -0.2716
    146  ND2        2.2180   -1.5020   20.3460 N.am  157  ASN157     -0.0877
    147  N          4.2530   -5.4890   23.9210 N.am  158  PHE158     -0.1962
    148  CA         3.8900   -6.6470   24.7320 C.3   158  PHE158      0.1771
    149  C          2.4520   -6.5280   25.2360 C.2   158  PHE158      0.2619
    150  O          2.0520   -5.5010   25.7820 O.2   158  PHE158     -0.2715
    151  CB         4.8660   -6.7980   25.9050 C.3   158  PHE158      0.0574
    152  CG         6.2810   -7.0710   25.4760 C.ar  158  PHE158     -0.0200
    153  CD1        7.1680   -6.0260   25.2330 C.ar  158  PHE158     -0.0042
    154  CD2        6.7140   -8.3780   25.2720 C.ar  158  PHE158     -0.0042
    155  CE1        8.4700   -6.2800   24.7880 C.ar  158  PHE158     -0.0003
    156  CE2        8.0090   -8.6430   24.8290 C.ar  158  PHE158     -0.0003
    157  CZ         8.8880   -7.5920   24.5860 C.ar  158  PHE158     -0.0000
    158  N          1.6870   -7.6000   25.0510 N.am  159  PHE159     -0.1974
    159  CA         0.2780   -7.6450   25.4350 C.3   159  PHE159      0.1639
    160  C         -0.0220   -7.5880   26.9310 C.2   159  PHE159      0.2290
    161  O         -0.8900   -6.8290   27.3660 O.2   159  PHE159     -0.2864
    162  CB        -0.3660   -8.9150   24.8680 C.3   159  PHE159      0.0560
    163  CG        -0.3000   -9.0230   23.3680 C.ar  159  PHE159     -0.0200
    164  CD1        0.0380  -10.2330   22.7640 C.ar  159  PHE159     -0.0042
    165  CD2       -0.6000   -7.9310   22.5580 C.ar  159  PHE159     -0.0042
    166  CE1        0.0730  -10.3500   21.3720 C.ar  159  PHE159     -0.0003
    167  CE2       -0.5660   -8.0400   21.1680 C.ar  159  PHE159     -0.0003
    168  CZ        -0.2290   -9.2520   20.5750 C.ar  159  PHE159     -0.0000
    169  N          1.6340   -4.0740   28.5880 N.3   162  HIS162     -0.1241
    170  CA         1.6060   -2.8870   27.7390 C.3   162  HIS162      0.1621
    171  C          2.9570   -2.2030   27.5390 C.2   162  HIS162      0.2264
    172  O          3.0090   -1.0470   27.1090 O.2   162  HIS162     -0.2867
    173  CB         0.5980   -1.8810   28.2960 C.3   162  HIS162      0.0745
    174  CG        -0.7560   -2.4690   28.5370 C.ar  162  HIS162      0.0817
    175  ND1       -1.5490   -2.9510   27.5180 N.ar  162  HIS162     -0.2268
    176  CD2       -1.4410   -2.6900   29.6840 C.ar  162  HIS162      0.1154
    177  CE1       -2.6650   -3.4430   28.0260 C.ar  162  HIS162      0.1986
    178  NE2       -2.6240   -3.2970   29.3390 N.ar  162  HIS162     -0.2212
    179  N          6.5390   -1.5560   25.6650 N.3   164  LYS164     -0.1245
    180  CA         6.8710   -1.5790   24.2490 C.3   164  LYS164      0.1561
    181  C          8.3190   -1.2000   23.9960 C.2   164  LYS164      0.2260
    182  O          8.9260   -0.4710   24.7790 O.2   164  LYS164     -0.2867
    183  CB         5.9740   -0.5910   23.4870 C.3   164  LYS164      0.0271
    184  CG         4.4770   -0.7130   23.7880 C.3   164  LYS164      0.0035
    185  CD         3.6880    0.4040   23.0970 C.3   164  LYS164      0.0206
    186  CE         2.1880    0.2800   23.3460 C.3   164  LYS164      0.1093
    187  NZ         1.8560    0.3800   24.7990 N.3   164  LYS164     -0.1314
    188  N          4.0490    4.0160   31.3260 N.3   181  ARG181     -0.1245
    189  CA         4.0210    4.8100   30.1010 C.3   181  ARG181      0.1563
    190  C          5.1730    5.8040   29.9930 C.2   181  ARG181      0.2260
    191  O          5.0920    6.7830   29.2510 O.2   181  ARG181     -0.2867
    192  CB         2.6750    5.5300   29.9510 C.3   181  ARG181      0.0307
    193  CG         1.5080    4.5680   29.7690 C.3   181  ARG181      0.0489
    194  CD         0.1960    5.2860   29.5220 C.3   181  ARG181      0.2205
    195  NE        -0.9320    4.3640   29.6150 N.pl3 181  ARG181     -0.0865
    196  CZ        -2.2080    4.7300   29.5330 C.cat 181  ARG181      0.5346
    197  NH1       -2.5280    6.0040   29.3510 N.pl3 181  ARG181      0.1354
    198  NH2       -3.1650    3.8220   29.6440 N.pl3 181  ARG181      0.1354
@<TRIPOS>BOND
     1    75    74    1
     2    69    70    1
     3    74    73    1
     4    74    76    1
     5    73    70    1
     6    70    71    1
     7    66    64   ar
     8    66    67   ar
     9    64    62   ar
    10    68    67    1
    11    71    72    2
    12    60    59    2
    13    85    83   ar
    14    85    87   ar
    15    67    65   ar
    16    88    87    1
    17    62    61    1
    18    62    63   ar
    19    58    61    1
    20    58    59    1
    21    58    57    1
    22    83    82   ar
    23    87    86   ar
    24    65    63   ar
    25    77    78    1
    26    82    81    1
    27    82    84   ar
    28    86    84   ar
    29    81    78    1
    30    97    95   ar
    31    97    99   ar
    32    78    79    1
    33    95    94   ar
    34    89    79   am
    35    89    90    1
    36    99    98   ar
    37    79    80    2
    38    48    47    2
    39    94    93    1
    40    94    96   ar
    41    93    90    1
    42    56    55    1
    43    90    91    1
    44    55    53   ar
    45    55    54   ar
    46    53    51   ar
    47    54    52   ar
    48    51    50   ar
    49    47    46    1
    50    98    96   ar
    51    52    50   ar
    52    50    49    1
    53    91    92    2
    54    49    46    1
    55    46    45    1
    56    45    39   am
    57    33    32    2
    58   100   101    1
    59    43    42   ar
    60    39    38    1
    61    39    40    2
    62   104   101    1
    63   104   105    1
    64    38    37    1
    65    38    41    1
    66    32    37   am
    67    32    31    1
    68    42    44   ar
    69    42    41    1
    70   101   102    1
    71    35    34    1
    72    34    31    1
    73    34    36    1
    74    31    30    1
    75    30    18   am
    76   102   103    2
    77   105   106   ar
    78   105   107   ar
    79   106   108   ar
    80    10     9    2
    81   107   109   ar
    82    20    17    1
    83    20    21    1
    84    17    18    1
    85    17    16    1
    86   128   129    1
    87    18    19    2
    88   134   135    1
    89   134   133    1
    90     9    16   am
    91     9     8    1
    92   108   110   ar
    93   109   110   ar
    94   135   136    2
    95    26    23   ar
    96    26    28   ar
    97     6     5    1
    98    21    23   ar
    99    21    22   ar
   100   133   132    1
   101   131   130    2
   102     1     2    1
   103   129   132    1
   104   129   130    1
   105   110   111    1
   106    23    25   ar
   107    28    29   ar
   108    11     8    1
   109    11    12    1
   110     7     8    1
   111     7     3   am
   112    22    24   ar
   113   136   137    1
   114   136   138    1
   115    13    12    1
   116    13    14    1
   117     5     2    1
   118     2     3    1
   119    25    24   ar
   120    25    27   ar
   121     3     4    2
   122   118   117    1
   123    29    27   ar
   124    15    14    1
   125   117   116    1
   126   117   119    1
   127   116   113    1
   128   146   144   am
   129   112   113    1
   130   145   144    2
   131   168   167   ar
   132   168   166   ar
   133   144   143    1
   134   139   140    1
   135   115   114    2
   136   113   114    1
   137   123   122    2
   138   167   165   ar
   139   143   140    1
   140   166   164   ar
   141   114   120   am
   142   122   121    1
   143   140   141    1
   144   142   141    2
   145   120   121    1
   146   165   163   ar
   147   141   147   am
   148   164   163   ar
   149   121   124    1
   150   185   186    1
   151   185   184    1
   152   186   187    1
   153   163   162    1
   154   183   184    1
   155   183   180    1
   156   147   148    1
   157   181   180    1
   158   181   182    2
   159   124   125    1
   160   180   179    1
   161   157   155   ar
   162   157   156   ar
   163   148   149    1
   164   148   151    1
   165   155   153   ar
   166   156   154   ar
   167   162   159    1
   168   126   125    1
   169   158   149   am
   170   158   159    1
   171   153   152   ar
   172   149   150    2
   173   154   152   ar
   174   125   127    1
   175   159   160    1
   176   152   151    1
   177   160   161    2
   178   172   171    2
   179   175   177   ar
   180   175   174   ar
   181   171   170    1
   182   170   173    1
   183   170   169    1
   184   177   178   ar
   185   173   174    1
   186   174   176   ar
   187   191   190    2
   188   178   176   ar
   189   197   196    1
   190   194   195    1
   191   194   193    1
   192   196   195    2
   193   196   198    1
   194   193   192    1
   195   192   189    1
   196   190   189    1
   197   189   188    1
