@<TRIPOS>MOLECULE
tmp/4rcrB00.pdb
 164 166 0 0 0
SMALL
GASTEIGER

@<TRIPOS>ATOM
      1  N         59.9460   55.6790   64.2710 N.3    61  TRP61      -0.1231
      2  CA        59.2370   55.3900   63.0210 C.3    61  TRP61       0.1697
      3  C         58.1180   56.4730   62.9370 C.2    61  TRP61       0.2592
      4  O         58.2020   57.4260   62.1550 O.2    61  TRP61      -0.2718
      5  CB        58.5590   54.0020   63.0590 C.3    61  TRP61       0.0346
      6  CG        57.5250   54.0020   61.9510 C.3    61  TRP61       0.0471
      7  CD1       57.7270   54.6630   60.7600 C.3    61  TRP61       0.1166
      8  CD2       56.1080   53.8730   62.0970 C.ar   61  TRP61      -0.0059
      9  NE1       56.5220   54.8240   60.1120 N.pl3  61  TRP61      -0.2376
     10  CE2       55.5330   54.2420   60.8610 C.ar   61  TRP61       0.0614
     11  CE3       55.2850   53.3530   63.0800 C.ar   61  TRP61      -0.0030
     12  CZ2       54.1940   54.0450   60.5710 C.ar   61  TRP61       0.0158
     13  CZ3       53.9480   53.1480   62.7970 C.ar   61  TRP61      -0.0002
     14  CH2       53.4190   53.4570   61.5510 C.ar   61  TRP61       0.0013
     15  N         57.3060   56.3830   63.9880 N.am   62  PHE62      -0.1976
     16  CA        56.2030   57.3250   64.1980 C.3    62  PHE62       0.1639
     17  C         56.7210   58.7450   64.3720 C.2    62  PHE62       0.2290
     18  O         56.2110   59.6550   63.7030 O.2    62  PHE62      -0.2864
     19  CB        55.2180   56.8940   65.2720 C.3    62  PHE62       0.0560
     20  CG        54.5150   58.0450   65.9270 C.ar   62  PHE62      -0.0200
     21  CD1       55.1950   59.2460   66.1390 C.ar   62  PHE62      -0.0042
     22  CD2       53.1900   57.9170   66.3320 C.ar   62  PHE62      -0.0042
     23  CE1       54.5730   60.3060   66.8220 C.ar   62  PHE62      -0.0003
     24  CE2       52.5460   58.9620   67.0040 C.ar   62  PHE62      -0.0003
     25  CZ        53.2220   60.1750   67.2050 C.ar   62  PHE62      -0.0000
     26  N         58.6480   59.9890   60.8580 N.3    65  ILE65      -0.1245
     27  CA        57.5390   60.3630   59.9680 C.3    65  ILE65       0.1561
     28  C         56.8240   61.6030   60.5310 C.2    65  ILE65       0.2260
     29  O         56.8660   62.7000   59.9490 O.2    65  ILE65      -0.2867
     30  CB        56.5860   59.3060   59.4170 C.3    65  ILE65       0.0252
     31  CG1       55.2210   59.9690   59.0360 C.3    65  ILE65       0.0019
     32  CG2       56.4010   57.9520   60.1000 C.3    65  ILE65       0.0019
     33  CD1       54.1640   60.0310   60.1510 C.3    65  ILE65       0.0001
     34  N         56.9070   65.3700   59.1390 N.3    69  PHE69      -0.1241
     35  CA        55.4600   65.5580   59.1190 C.3    69  PHE69       0.1605
     36  C         55.0770   67.0270   59.3110 C.2    69  PHE69       0.2264
     37  O         53.9680   67.4260   58.9050 O.2    69  PHE69      -0.2867
     38  CB        54.7230   64.6610   60.1140 C.3    69  PHE69       0.0534
     39  CG        53.4770   64.0390   59.5610 C.ar   69  PHE69      -0.0203
     40  CD1       52.2980   64.7690   59.4810 C.ar   69  PHE69      -0.0042
     41  CD2       53.5290   62.7360   59.0530 C.ar   69  PHE69      -0.0042
     42  CE1       51.1430   64.1740   58.9470 C.ar   69  PHE69      -0.0003
     43  CE2       52.4140   62.1450   58.4860 C.ar   69  PHE69      -0.0003
     44  CZ        51.2290   62.8790   58.4060 C.ar   69  PHE69      -0.0000
     45  N         46.6830   67.0610   57.4360 N.3    84  LEU84      -0.1245
     46  CA        47.2140   65.9170   58.1500 C.3    84  LEU84       0.1561
     47  C         47.2150   64.6230   57.3850 C.2    84  LEU84       0.2260
     48  O         48.2800   63.9400   57.3090 O.2    84  LEU84      -0.2867
     49  CB        47.0160   65.9090   59.6260 C.3    84  LEU84       0.0270
     50  CG        47.9060   64.9370   60.4240 C.3    84  LEU84       0.0019
     51  CD1       48.2610   65.4740   61.7960 C.3    84  LEU84       0.0001
     52  CD2       47.1690   63.6080   60.5120 C.3    84  LEU84       0.0001
     53  N         62.5080   58.8610   55.2820 N.3   110  TRP110     -0.1241
     54  CA        62.0550   57.6040   54.7260 C.3   110  TRP110      0.1605
     55  C         63.0440   56.4740   54.9000 C.2   110  TRP110      0.2264
     56  O         62.7640   55.4740   55.5940 O.2   110  TRP110     -0.2867
     57  CB        61.5120   57.7310   53.3190 C.3   110  TRP110      0.0550
     58  CG        60.8220   56.4750   52.8630 C.ar  110  TRP110      0.0003
     59  CD1       59.4910   56.1820   52.9370 C.ar  110  TRP110      0.0946
     60  CD2       61.4830   55.2530   52.5050 C.ar  110  TRP110      0.0152
     61  NE1       59.2760   54.8540   52.6210 N.ar  110  TRP110     -0.2442
     62  CE2       60.4800   54.2790   52.3220 C.ar  110  TRP110      0.0810
     63  CE3       62.8190   54.9000   52.3460 C.ar  110  TRP110      0.0012
     64  CZ2       60.7760   52.9860   51.9260 C.ar  110  TRP110      0.0191
     65  CZ3       63.1020   53.6710   51.7760 C.ar  110  TRP110      0.0001
     66  CH2       62.1080   52.7080   51.6250 C.ar  110  TRP110      0.0015
     67  N         61.2050   51.1110   61.4340 N.3   117  MET117     -0.1245
     68  CA        60.1150   50.1410   61.5760 C.3   117  MET117      0.1570
     69  C         60.4880   48.7390   61.0920 C.2   117  MET117      0.2261
     70  O         59.6350   47.8090   61.0760 O.2   117  MET117     -0.2867
     71  CB        58.8550   50.5980   60.8210 C.3   117  MET117      0.0387
     72  CG        58.1100   49.4460   60.2060 C.3   117  MET117      0.0595
     73  SD        57.3240   49.9560   58.6370 S.3   117  MET117     -0.1393
     74  CE        55.6170   50.1980   59.1120 C.3   117  MET117      0.0692
     75  N         54.3690   42.6480   54.1680 N.3   152  TRP152     -0.1241
     76  CA        55.1170   43.8440   54.6870 C.3   152  TRP152      0.1605
     77  C         56.4710   43.7860   53.9410 C.2   152  TRP152      0.2264
     78  O         56.5810   44.2540   52.8080 O.2   152  TRP152     -0.2867
     79  CB        55.2460   43.8470   56.1800 C.3   152  TRP152      0.0550
     80  CG        56.1380   44.9100   56.7520 C.ar  152  TRP152      0.0003
     81  CD1       56.0060   46.2660   56.6280 C.ar  152  TRP152      0.0946
     82  CD2       57.3900   44.6900   57.4150 C.ar  152  TRP152      0.0152
     83  NE1       57.1090   46.9050   57.1560 N.ar  152  TRP152     -0.2442
     84  CE2       57.9590   45.9570   57.6550 C.ar  152  TRP152      0.0810
     85  CE3       58.0680   43.5440   57.8030 C.ar  152  TRP152      0.0012
     86  CZ2       59.1580   46.1120   58.3420 C.ar  152  TRP152      0.0191
     87  CZ3       59.2900   43.6930   58.4250 C.ar  152  TRP152      0.0001
     88  CH2       59.8180   44.9510   58.7200 C.ar  152  TRP152      0.0015
     89  N         56.1460   44.5570   50.0480 N.3   155  LEU155     -0.1231
     90  CA        55.5690   45.8250   49.7530 C.3   155  LEU155      0.1693
     91  C         56.5030   46.9980   49.8740 C.2   155  LEU155      0.2593
     92  O         56.2320   48.0540   49.2390 O.2   155  LEU155     -0.2718
     93  CB        54.2310   46.0180   50.4850 C.3   155  LEU155      0.0284
     94  CG        53.0780   46.3880   49.5210 C.3   155  LEU155      0.0019
     95  CD1       53.5080   46.0350   48.0920 C.3   155  LEU155      0.0001
     96  CD2       51.8620   45.5380   49.8990 C.3   155  LEU155      0.0001
     97  N         57.4410   46.9380   50.7920 N.am  156  GLY156     -0.1942
     98  CA        58.2860   48.1070   51.0930 C.3   156  GLY156      0.2014
     99  C         59.7460   47.7290   51.0950 C.2   156  GLY156      0.2638
    100  O         60.6240   48.6270   51.1150 O.2   156  GLY156     -0.2714
    101  N         60.0120   46.4240   51.1260 N.am  157  PHE157     -0.1973
    102  CA        61.4170   45.9820   51.1450 C.3   157  PHE157      0.1639
    103  C         61.7480   45.1470   49.9300 C.2   157  PHE157      0.2290
    104  O         62.3650   45.6510   48.9500 O.2   157  PHE157     -0.2864
    105  CB        61.9560   45.5680   52.4730 C.3   157  PHE157      0.0560
    106  CG        62.0460   46.5360   53.6060 C.ar  157  PHE157     -0.0200
    107  CD1       60.9350   46.7930   54.4130 C.ar  157  PHE157     -0.0042
    108  CD2       63.2790   47.0750   53.9930 C.ar  157  PHE157     -0.0042
    109  CE1       60.9890   47.7080   55.4640 C.ar  157  PHE157     -0.0003
    110  CE2       63.3860   47.8950   55.1070 C.ar  157  PHE157     -0.0003
    111  CZ        62.2450   48.2410   55.8300 C.ar  157  PHE157     -0.0000
    112  N         59.2940   51.8000   46.8860 N.3   169  ALA169     -0.1231
    113  CA        58.6140   51.5330   48.1740 C.3   169  ALA169      0.1694
    114  C         57.3370   52.3460   48.2700 C.2   169  ALA169      0.2592
    115  O         57.1490   53.3330   47.5460 O.2   169  ALA169     -0.2718
    116  CB        59.5160   51.7220   49.3550 C.3   169  ALA169      0.0304
    117  N         56.5080   51.9550   49.2200 N.am  170  VAL170     -0.1966
    118  CA        55.2410   52.7190   49.4780 C.3   170  VAL170      0.1712
    119  C         55.6170   53.8480   50.4360 C.2   170  VAL170      0.2458
    120  O         56.6000   53.7180   51.2090 O.2   170  VAL170     -0.2730
    121  CB        54.1840   51.7430   49.9770 C.3   170  VAL170      0.0289
    122  CG1       52.8350   52.3900   50.2550 C.3   170  VAL170      0.0023
    123  CG2       54.0180   50.5220   49.0920 C.3   170  VAL170      0.0023
    124  N         54.8820   54.9320   50.3470 N.am  171  PRO171     -0.2716
    125  CA        55.2200   56.1880   51.0570 C.3   171  PRO171      0.1536
    126  C         54.3580   56.4300   52.2760 C.2   171  PRO171      0.2599
    127  O         53.1480   56.0780   52.2910 O.2   171  PRO171     -0.2715
    128  CB        54.9770   57.2290   49.9490 C.3   171  PRO171      0.0310
    129  CG        53.9100   56.6590   49.0760 C.3   171  PRO171      0.0237
    130  CD        53.8080   55.1670   49.3690 C.3   171  PRO171      0.0939
    131  N         54.8680   57.2270   53.2160 N.am  172  TYR172     -0.1960
    132  CA        54.2070   57.5020   54.4920 C.3   172  TYR172      0.1771
    133  C         53.4020   58.8030   54.5110 C.2   172  TYR172      0.2620
    134  O         54.0070   59.8690   54.7570 O.2   172  TYR172     -0.2715
    135  CB        55.2790   57.5870   55.6060 C.3   172  TYR172      0.0574
    136  CG        56.1340   56.3490   55.7160 C.ar  172  TYR172     -0.0198
    137  CD1       55.5640   55.0980   55.9540 C.ar  172  TYR172     -0.0009
    138  CD2       57.5310   56.4340   55.6770 C.ar  172  TYR172     -0.0009
    139  CE1       56.3610   53.9710   56.1570 C.ar  172  TYR172      0.0417
    140  CE2       58.3410   55.3150   55.8600 C.ar  172  TYR172      0.0417
    141  CZ        57.7400   54.1000   56.1220 C.ar  172  TYR172      0.1957
    142  OH        58.4830   52.9860   56.3220 O.3   172  TYR172     -0.2866
    143  N         52.1090   58.6500   54.5380 N.am  173  GLY173     -0.1940
    144  CA        51.0870   59.7110   54.7450 C.3   173  GLY173      0.2014
    145  C         49.7290   58.9900   54.7270 C.2   173  GLY173      0.2638
    146  O         49.7600   57.7980   54.3170 O.2   173  GLY173     -0.2714
    147  N         48.6500   59.5390   55.2730 N.am  174  ILE174     -0.1977
    148  CA        47.3720   58.8440   55.1610 C.3   174  ILE174      0.1596
    149  C         46.9100   58.6940   53.7080 C.2   174  ILE174      0.2287
    150  O         46.8180   57.5480   53.1660 O.2   174  ILE174     -0.2864
    151  CB        46.2480   59.1300   56.1390 C.3   174  ILE174      0.0276
    152  CG1       46.6540   59.7930   57.4480 C.3   174  ILE174      0.0022
    153  CG2       45.2950   57.8950   56.3580 C.3   174  ILE174      0.0022
    154  CD1       45.6350   60.9030   57.9370 C.3   174  ILE174      0.0001
    155  N         49.5280   56.6580   50.7760 N.3   177  HIS177     -0.1241
    156  CA        49.7100   55.2110   50.5700 C.3   177  HIS177      0.1621
    157  C         48.4820   54.6810   49.8120 C.2   177  HIS177      0.2264
    158  O         48.5750   53.7250   49.0270 O.2   177  HIS177     -0.2867
    159  CB        50.0340   54.5370   51.9170 C.3   177  HIS177      0.0745
    160  CG        48.8830   53.8070   52.6180 C.ar  177  HIS177      0.0817
    161  ND1       47.7320   54.4650   53.0380 N.ar  177  HIS177     -0.2268
    162  CD2       48.7290   52.5030   52.9830 C.ar  177  HIS177      0.1154
    163  CE1       46.9440   53.5810   53.6270 C.ar  177  HIS177      0.1986
    164  NE2       47.5250   52.4070   53.6030 N.ar  177  HIS177     -0.2212
@<TRIPOS>BOND
     1   112   113    1
     2   115   114    2
     3    95    94    1
     4   113   114    1
     5   113   116    1
     6   114   117   am
     7   104   103    2
     8   158   157    2
     9   129   130    1
    10   129   128    1
    11   123   121    1
    12   117   118    1
    13    92    91    2
    14   130   124    1
    15   118   121    1
    16   118   119    1
    17    94    96    1
    18    94    93    1
    19    90    91    1
    20    90    89    1
    21    90    93    1
    22   157   156    1
    23    91    97   am
    24   103   102    1
    25   128   125    1
    26   121   122    1
    27   124   119   am
    28   124   125    1
    29   119   120    2
    30   156   155    1
    31   156   159    1
    32    97    98    1
    33   125   126    1
    34    98    99    1
    35    99   100    2
    36    99   101   am
    37   101   102    1
    38   102   105    1
    39    66    65   ar
    40    66    64   ar
    41    65    63   ar
    42   159   160    1
    43    64    62   ar
    44   126   127    2
    45   126   131   am
    46    62    60   ar
    47    62    61   ar
    48    63    60   ar
    49   105   106    1
    50    60    58   ar
    51   160   162   ar
    52   160   161   ar
    53    61    59   ar
    54    78    77    2
    55    58    59   ar
    56    58    57    1
    57   162   164   ar
    58   161   163   ar
    59   150   149    2
    60   131   132    1
    61    57    54    1
    62   164   163   ar
    63   106   108   ar
    64   106   107   ar
    65   149   148    1
    66    77    76    1
    67   108   110   ar
    68    75    76    1
    69   146   145    2
    70   107   109   ar
    71   132   133    1
    72   132   135    1
    73   133   143   am
    74   133   134    2
    75   143   144    1
    76    76    79    1
    77    54    55    1
    78    54    53    1
    79   145   144    1
    80   145   147   am
    81    55    56    2
    82   110   111   ar
    83   148   147    1
    84   148   151    1
    85   109   111   ar
    86   135   136    1
    87   138   136   ar
    88   138   140   ar
    89   136   137   ar
    90   140   141   ar
    91   137   139   ar
    92   141   139   ar
    93   141   142    1
    94   151   153    1
    95   151   152    1
    96    79    80    1
    97    81    80   ar
    98    81    83   ar
    99    80    82   ar
   100    83    84   ar
   101    48    47    2
   102    47    46    1
   103    82    84   ar
   104    82    85   ar
   105    45    46    1
   106   152   154    1
   107    84    86   ar
   108    85    87   ar
   109    46    49    1
   110    86    88   ar
   111    44    43   ar
   112    44    42   ar
   113    87    88   ar
   114    43    41   ar
   115    73    74    1
   116    73    72    1
   117    37    36    2
   118    42    40   ar
   119    31    30    1
   120    31    33    1
   121    41    39   ar
   122    35    34    1
   123    35    36    1
   124    35    38    1
   125    30    27    1
   126    30    32    1
   127    40    39   ar
   128    39    38    1
   129    49    50    1
   130    29    28    2
   131    27    28    1
   132    27    26    1
   133     9     7    1
   134     9    10    1
   135    72    71    1
   136    50    52    1
   137    50    51    1
   138    12    10   ar
   139    12    14   ar
   140     7     6    1
   141    71    68    1
   142    10     8   ar
   143    70    69    2
   144    69    68    1
   145    67    68    1
   146    14    13   ar
   147     6     8    1
   148     6     5    1
   149     8    11   ar
   150     4     3    2
   151    13    11   ar
   152     3     2    1
   153     3    15   am
   154     2     5    1
   155     2     1    1
   156    18    17    2
   157    15    16    1
   158    16    17    1
   159    16    19    1
   160    19    20    1
   161    20    21   ar
   162    20    22   ar
   163    21    23   ar
   164    22    24   ar
   165    23    25   ar
   166    24    25   ar
