@<TRIPOS>MOLECULE
tmp/4rcvA01.pdb
 80 73 0 0 0
SMALL
GASTEIGER

@<TRIPOS>ATOM
      1  N         70.3270    5.8230   80.7900 N.3   117  LYS117     -0.1245
      2  CA        71.5260    5.1740   81.3270 C.3   117  LYS117      0.1561
      3  C         72.5850    4.9290   80.2430 C.2   117  LYS117      0.2260
      4  O         73.7860    5.0750   80.4990 O.2   117  LYS117     -0.2867
      5  CB        71.1770    3.8890   82.1050 C.3   117  LYS117      0.0271
      6  CG        70.7050    2.7280   81.2240 C.3   117  LYS117      0.0035
      7  CD        69.9520    1.6770   82.0370 C.3   117  LYS117      0.0206
      8  CE        68.5120    2.1000   82.3110 C.3   117  LYS117      0.1093
      9  NZ        67.7780    1.0390   83.0660 N.3   117  LYS117     -0.1314
     10  N         67.1320    6.1250   87.3690 N.3   140  ASP140     -0.1225
     11  CA        66.9790    4.6820   87.4320 C.3   140  ASP140      0.1805
     12  C         66.6890    4.2720   88.8710 C.2   140  ASP140      0.2598
     13  O         67.3510    4.7630   89.7910 O.2   140  ASP140     -0.2718
     14  CB        68.2700    4.0180   86.9680 C.3   140  ASP140      0.1424
     15  CG        68.0150    2.7630   86.1790 C.2   140  ASP140      0.3668
     16  OD1       66.8730    2.2720   86.2620 O.co2 140  ASP140     -0.2456
     17  OD2       68.9410    2.2760   85.4860 O.co2 140  ASP140     -0.2456
     18  N         65.7200    3.3730   89.0610 N.am  141  SER141     -0.1938
     19  CA        65.2580    2.9910   90.4000 C.3   141  SER141      0.2055
     20  C         66.3530    2.4010   91.2720 C.2   141  SER141      0.2642
     21  O         66.5150    2.8140   92.4160 O.2   141  SER141     -0.2714
     22  CB        64.0990    2.0000   90.3220 C.3   141  SER141      0.2130
     23  OG        63.0700    2.5430   89.5350 O.3   141  SER141     -0.2179
     24  N         67.0870    1.4330   90.7240 N.am  142  GLU142     -0.1976
     25  CA        68.1810    0.7860   91.4420 C.3   142  GLU142      0.1602
     26  C         69.1460    1.8280   91.9540 C.2   142  GLU142      0.2287
     27  O         69.4930    1.8350   93.1320 O.2   142  GLU142     -0.2864
     28  CB        68.9380   -0.2030   90.5500 C.3   142  GLU142      0.0415
     29  CG        68.1300   -1.4260   90.1350 C.3   142  GLU142      0.1163
     30  CD        67.0880   -1.1150   89.0650 C.2   142  GLU142      0.3649
     31  OE1       66.2250   -1.9720   88.8120 O.co2 142  GLU142     -0.2457
     32  OE2       67.1280   -0.0140   88.4740 O.co2 142  GLU142     -0.2457
     33  N         63.5480   -1.0470   76.7230 N.3   190  ASN190     -0.1240
     34  CA        63.4720   -1.3340   78.1620 C.3   190  ASN190      0.1653
     35  C         62.9650   -2.7340   78.4310 C.2   190  ASN190      0.2266
     36  O         63.5780   -3.5220   79.1620 O.2   190  ASN190     -0.2867
     37  CB        62.4970   -0.3690   78.8380 C.3   190  ASN190      0.1155
     38  CG        63.1920    0.6870   79.6790 C.2   190  ASN190      0.2627
     39  OD1       62.7450    1.8330   79.7230 O.2   190  ASN190     -0.2716
     40  ND2       64.2860    0.3120   80.3540 N.am  190  ASN190     -0.0877
     41  N         65.0940   -5.7750   79.6840 N.3   194  SER194     -0.1217
     42  CA        64.7890   -6.4140   80.9670 C.3   194  SER194      0.1889
     43  C         64.6940   -7.9220   80.8180 C.2   194  SER194      0.2288
     44  O         65.2420   -8.6610   81.6340 O.2   194  SER194     -0.2866
     45  CB        63.5110   -5.8600   81.5850 C.3   194  SER194      0.2089
     46  OG        63.7260   -4.5240   82.0150 O.3   194  SER194     -0.2183
     47  N         69.5670   -5.1090   80.3840 N.3   199  ASN199     -0.1225
     48  CA        69.2830   -3.9450   81.2150 C.3   199  ASN199      0.1785
     49  C         70.0220   -4.0020   82.5570 C.2   199  ASN199      0.2597
     50  O         70.5740   -3.0020   83.0030 O.2   199  ASN199     -0.2718
     51  CB        67.7870   -3.7520   81.4680 C.3   199  ASN199      0.1169
     52  CG        67.5000   -2.4540   82.2340 C.2   199  ASN199      0.2627
     53  OD1       67.7710   -1.3610   81.7350 O.2   199  ASN199     -0.2716
     54  ND2       66.9580   -2.5750   83.4490 N.am  199  ASN199     -0.0877
     55  N         70.0420   -5.1740   83.1860 N.am  200  LYS200     -0.1980
     56  CA        70.7420   -5.2990   84.4520 C.3   200  LYS200      0.1596
     57  C         72.2440   -5.1150   84.2580 C.2   200  LYS200      0.2287
     58  O         72.9070   -4.4760   85.0760 O.2   200  LYS200     -0.2864
     59  CB        70.4060   -6.6130   85.1680 C.3   200  LYS200      0.0298
     60  CG        70.5340   -6.5450   86.7170 C.3   200  LYS200      0.0038
     61  CD        69.7050   -5.3840   87.3260 C.3   200  LYS200      0.0206
     62  CE        68.2300   -5.3800   86.8600 C.3   200  LYS200      0.1093
     63  NZ        67.4050   -4.3000   87.5010 N.3   200  LYS200     -0.1314
     64  N         72.9880   -1.6030   84.0750 N.3   203  GLU203     -0.1245
     65  CA        72.8230   -1.0190   85.3990 C.3   203  GLU203      0.1567
     66  C         74.0330   -1.3050   86.3000 C.2   203  GLU203      0.2260
     67  O         74.4430   -0.4540   87.0950 O.2   203  GLU203     -0.2867
     68  CB        71.5080   -1.4790   86.0310 C.3   203  GLU203      0.0388
     69  CG        70.2750   -0.9100   85.3280 C.3   203  GLU203      0.1160
     70  CD        68.9750   -1.3910   85.9420 C.2   203  GLU203      0.3649
     71  OE1       69.0120   -2.2490   86.8500 O.co2 203  GLU203     -0.2457
     72  OE2       67.9080   -0.9120   85.5260 O.co2 203  GLU203     -0.2457
     73  N         57.8190    4.9750   88.7330 N.3   248  MET248     -0.1245
     74  CA        58.9790    5.7860   88.3900 C.3   248  MET248      0.1570
     75  C         58.9040    7.2300   88.8740 C.2   248  MET248      0.2261
     76  O         59.9200    7.9300   88.8980 O.2   248  MET248     -0.2867
     77  CB        59.2520    5.7270   86.8810 C.3   248  MET248      0.0387
     78  CG        59.7840    4.3730   86.4100 C.3   248  MET248      0.0595
     79  SD        61.2410    3.8420   87.3320 S.3   248  MET248     -0.1393
     80  CE        62.4440    5.1130   86.9030 C.3   248  MET248      0.0692
@<TRIPOS>BOND
     1    33    34    1
     2    34    35    1
     3    34    37    1
     4    35    36    2
     5    37    38    1
     6    38    39    2
     7    38    40   am
     8    41    42    1
     9     3     4    2
    10     3     2    1
    11    47    48    1
    12     1     2    1
    13    43    42    1
    14    43    44    2
    15    42    45    1
    16    48    51    1
    17    48    49    1
    18     6     7    1
    19     6     5    1
    20     2     5    1
    21    51    52    1
    22    45    46    1
    23    53    52    2
    24     7     8    1
    25    52    54   am
    26     8     9    1
    27    49    50    2
    28    49    55   am
    29    55    56    1
    30    64    65    1
    31    57    56    1
    32    57    58    2
    33    56    59    1
    34    59    60    1
    35    69    70    1
    36    69    68    1
    37    65    68    1
    38    65    66    1
    39    17    15   ar
    40    72    70   ar
    41    70    71   ar
    42    15    16   ar
    43    15    14    1
    44    66    67    2
    45    78    77    1
    46    78    79    1
    47    60    61    1
    48    62    61    1
    49    62    63    1
    50    77    74    1
    51    80    79    1
    52    14    11    1
    53    10    11    1
    54    11    12    1
    55    74    73    1
    56    74    75    1
    57    32    30   ar
    58    31    30   ar
    59    12    18   am
    60    12    13    2
    61    75    76    2
    62    18    19    1
    63    30    29    1
    64    23    22    1
    65    29    28    1
    66    22    19    1
    67    19    20    1
    68    28    25    1
    69    24    20   am
    70    24    25    1
    71    20    21    2
    72    25    26    1
    73    26    27    2
