@<TRIPOS>MOLECULE
tmp/4rcvB00.pdb
 130 124 0 0 0
SMALL
GASTEIGER

@<TRIPOS>ATOM
      1  N         75.3880   -3.8870  133.9800 N.3     9  GLY9       -0.1210
      2  CA        74.6960   -5.1260  133.6870 C.3     9  GLY9        0.1956
      3  C         75.6450   -6.0340  132.9310 C.2     9  GLY9        0.2613
      4  O         75.2680   -6.6600  131.9420 O.2     9  GLY9       -0.2717
      5  N         76.8920   -6.0940  133.3880 N.am   10  SER10      -0.1938
      6  CA        77.9410   -6.8060  132.6540 C.3    10  SER10       0.2055
      7  C         77.7000   -8.3170  132.4940 C.2    10  SER10       0.2644
      8  O         78.1940   -8.9320  131.5380 O.2    10  SER10      -0.2714
      9  CB        79.3180   -6.5450  133.2900 C.3    10  SER10       0.2130
     10  OG        79.4330   -7.1470  134.5680 O.3    10  SER10      -0.2179
     11  N         76.9420   -8.9000  133.4210 N.am   11  THR11      -0.1936
     12  CA        76.7750  -10.3450  133.4990 C.3    11  THR11       0.2028
     13  C         75.4730  -10.7900  132.8730 C.2    11  THR11       0.2643
     14  O         75.1310  -11.9630  132.9360 O.2    11  THR11      -0.2714
     15  CB        76.7700  -10.8550  134.9760 C.3    11  THR11       0.1808
     16  OG1       75.7160  -10.2140  135.7070 O.3    11  THR11      -0.2208
     17  CG2       78.0990  -10.5890  135.6590 C.3    11  THR11       0.0379
     18  N         74.7290   -9.8560  132.2950 N.am   12  GLY12      -0.1939
     19  CA        73.4950  -10.2000  131.6110 C.3    12  GLY12       0.2014
     20  C         73.7240  -10.5840  130.1590 C.2    12  GLY12       0.2640
     21  O         74.8650  -10.7360  129.7240 O.2    12  GLY12      -0.2714
     22  N         72.6430  -10.7460  129.4060 N.am   13  SER13      -0.1935
     23  CA        72.7530  -11.1760  128.0120 C.3    13  SER13       0.2055
     24  C         73.3680  -10.0980  127.1230 C.2    13  SER13       0.2643
     25  O         74.3350  -10.3570  126.4110 O.2    13  SER13      -0.2714
     26  CB        71.3910  -11.5950  127.4600 C.3    13  SER13       0.2130
     27  OG        71.4940  -11.8480  126.0710 O.3    13  SER13      -0.2179
     28  N         72.8020   -8.8940  127.1800 N.am   14  ILE14      -0.1963
     29  CA        73.3280   -7.7490  126.4420 C.3    14  ILE14       0.1727
     30  C         74.7570   -7.3770  126.8720 C.2    14  ILE14       0.2616
     31  O         75.6330   -7.1390  126.0330 O.2    14  ILE14      -0.2715
     32  CB        72.4020   -6.5120  126.5740 C.3    14  ILE14       0.0290
     33  CG1       71.0440   -6.7790  125.9300 C.3    14  ILE14       0.0022
     34  CG2       73.0420   -5.2880  125.9330 C.3    14  ILE14       0.0023
     35  CD1       71.1300   -6.9190  124.4180 C.3    14  ILE14       0.0001
     36  N         74.9960   -7.3300  128.1770 N.am   15  GLY15      -0.1955
     37  CA        76.3090   -6.9580  128.6760 C.3    15  GLY15       0.1869
     38  C         77.4350   -7.9020  128.2650 C.2    15  GLY15       0.2309
     39  O         78.5570   -7.4650  128.0130 O.2    15  GLY15      -0.2863
     40  N         77.2920   -5.0790  138.1300 N.3    36  ALA36      -0.1231
     41  CA        76.3100   -6.1540  138.0850 C.3    36  ALA36       0.1694
     42  C         75.4460   -6.1050  139.3260 C.2    36  ALA36       0.2593
     43  O         75.7320   -5.3580  140.2620 O.2    36  ALA36      -0.2718
     44  CB        77.0020   -7.5060  137.9690 C.3    36  ALA36       0.0304
     45  N         74.3970   -6.9170  139.3360 N.am   37  GLY37      -0.1942
     46  CA        73.4670   -6.9530  140.4500 C.3    37  GLY37       0.2014
     47  C         73.9750   -7.7280  141.6490 C.2    37  GLY37       0.2639
     48  O         73.7600   -7.3260  142.7860 O.2    37  GLY37      -0.2714
     49  N         74.6410   -8.8470  141.4000 N.am   38  GLY38      -0.1939
     50  CA        75.1560   -9.6770  142.4750 C.3    38  GLY38       0.2014
     51  C         74.7770  -11.1390  142.3250 C.2    38  GLY38       0.2639
     52  O         75.4510  -12.0210  142.8560 O.2    38  GLY38      -0.2714
     53  N         73.7060  -11.4010  141.5840 N.am   39  ALA39      -0.1963
     54  CA        73.2400  -12.7680  141.3880 C.3    39  ALA39       0.1728
     55  C         74.2200  -13.6430  140.5850 C.2    39  ALA39       0.2616
     56  O         74.1720  -14.8740  140.6590 O.2    39  ALA39      -0.2715
     57  CB        71.8760  -12.7560  140.7250 C.3    39  ALA39       0.0334
     58  N         75.0970  -13.0170  139.8080 N.am   40  HIS40      -0.1973
     59  CA        76.0770  -13.7700  139.0240 C.3    40  HIS40       0.1656
     60  C         77.4490  -13.2270  139.3290 C.2    40  HIS40       0.2291
     61  O         78.2500  -12.9490  138.4290 O.2    40  HIS40      -0.2864
     62  CB        75.7760  -13.7070  137.5180 C.3    40  HIS40       0.0771
     63  CG        74.4490  -14.2980  137.1520 C.ar   40  HIS40       0.0820
     64  ND1       73.4530  -13.5730  136.5300 N.ar   40  HIS40      -0.2267
     65  CD2       73.9440  -15.5390  137.3480 C.ar   40  HIS40       0.1154
     66  CE1       72.3940  -14.3430  136.3560 C.ar   40  HIS40       0.1986
     67  NE2       72.6680  -15.5420  136.8380 N.ar   40  HIS40      -0.2212
     68  N         72.8370   -1.8130  130.4300 N.3    93  ALA93      -0.1231
     69  CA        72.1700   -3.0940  130.2410 C.3    93  ALA93       0.1694
     70  C         71.6230   -3.6500  131.5600 C.2    93  ALA93       0.2592
     71  O         71.5870   -4.8600  131.7500 O.2    93  ALA93      -0.2718
     72  CB        73.1350   -4.0950  129.6210 C.3    93  ALA93       0.0304
     73  N         71.2180   -2.7720  132.4760 N.am   94  LEU94      -0.1966
     74  CA        70.5990   -3.2140  133.7210 C.3    94  LEU94       0.1728
     75  C         69.1520   -3.6210  133.4590 C.2    94  LEU94       0.2616
     76  O         68.5310   -3.1950  132.4780 O.2    94  LEU94      -0.2715
     77  CB        70.6490   -2.1150  134.7860 C.3    94  LEU94       0.0311
     78  CG        72.0150   -1.5710  135.2320 C.3    94  LEU94       0.0022
     79  CD1       71.8270   -0.3540  136.1030 C.3    94  LEU94       0.0001
     80  CD2       72.8400   -2.5990  135.9680 C.3    94  LEU94       0.0001
     81  N         68.6180   -4.4510  134.3470 N.am   95  VAL95      -0.1977
     82  CA        67.2370   -4.9050  134.2580 C.3    95  VAL95       0.1596
     83  C         66.3760   -4.1880  135.2920 C.2    95  VAL95       0.2287
     84  O         66.8110   -3.9630  136.4130 O.2    95  VAL95      -0.2864
     85  CB        67.1610   -6.4450  134.4340 C.3    95  VAL95       0.0276
     86  CG1       65.8360   -6.8800  135.0260 C.3    95  VAL95       0.0022
     87  CG2       67.3790   -7.1120  133.1060 C.3    95  VAL95       0.0022
     88  N         65.6030   -0.2450  138.3990 N.3    98  LEU98      -0.1245
     89  CA        66.8930    0.0630  138.9890 C.3    98  LEU98       0.1561
     90  C         67.9140    0.5580  137.9530 C.2    98  LEU98       0.2260
     91  O         68.9750    1.0730  138.3130 O.2    98  LEU98      -0.2867
     92  CB        67.4370   -1.1340  139.7740 C.3    98  LEU98       0.0270
     93  CG        67.8140   -2.4500  139.0940 C.3    98  LEU98       0.0019
     94  CD1       69.3120   -2.7290  139.2540 C.3    98  LEU98       0.0001
     95  CD2       66.9900   -3.5950  139.6860 C.3    98  LEU98       0.0001
     96  N         70.0360   -0.0660  126.9560 N.3   116  ALA116     -0.1231
     97  CA        69.3580   -1.3440  126.7370 C.3   116  ALA116      0.1694
     98  C         68.1790   -1.4450  127.6950 C.2   116  ALA116      0.2592
     99  O         67.1200   -1.9630  127.3420 O.2   116  ALA116     -0.2718
    100  CB        70.3200   -2.5130  126.9330 C.3   116  ALA116      0.0304
    101  N         68.3780   -0.9130  128.8980 N.am  117  ASN117     -0.1974
    102  CA        67.3820   -0.9040  129.9670 C.3   117  ASN117      0.1688
    103  C         66.0400   -0.3130  129.5210 C.2   117  ASN117      0.2292
    104  O         65.9260    0.8830  129.2650 O.2   117  ASN117     -0.2864
    105  CB        67.9520   -0.1280  131.1660 C.3   117  ASN117      0.1181
    106  CG        66.9650   -0.0030  132.3220 C.2   117  ASN117      0.2629
    107  OD1       66.4400    1.0770  132.5870 O.2   117  ASN117     -0.2716
    108  ND2       66.7150   -1.1070  133.0140 N.am  117  ASN117     -0.0877
    109  N         68.9820  -17.4730  129.9050 N.3   192  SER192     -0.1202
    110  CA        69.2680  -16.1040  129.4750 C.3   192  SER192      0.2020
    111  C         67.9920  -15.2730  129.2590 C.2   192  SER192      0.2618
    112  O         67.1590  -15.1300  130.1590 O.2   192  SER192     -0.2717
    113  CB        70.0890  -16.1450  128.1810 C.3   192  SER192      0.2103
    114  OG        70.5380  -14.8580  127.7990 O.3   192  SER192     -0.2182
    115  N         67.8550  -14.7200  128.0580 N.am  193  MET193     -0.1979
    116  CA        66.6520  -13.9850  127.6770 C.3   193  MET193      0.1605
    117  C         65.4890  -14.9570  127.5390 C.2   193  MET193      0.2287
    118  O         65.1690  -15.4060  126.4320 O.2   193  MET193     -0.2864
    119  CB        66.8650  -13.2310  126.3590 C.3   193  MET193      0.0413
    120  CG        67.9040  -12.1250  126.5830 C.3   193  MET193      0.0598
    121  SD        68.4260  -11.2520  125.0680 S.3   193  MET193     -0.1393
    122  CE        67.1250  -10.0410  124.9530 C.3   193  MET193      0.0692
    123  N         60.6110  -12.2950  128.9920 N.3   197  ASN197     -0.1240
    124  CA        60.8510  -11.8900  127.6100 C.3   197  ASN197      0.1653
    125  C         59.9660  -12.5930  126.5820 C.2   197  ASN197      0.2266
    126  O         59.3320  -11.9440  125.7510 O.2   197  ASN197     -0.2867
    127  CB        62.3290  -12.0640  127.2470 C.3   197  ASN197      0.1155
    128  CG        63.0230  -10.7400  126.9850 C.2   197  ASN197      0.2627
    129  OD1       63.3180   -9.9860  127.9150 O.2   197  ASN197     -0.2716
    130  ND2       63.2920  -10.4510  125.7160 N.am  197  ASN197     -0.0877
@<TRIPOS>BOND
     1    35    33    1
     2   122   121    1
     3   121   120    1
     4   130   128   am
     5   126   125    2
     6    33    32    1
     7    34    32    1
     8    31    30    2
     9    27    26    1
    10   119   120    1
    11   119   116    1
    12    25    24    2
    13   118   117    2
    14    29    32    1
    15    29    30    1
    16    29    28    1
    17   125   124    1
    18    97   100    1
    19    97    96    1
    20    97    98    1
    21    30    36   am
    22   128   127    1
    23   128   129    2
    24    24    28   am
    25    24    23    1
    26   127   124    1
    27    99    98    2
    28    26    23    1
    29   117   116    1
    30   124   123    1
    31   116   115    1
    32    98   101   am
    33   114   113    1
    34    23    22    1
    35    39    38    2
    36   115   111   am
    37    36    37    1
    38   113   110    1
    39    38    37    1
    40   101   102    1
    41   111   110    1
    42   111   112    2
    43   104   103    2
    44    22    20   am
    45   110   109    1
    46   103   102    1
    47    72    69    1
    48    21    20    2
    49   102   105    1
    50    20    19    1
    51    69    68    1
    52    69    70    1
    53   105   106    1
    54     8     7    2
    55    70    71    2
    56    70    73   am
    57    19    18    1
    58     4     3    2
    59    18    13   am
    60   106   107    2
    61   106   108   am
    62    73    74    1
    63    76    75    2
    64     7     6    1
    65     7    11   am
    66     6     9    1
    67     6     5    1
    68    13    14    2
    69    13    12    1
    70     3     5   am
    71     3     2    1
    72    87    85    1
    73     9    10    1
    74    11    12    1
    75    75    74    1
    76    75    81   am
    77    12    15    1
    78     2     1    1
    79    74    77    1
    80    82    81    1
    81    82    85    1
    82    82    83    1
    83    85    86    1
    84    77    78    1
    85    15    17    1
    86    15    16    1
    87    78    80    1
    88    78    79    1
    89    83    84    2
    90    66    64   ar
    91    66    67   ar
    92    64    63   ar
    93    67    65   ar
    94    63    65   ar
    95    63    62    1
    96    62    59    1
    97    90    91    2
    98    90    89    1
    99    44    41    1
   100    41    40    1
   101    41    42    1
   102    88    89    1
   103    61    60    2
   104    89    92    1
   105    59    60    1
   106    59    58    1
   107    93    94    1
   108    93    95    1
   109    93    92    1
   110    42    45   am
   111    42    43    2
   112    45    46    1
   113    58    55   am
   114    46    47    1
   115    55    56    2
   116    55    54    1
   117    57    54    1
   118    54    53    1
   119    49    47   am
   120    49    50    1
   121    53    51   am
   122    47    48    2
   123    51    50    1
   124    51    52    2
