@<TRIPOS>MOLECULE
tmp/4rcyA00.pdb
 152 148 0 0 0
SMALL
GASTEIGER

@<TRIPOS>ATOM
      1  N        -32.6950  -13.6440   14.5790 N.3    17  VAL17      -0.1231
      2  CA       -33.0730  -14.0730   15.9280 C.3    17  VAL17       0.1692
      3  C        -33.4770  -15.5490   15.9510 C.2    17  VAL17       0.2592
      4  O        -34.2130  -16.0390   15.0770 O.2    17  VAL17      -0.2718
      5  CB       -34.2150  -13.2020   16.4990 C.3    17  VAL17       0.0266
      6  CG1      -35.5070  -13.4180   15.7210 C.3    17  VAL17       0.0020
      7  CG2      -34.4390  -13.5140   17.9820 C.3    17  VAL17       0.0020
      8  N        -32.9360  -16.2530   16.9400 N.am   18  ALA18      -0.1966
      9  CA       -33.2200  -17.6570   17.2180 C.3    18  ALA18       0.1728
     10  C        -32.7110  -18.6230   16.1610 C.2    18  ALA18       0.2616
     11  O        -33.0790  -19.7900   16.1710 O.2    18  ALA18      -0.2715
     12  CB       -34.7270  -17.8720   17.4280 C.3    18  ALA18       0.0334
     13  N        -31.8390  -18.1750   15.2640 N.am   19  HIS19      -0.1959
     14  CA       -31.3250  -19.1160   14.2880 C.3    19  HIS19       0.1787
     15  C        -30.2650  -20.0690   14.8370 C.2    19  HIS19       0.2621
     16  O        -29.9150  -21.0410   14.1700 O.2    19  HIS19      -0.2715
     17  CB       -30.8010  -18.3560   13.0680 C.3    19  HIS19       0.0785
     18  CG       -31.9050  -17.9760   12.1320 C.ar   19  HIS19       0.0821
     19  ND1      -31.7300  -17.8360   10.7700 N.ar   19  HIS19      -0.2267
     20  CD2      -33.2160  -17.7480   12.3690 C.ar   19  HIS19       0.1154
     21  CE1      -32.8890  -17.5220   10.2140 C.ar   19  HIS19       0.1986
     22  NE2      -33.8090  -17.4690   11.1640 N.ar   19  HIS19      -0.2212
     23  N        -29.7940  -19.8230   16.0610 N.am   20  GLY20      -0.1940
     24  CA       -28.9480  -20.7800   16.7490 C.3    20  GLY20       0.2014
     25  C        -27.5370  -20.3290   17.1080 C.2    20  GLY20       0.2639
     26  O        -26.6740  -21.1710   17.3760 O.2    20  GLY20      -0.2714
     27  N        -27.3030  -19.0170   17.1260 N.am   21  LYS21      -0.1963
     28  CA       -25.9700  -18.4640   17.4020 C.3    21  LYS21       0.1728
     29  C        -25.4020  -18.9300   18.7430 C.2    21  LYS21       0.2617
     30  O        -24.2710  -19.4160   18.8200 O.2    21  LYS21      -0.2715
     31  CB       -26.0200  -16.9340   17.3720 C.3    21  LYS21       0.0311
     32  CG       -26.4690  -16.3670   16.0020 C.3    21  LYS21       0.0038
     33  CD       -26.5510  -14.8530   16.0220 C.3    21  LYS21       0.0206
     34  CE       -27.7280  -14.3530   16.8650 C.3    21  LYS21       0.1093
     35  NZ       -29.1060  -14.7090   16.3270 N.3    21  LYS21      -0.1314
     36  N        -26.1940  -18.7710   19.7930 N.am   22  THR22      -0.1937
     37  CA       -25.6820  -19.0270   21.1400 C.3    22  THR22       0.2028
     38  C        -25.5150  -20.5330   21.3620 C.2    22  THR22       0.2642
     39  O        -24.5630  -20.9840   22.0120 O.2    22  THR22      -0.2714
     40  CB       -26.6130  -18.4030   22.1860 C.3    22  THR22       0.1808
     41  OG1      -26.6580  -16.9870   21.9760 O.3    22  THR22      -0.2208
     42  CG2      -26.1240  -18.6940   23.6320 C.3    22  THR22       0.0379
     43  N        -26.4280  -21.3110   20.7890 N.am   23  THR23      -0.1950
     44  CA       -26.3350  -22.7600   20.8450 C.3    23  THR23       0.1897
     45  C        -25.1150  -23.2570   20.0560 C.2    23  THR23       0.2313
     46  O        -24.4680  -24.2230   20.4480 O.2    23  THR23      -0.2863
     47  CB       -27.6330  -23.4210   20.3080 C.3    23  THR23       0.1794
     48  OG1      -28.7570  -22.9890   21.0950 O.3    23  THR23      -0.2208
     49  CG2      -27.5440  -24.9430   20.3680 C.3    23  THR23       0.0378
     50  N        -22.5160  -21.4510   27.6970 N.3    32  TRP32      -0.1241
     51  CA       -23.7100  -20.6980   27.3210 C.3    32  TRP32       0.1605
     52  C        -23.4300  -19.2240   27.6100 C.2    32  TRP32       0.2264
     53  O        -23.1810  -18.8460   28.7540 O.2    32  TRP32      -0.2867
     54  CB       -24.9570  -21.1840   28.0830 C.3    32  TRP32       0.0550
     55  CG       -26.2330  -20.5990   27.5560 C.ar   32  TRP32       0.0003
     56  CD1      -26.9580  -19.5730   28.1010 C.ar   32  TRP32       0.0946
     57  CD2      -26.9300  -20.9950   26.3690 C.ar   32  TRP32       0.0152
     58  NE1      -28.0700  -19.3140   27.3270 N.ar   32  TRP32      -0.2442
     59  CE2      -28.0770  -20.1770   26.2600 C.ar   32  TRP32       0.0810
     60  CE3      -26.7070  -21.9740   25.3950 C.ar   32  TRP32       0.0012
     61  CZ2      -28.9940  -20.3040   25.2130 C.ar   32  TRP32       0.0191
     62  CZ3      -27.6160  -22.0990   24.3590 C.ar   32  TRP32       0.0001
     63  CH2      -28.7410  -21.2620   24.2710 C.ar   32  TRP32       0.0015
     64  N        -35.0210  -16.1510   26.8420 N.3    43  GLY43      -0.1210
     65  CA       -34.3690  -17.1260   25.9800 C.3    43  GLY43       0.1956
     66  C        -33.7600  -16.4830   24.7450 C.2    43  GLY43       0.2612
     67  O        -33.8220  -17.0230   23.6360 O.2    43  GLY43      -0.2717
     68  N        -33.1570  -15.3180   24.9410 N.am   44  MET44      -0.1965
     69  CA       -32.5840  -14.5580   23.8370 C.3    44  MET44       0.1736
     70  C        -31.3390  -13.8100   24.2850 C.2    44  MET44       0.2617
     71  O        -31.2070  -13.4550   25.4570 O.2    44  MET44      -0.2715
     72  CB       -33.6090  -13.5680   23.2890 C.3    44  MET44       0.0427
     73  CG       -33.8810  -12.4260   24.2510 C.3    44  MET44       0.0599
     74  SD       -35.1160  -11.2580   23.6790 S.3    44  MET44      -0.1393
     75  CE       -34.3820  -10.7370   22.1270 C.3    44  MET44       0.0692
     76  N        -30.4260  -13.5660   23.3520 N.am   45  THR45      -0.1951
     77  CA       -29.2510  -12.7650   23.6430 C.3    45  THR45       0.1897
     78  C        -29.6200  -11.2920   23.5920 C.2    45  THR45       0.2313
     79  O        -30.3040  -10.8530   22.6650 O.2    45  THR45      -0.2863
     80  CB       -28.1110  -13.0750   22.6390 C.3    45  THR45       0.1794
     81  OG1      -27.7330  -14.4470   22.7660 O.3    45  THR45      -0.2208
     82  CG2      -26.8790  -12.1860   22.8470 C.3    45  THR45       0.0378
     83  N        -23.4420  -12.2340   19.0900 N.3    93  ALA93      -0.1245
     84  CA       -24.2620  -11.0350   18.9100 C.3    93  ALA93       0.1562
     85  C        -25.7530  -11.3010   19.1200 C.2    93  ALA93       0.2260
     86  O        -26.2360  -12.3970   18.8190 O.2    93  ALA93      -0.2867
     87  CB       -24.0390  -10.4400   17.4810 C.3    93  ALA93       0.0290
     88  N        -29.4520  -11.1260   17.7580 N.3    95  GLY95      -0.1210
     89  CA       -30.0520  -11.1250   16.4370 C.3    95  GLY95       0.1956
     90  C        -31.3100  -10.2870   16.3380 C.2    95  GLY95       0.2611
     91  O        -31.7840  -10.0320   15.2300 O.2    95  GLY95      -0.2717
     92  N        -31.8730   -9.8610   17.4760 N.am   96  HIS96      -0.1975
     93  CA       -33.1530   -9.1460   17.4360 C.3    96  HIS96       0.1656
     94  C        -33.0250   -7.8240   16.6900 C.2    96  HIS96       0.2291
     95  O        -32.0080   -7.1310   16.8070 O.2    96  HIS96      -0.2864
     96  CB       -33.7010   -8.8950   18.8450 C.3    96  HIS96       0.0771
     97  CG       -35.1690   -8.5930   18.8570 C.ar   96  HIS96       0.0820
     98  ND1      -35.6830   -7.3970   18.4090 N.ar   96  HIS96      -0.2267
     99  CD2      -36.2270   -9.3460   19.2390 C.ar   96  HIS96       0.1154
    100  CE1      -37.0040   -7.4220   18.5250 C.ar   96  HIS96       0.1986
    101  NE2      -37.3560   -8.5890   19.0240 N.ar   96  HIS96      -0.2212
    102  N        -27.5010  -23.9590    9.9640 N.3   148  ASN148     -0.1225
    103  CA       -27.8370  -24.6320   11.2100 C.3   148  ASN148      0.1785
    104  C        -29.2210  -25.3030   11.1670 C.2   148  ASN148      0.2597
    105  O        -29.9830  -25.1160   10.2180 O.2   148  ASN148     -0.2718
    106  CB       -27.7640  -23.6190   12.3480 C.3   148  ASN148      0.1169
    107  CG       -27.7820  -24.2760   13.7080 C.2   148  ASN148      0.2627
    108  OD1      -27.2190  -25.3580   13.8870 O.2   148  ASN148     -0.2716
    109  ND2      -28.4630  -23.6470   14.6650 N.am  148  ASN148     -0.0877
    110  N        -29.5320  -26.0850   12.1990 N.am  149  LYS149     -0.1980
    111  CA       -30.8070  -26.7980   12.3350 C.3   149  LYS149      0.1596
    112  C        -31.0880  -27.7670   11.1940 C.2   149  LYS149      0.2287
    113  O        -32.2440  -28.0050   10.8520 O.2   149  LYS149     -0.2864
    114  CB       -31.9780  -25.8120   12.4580 C.3   149  LYS149      0.0298
    115  CG       -31.7630  -24.7180   13.5000 C.3   149  LYS149      0.0038
    116  CD       -33.0790  -24.1430   14.0120 C.3   149  LYS149      0.0206
    117  CE       -32.8290  -22.9210   14.8850 C.3   149  LYS149      0.1093
    118  NZ       -34.0800  -22.4130   15.5240 N.3   149  LYS149     -0.1314
    119  N        -31.0230  -30.7410   11.3910 N.3   151  ASP151     -0.1225
    120  CA       -31.6180  -31.9150   12.0230 C.3   151  ASP151      0.1805
    121  C        -33.1320  -31.9530   11.8420 C.2   151  ASP151      0.2597
    122  O        -33.7550  -33.0020   12.0140 O.2   151  ASP151     -0.2718
    123  CB       -31.2740  -31.9550   13.5220 C.3   151  ASP151      0.1424
    124  CG       -31.6470  -30.6700   14.2440 C.2   151  ASP151      0.3668
    125  OD1      -30.9500  -29.6510   14.0460 O.co2 151  ASP151     -0.2456
    126  OD2      -32.6290  -30.6770   15.0170 O.co2 151  ASP151     -0.2456
    127  N        -33.7280  -30.8140   11.4940 N.am  152  VAL152     -0.1980
    128  CA       -35.1820  -30.7460   11.3750 C.3   152  VAL152      0.1595
    129  C        -35.6620  -30.4310    9.9600 C.2   152  VAL152      0.2287
    130  O        -36.8230  -30.0530    9.7660 O.2   152  VAL152     -0.2864
    131  CB       -35.7880  -29.7040   12.3460 C.3   152  VAL152      0.0276
    132  CG1      -35.7420  -30.2220   13.7770 C.3   152  VAL152      0.0022
    133  CG2      -35.0850  -28.3610   12.2270 C.3   152  VAL152      0.0022
    134  N        -25.7260  -29.1900   12.9920 N.3   183  SER183     -0.1202
    135  CA       -26.7590  -29.0620   14.0010 C.3   183  SER183      0.2020
    136  C        -26.0830  -28.6360   15.3020 C.2   183  SER183      0.2619
    137  O        -25.3730  -29.4290   15.9040 O.2   183  SER183     -0.2717
    138  CB       -27.5130  -30.3770   14.2000 C.3   183  SER183      0.2103
    139  OG       -28.4280  -30.2720   15.2710 O.3   183  SER183     -0.2182
    140  N        -26.2850  -27.3900   15.7120 N.am  184  ALA184     -0.1965
    141  CA       -25.7100  -26.8950   16.9650 C.3   184  ALA184      0.1728
    142  C        -26.3230  -27.6170   18.1680 C.2   184  ALA184      0.2616
    143  O        -25.6510  -27.8720   19.1650 O.2   184  ALA184     -0.2715
    144  CB       -25.9180  -25.3950   17.0820 C.3   184  ALA184      0.0334
    145  N        -27.6050  -27.9420   18.0640 N.am  185  LEU185     -0.1977
    146  CA       -28.3190  -28.5680   19.1650 C.3   185  LEU185      0.1596
    147  C        -27.7980  -29.9800   19.4370 C.2   185  LEU185      0.2287
    148  O        -27.5900  -30.3660   20.5940 O.2   185  LEU185     -0.2864
    149  CB       -29.8250  -28.6010   18.8680 C.3   185  LEU185      0.0297
    150  CG       -30.7470  -29.1680   19.9570 C.3   185  LEU185      0.0022
    151  CD1      -30.5960  -28.3780   21.2460 C.3   185  LEU185      0.0001
    152  CD2      -32.2030  -29.1640   19.4800 C.3   185  LEU185      0.0001
@<TRIPOS>BOND
     1   130   129    2
     2   129   128    1
     3   102   103    1
     4    21    19   ar
     5    21    22   ar
     6   105   104    2
     7    19    18   ar
     8   113   112    2
     9    22    20   ar
    10   104   103    1
    11   104   110   am
    12   112   111    1
    13   103   106    1
    14   128   127    1
    15   128   131    1
    16   119   120    1
    17   127   121   am
    18   121   122    2
    19   121   120    1
    20   120   123    1
    21    18    20   ar
    22    18    17    1
    23   110   111    1
    24   133   131    1
    25   111   114    1
    26   131   132    1
    27   106   107    1
    28   114   115    1
    29   134   135    1
    30    17    14    1
    31   115   116    1
    32   123   124    1
    33   107   108    2
    34   107   109   am
    35   135   138    1
    36   135   136    1
    37   116   117    1
    38   125   124   ar
    39    16    15    2
    40   138   139    1
    41   124   126   ar
    42    14    15    1
    43    14    13    1
    44     1     2    1
    45    15    23   am
    46   117   118    1
    47     4     3    2
    48    91    90    2
    49    13    10   am
    50   136   140   am
    51   136   137    2
    52   140   141    1
    53     6     5    1
    54     2     3    1
    55     2     5    1
    56     3     8   am
    57    32    33    1
    58    32    31    1
    59    33    34    1
    60    23    24    1
    61    10    11    2
    62    10     9    1
    63    35    34    1
    64    90    89    1
    65    90    92   am
    66    89    88    1
    67     5     7    1
    68    94    95    2
    69    94    93    1
    70    24    25    1
    71     8     9    1
    72   141   144    1
    73   141   142    1
    74    25    27   am
    75    25    26    2
    76    27    28    1
    77     9    12    1
    78    31    28    1
    79    28    29    1
    80    93    92    1
    81    93    96    1
    82    87    84    1
    83   145   142   am
    84   145   146    1
    85   142   143    2
    86    98   100   ar
    87    98    97   ar
    88   100   101   ar
    89    29    30    2
    90    29    36   am
    91    86    85    2
    92    96    97    1
    93    97    99   ar
    94   149   146    1
    95   149   150    1
    96    84    83    1
    97    84    85    1
    98   101    99   ar
    99   146   147    1
   100   147   148    2
   101   152   150    1
   102    36    37    1
   103   150   151    1
   104    45    46    2
   105    45    44    1
   106    47    49    1
   107    47    44    1
   108    47    48    1
   109    43    44    1
   110    43    38   am
   111    37    38    1
   112    37    40    1
   113    38    39    2
   114    41    40    1
   115    75    74    1
   116    40    42    1
   117    80    81    1
   118    80    82    1
   119    80    77    1
   120    79    78    2
   121    72    69    1
   122    72    73    1
   123    76    77    1
   124    76    70   am
   125    78    77    1
   126    67    66    2
   127    74    73    1
   128    69    70    1
   129    69    68    1
   130    63    62   ar
   131    63    61   ar
   132    70    71    2
   133    62    60   ar
   134    66    68   am
   135    66    65    1
   136    61    59   ar
   137    60    57   ar
   138    65    64    1
   139    59    57   ar
   140    59    58   ar
   141    57    55   ar
   142    51    52    1
   143    51    50    1
   144    51    54    1
   145    58    56   ar
   146    55    54    1
   147    55    56   ar
   148    52    53    2
