@<TRIPOS>MOLECULE
tmp/4rcyA01.pdb
 118 107 0 0 0
SMALL
GASTEIGER

@<TRIPOS>ATOM
      1  N        -25.7080  -14.3920   30.2940 N.3    35  LYS35      -0.1245
      2  CA       -25.5100  -14.3360   31.7410 C.3    35  LYS35       0.1561
      3  C        -26.5200  -13.4290   32.4370 C.2    35  LYS35       0.2260
      4  O        -26.6390  -13.4590   33.6620 O.2    35  LYS35      -0.2867
      5  CB       -24.0870  -13.8770   32.0700 C.3    35  LYS35       0.0271
      6  CG       -22.9980  -14.8200   31.5700 C.3    35  LYS35       0.0035
      7  CD       -21.6130  -14.3830   32.0380 C.3    35  LYS35       0.0206
      8  CE       -21.2900  -12.9720   31.5830 C.3    35  LYS35       0.1093
      9  NZ       -19.9460  -12.5370   32.0530 N.3    35  LYS35      -0.1314
     10  N        -17.5810   -3.8060   28.3050 N.3   218  ARG218     -0.1245
     11  CA       -18.0900   -4.2200   29.6110 C.3   218  ARG218      0.1563
     12  C        -17.3640   -3.4600   30.7060 C.2   218  ARG218      0.2260
     13  O        -16.2120   -3.0680   30.5430 O.2   218  ARG218     -0.2867
     14  CB       -17.9050   -5.7280   29.8430 C.3   218  ARG218      0.0307
     15  CG       -18.7930   -6.6490   29.0200 C.3   218  ARG218      0.0489
     16  CD       -18.3920   -8.1200   29.2260 C.3   218  ARG218      0.2205
     17  NE       -19.2200   -9.0380   28.4390 N.pl3 218  ARG218     -0.0865
     18  CZ       -19.1320  -10.3690   28.4810 C.cat 218  ARG218      0.5346
     19  NH1      -18.2460  -10.9650   29.2770 N.pl3 218  ARG218      0.1354
     20  NH2      -19.9380  -11.1080   27.7270 N.pl3 218  ARG218      0.1354
     21  N        -17.3440   -3.6600   35.2700 N.3   220  PHE220     -0.1241
     22  CA       -17.9280   -4.3880   36.3940 C.3   220  PHE220      0.1605
     23  C        -17.4690   -3.8670   37.7350 C.2   220  PHE220      0.2264
     24  O        -16.3980   -3.2720   37.8520 O.2   220  PHE220     -0.2867
     25  CB       -17.5630   -5.8780   36.3820 C.3   220  PHE220      0.0534
     26  CG       -17.5750   -6.5250   35.0420 C.ar  220  PHE220     -0.0203
     27  CD1      -16.4750   -6.4420   34.2060 C.ar  220  PHE220     -0.0042
     28  CD2      -18.6610   -7.2850   34.6430 C.ar  220  PHE220     -0.0042
     29  CE1      -16.4750   -7.0650   32.9920 C.ar  220  PHE220     -0.0003
     30  CE2      -18.6640   -7.9110   33.4250 C.ar  220  PHE220     -0.0003
     31  CZ       -17.5690   -7.8010   32.5970 C.ar  220  PHE220     -0.0000
     32  N        -16.5690   -6.1740   40.7530 N.3   222  VAL222     -0.1245
     33  CA       -16.3180   -7.6080   40.8670 C.3   222  VAL222      0.1561
     34  C        -16.4010   -8.0980   42.3150 C.2   222  VAL222      0.2260
     35  O        -16.2120   -9.2790   42.5980 O.2   222  VAL222     -0.2867
     36  CB       -14.9420   -7.9700   40.2650 C.3   222  VAL222      0.0252
     37  CG1      -13.8060   -7.5770   41.2040 C.3   222  VAL222      0.0019
     38  CG2      -14.8870   -9.4460   39.9200 C.3   222  VAL222      0.0019
     39  N        -18.0730   -9.3960   45.5680 N.3   224  LYS224     -0.1245
     40  CA       -19.2530  -10.1850   45.9050 C.3   224  LYS224      0.1561
     41  C        -19.4860  -10.2150   47.4170 C.2   224  LYS224      0.2260
     42  O        -18.5740   -9.9260   48.1950 O.2   224  LYS224     -0.2867
     43  CB       -19.1030  -11.6070   45.3640 C.3   224  LYS224      0.0271
     44  CG       -18.8960  -11.6760   43.8630 C.3   224  LYS224      0.0035
     45  CD       -17.6970  -12.5400   43.5230 C.3   224  LYS224      0.0206
     46  CE       -17.2360  -12.3000   42.0970 C.3   224  LYS224      0.1093
     47  NZ       -15.8720  -12.8460   41.8550 N.3   224  LYS224     -0.1314
     48  N        -11.7340   -5.5650   45.5160 N.3   233  LYS233     -0.1245
     49  CA       -11.0170   -5.0340   44.3520 C.3   233  LYS233      0.1561
     50  C        -11.5500   -3.7260   43.7560 C.2   233  LYS233      0.2260
     51  O        -12.7010   -3.3470   43.9560 O.2   233  LYS233     -0.2867
     52  CB       -10.9920   -6.0930   43.2470 C.3   233  LYS233      0.0271
     53  CG       -10.0060   -7.2180   43.5010 C.3   233  LYS233      0.0035
     54  CD       -10.4320   -8.4940   42.8130 C.3   233  LYS233      0.0206
     55  CE        -9.5160   -9.6410   43.1940 C.3   233  LYS233      0.1093
     56  NZ        -9.8790  -10.8920   42.4700 N.3   233  LYS233     -0.1314
     57  N        -13.3680   -3.1190   37.3200 N.3   236  VAL236     -0.1245
     58  CA       -12.8050   -3.8790   36.2040 C.3   236  VAL236      0.1561
     59  C        -13.4290   -3.4020   34.9010 C.2   236  VAL236      0.2260
     60  O        -14.6270   -3.1330   34.8500 O.2   236  VAL236     -0.2867
     61  CB       -13.0380   -5.3960   36.3780 C.3   236  VAL236      0.0252
     62  CG1      -12.4830   -6.1750   35.1860 C.3   236  VAL236      0.0019
     63  CG2      -12.3970   -5.8720   37.6950 C.3   236  VAL236      0.0019
     64  N         -4.4220   -5.6650   37.2770 N.3   277  SER277     -0.1202
     65  CA        -4.4450   -7.0660   36.8940 C.3   277  SER277      0.2020
     66  C         -4.9940   -7.2150   35.4880 C.2   277  SER277      0.2619
     67  O         -5.7050   -6.3400   34.9980 O.2   277  SER277     -0.2717
     68  CB        -5.2850   -7.8910   37.8770 C.3   277  SER277      0.2103
     69  OG        -6.6450   -7.4900   37.8520 O.3   277  SER277     -0.2182
     70  N         -4.6570   -8.3350   34.8610 N.am  278  ILE278     -0.1965
     71  CA        -5.1150   -8.6540   33.5120 C.3   278  ILE278      0.1727
     72  C         -5.6190  -10.0820   33.5060 C.2   278  ILE278      0.2616
     73  O         -4.8980  -10.9920   33.9240 O.2   278  ILE278     -0.2715
     74  CB        -3.9750   -8.4930   32.4800 C.3   278  ILE278      0.0290
     75  CG1       -3.6050   -7.0150   32.3330 C.3   278  ILE278      0.0022
     76  CG2       -4.3760   -9.0890   31.1090 C.3   278  ILE278      0.0023
     77  CD1       -2.4420   -6.7570   31.3990 C.3   278  ILE278      0.0001
     78  N         -6.8590  -10.2770   33.0620 N.am  279  ARG279     -0.1977
     79  CA        -7.4400  -11.6130   32.9610 C.3   279  ARG279      0.1597
     80  C         -8.1230  -11.8420   31.6340 C.2   279  ARG279      0.2287
     81  O         -8.8110  -10.9630   31.1320 O.2   279  ARG279     -0.2864
     82  CB        -8.4690  -11.8650   34.0680 C.3   279  ARG279      0.0334
     83  CG        -7.8770  -12.0620   35.4470 C.3   279  ARG279      0.0492
     84  CD        -8.9090  -12.6400   36.3970 C.3   279  ARG279      0.2205
     85  NE        -8.4640  -12.5490   37.7840 N.pl3 279  ARG279     -0.0865
     86  CZ        -9.0010  -13.2290   38.7940 C.cat 279  ARG279      0.5346
     87  NH1      -10.0020  -14.0730   38.5730 N.pl3 279  ARG279      0.1354
     88  NH2       -8.5270  -13.0730   40.0250 N.pl3 279  ARG279      0.1354
     89  N        -10.7920  -14.8240   30.5220 N.3   281  GLY281     -0.1210
     90  CA       -11.5300  -15.9340   31.0960 C.3   281  GLY281      0.1956
     91  C        -11.1690  -16.0930   32.5630 C.2   281  GLY281      0.2611
     92  O        -11.2810  -15.1430   33.3390 O.2   281  GLY281     -0.2717
     93  N        -10.7010  -17.2790   32.9380 N.am  282  ASP282     -0.1973
     94  CA       -10.3420  -17.5460   34.3320 C.3   282  ASP282      0.1709
     95  C         -8.8450  -17.4480   34.6070 C.2   282  ASP282      0.2293
     96  O         -8.3920  -17.8010   35.6930 O.2   282  ASP282     -0.2864
     97  CB       -10.8400  -18.9320   34.7470 C.3   282  ASP282      0.1436
     98  CG       -12.3340  -18.9650   34.9730 C.2   282  ASP282      0.3671
     99  OD1      -12.8940  -17.9210   35.3720 O.co2 282  ASP282     -0.2456
    100  OD2      -12.9480  -20.0320   34.7580 O.co2 282  ASP282     -0.2456
    101  N         -5.0530  -15.3950   34.7330 N.3   284  GLU284     -0.1245
    102  CA        -4.3470  -14.1290   34.8820 C.3   284  GLU284      0.1567
    103  C         -3.0970  -14.0850   34.0180 C.2   284  GLU284      0.2260
    104  O         -2.4140  -15.0970   33.8350 O.2   284  GLU284     -0.2867
    105  CB        -3.9660  -13.8950   36.3450 C.3   284  GLU284      0.0388
    106  CG        -5.1580  -13.7650   37.2690 C.3   284  GLU284      0.1160
    107  CD        -5.1110  -12.5100   38.1240 C.2   284  GLU284      0.3649
    108  OE1       -5.9240  -12.4070   39.0650 O.co2 284  GLU284     -0.2457
    109  OE2       -4.2720  -11.6270   37.8600 O.co2 284  GLU284     -0.2457
    110  N        -10.2490   -8.6150   30.6740 N.3   295  ALA295     -0.1245
    111  CA       -10.7100   -7.9100   31.8530 C.3   295  ALA295      0.1562
    112  C         -9.5320   -7.1540   32.4570 C.2   295  ALA295      0.2260
    113  O         -8.5810   -7.7570   32.9690 O.2   295  ALA295     -0.2867
    114  CB       -11.3020   -8.8750   32.8530 C.3   295  ALA295      0.0290
    115  N         -8.1790   -5.0270   35.3440 N.3   297  GLY297     -0.1225
    116  CA        -8.3770   -4.6000   36.7140 C.3   297  GLY297      0.1811
    117  C         -7.7430   -3.2410   36.9340 C.2   297  GLY297      0.2280
    118  O         -6.6500   -2.9760   36.4380 O.2   297  GLY297     -0.2866
@<TRIPOS>BOND
     1    20    18    1
     2    10    11    1
     3    17    18    2
     4    17    16    1
     5    18    19    1
     6    15    16    1
     7    15    14    1
     8    11    14    1
     9    11    12    1
    10     1     2    1
    11    89    90    1
    12    13    12    2
    13   110   111    1
    14    90    91    1
    15    76    74    1
    16    81    80    2
    17    77    75    1
    18     6     7    1
    19     6     5    1
    20     8     7    1
    21     8     9    1
    22    80    79    1
    23     2     5    1
    24     2     3    1
    25   111   112    1
    26   111   114    1
    27    75    74    1
    28     3     4    2
    29   112   113    2
    30    74    71    1
    31    91    93   am
    32    91    92    2
    33    31    29   ar
    34    31    30   ar
    35    93    94    1
    36    79    78    1
    37    79    82    1
    38    29    27   ar
    39    78    72   am
    40    30    28   ar
    41    72    71    1
    42    72    73    2
    43    71    70    1
    44   104   103    2
    45   103   102    1
    46    82    83    1
    47    27    26   ar
    48    94    95    1
    49    94    97    1
    50    95    96    2
    51    28    26   ar
    52   101   102    1
    53    97    98    1
    54   100    98   ar
    55    60    59    2
    56    70    66   am
    57   102   105    1
    58    59    58    1
    59    98    99   ar
    60    67    66    2
    61    26    25    1
    62    62    61    1
    63    21    22    1
    64   115   116    1
    65    83    84    1
    66    66    65    1
    67    58    61    1
    68    58    57    1
    69   105   106    1
    70    61    63    1
    71    25    22    1
    72    22    23    1
    73    84    85    1
    74   118   117    2
    75   116   117    1
    76    65    64    1
    77    65    68    1
    78   106   107    1
    79    23    24    2
    80    85    86    2
    81    69    68    1
    82   109   107   ar
    83   107   108   ar
    84    87    86    1
    85    86    88    1
    86    38    36    1
    87    36    33    1
    88    36    37    1
    89    32    33    1
    90    33    34    1
    91    47    46    1
    92    46    45    1
    93    34    35    2
    94    56    55    1
    95    54    55    1
    96    54    53    1
    97    52    53    1
    98    52    49    1
    99    45    44    1
   100    50    51    2
   101    50    49    1
   102    44    43    1
   103    49    48    1
   104    43    40    1
   105    39    40    1
   106    40    41    1
   107    41    42    2
