@<TRIPOS>MOLECULE
tmp/4rczA01.pdb
 126 114 0 0 0
SMALL
GASTEIGER

@<TRIPOS>ATOM
      1  N        -25.7770  -14.3740   30.3650 N.3    35  LYS35      -0.1245
      2  CA       -25.5380  -14.2890   31.8020 C.3    35  LYS35       0.1561
      3  C        -26.5540  -13.4170   32.5200 C.2    35  LYS35       0.2260
      4  O        -26.6110  -13.4230   33.7460 O.2    35  LYS35      -0.2867
      5  CB       -24.1140  -13.7840   32.0850 C.3    35  LYS35       0.0271
      6  CG       -23.0220  -14.6070   31.4050 C.3    35  LYS35       0.0035
      7  CD       -21.6390  -14.2960   31.9610 C.3    35  LYS35       0.0206
      8  CE       -21.1430  -12.9230   31.5280 C.3    35  LYS35       0.1093
      9  NZ       -19.9070  -12.5300   32.2740 N.3    35  LYS35      -0.1314
     10  N        -17.6020   -4.0060   28.2300 N.3   218  ARG218     -0.1245
     11  CA       -18.1220   -4.4450   29.5180 C.3   218  ARG218      0.1563
     12  C        -17.4210   -3.6780   30.6140 C.2   218  ARG218      0.2260
     13  O        -16.2700   -3.2890   30.4720 O.2   218  ARG218     -0.2867
     14  CB       -17.8660   -5.9390   29.7240 C.3   218  ARG218      0.0307
     15  CG       -18.7260   -6.8620   28.8770 C.3   218  ARG218      0.0489
     16  CD       -18.3770   -8.3360   29.1240 C.3   218  ARG218      0.2205
     17  NE       -19.3010   -9.2310   28.4320 N.pl3 218  ARG218     -0.0865
     18  CZ       -19.2670  -10.5590   28.4940 C.cat 218  ARG218      0.5346
     19  NH1      -20.1670  -11.2720   27.8240 N.pl3 218  ARG218      0.1354
     20  NH2      -18.3390  -11.1790   29.2190 N.pl3 218  ARG218      0.1354
     21  N        -17.4770   -3.9380   35.1710 N.3   220  PHE220     -0.1227
     22  CA       -18.1100   -4.6230   36.2930 C.3   220  PHE220      0.1736
     23  C        -17.5270   -4.2680   37.6420 C.2   220  PHE220      0.2595
     24  O        -16.4160   -3.7400   37.7490 O.2   220  PHE220     -0.2718
     25  CB       -18.0350   -6.1610   36.1840 C.3   220  PHE220      0.0547
     26  CG       -17.5770   -6.6960   34.8540 C.ar  220  PHE220     -0.0202
     27  CD1      -18.4760   -7.3270   34.0130 C.ar  220  PHE220     -0.0042
     28  CD2      -16.2450   -6.6360   34.4720 C.ar  220  PHE220     -0.0042
     29  CE1      -18.0660   -7.8480   32.8080 C.ar  220  PHE220     -0.0003
     30  CE2      -15.8330   -7.1540   33.2630 C.ar  220  PHE220     -0.0003
     31  CZ       -16.7430   -7.7610   32.4320 C.ar  220  PHE220     -0.0000
     32  N        -18.3070   -4.5940   38.6680 N.am  221  ASP221     -0.1960
     33  CA       -17.8420   -4.6960   40.0390 C.3   221  ASP221      0.1840
     34  C        -17.7370   -6.1950   40.3080 C.2   221  ASP221      0.2621
     35  O        -18.7510   -6.8970   40.3050 O.2   221  ASP221     -0.2715
     36  CB       -18.8670   -4.0510   40.9760 C.3   221  ASP221      0.1450
     37  CG       -18.4840   -4.1650   42.4480 C.2   221  ASP221      0.3671
     38  OD1      -17.5140   -4.8790   42.7710 O.co2 221  ASP221     -0.2456
     39  OD2      -19.1690   -3.5480   43.2930 O.co2 221  ASP221     -0.2456
     40  N        -16.5190   -6.6890   40.5330 N.am  222  VAL222     -0.1977
     41  CA       -16.3020   -8.1290   40.6900 C.3   222  VAL222      0.1596
     42  C        -16.3570   -8.6160   42.1320 C.2   222  VAL222      0.2287
     43  O        -16.1570   -9.7990   42.3990 O.2   222  VAL222     -0.2864
     44  CB       -14.9580   -8.5740   40.0930 C.3   222  VAL222      0.0276
     45  CG1      -14.9490   -8.3460   38.5910 C.3   222  VAL222      0.0022
     46  CG2      -13.8050   -7.8470   40.7820 C.3   222  VAL222      0.0022
     47  N        -17.9480   -9.9740   45.2990 N.3   224  LYS224     -0.1245
     48  CA       -19.1120  -10.7960   45.5930 C.3   224  LYS224      0.1561
     49  C        -19.3940  -10.8080   47.0940 C.2   224  LYS224      0.2260
     50  O        -18.4950  -10.5540   47.8930 O.2   224  LYS224     -0.2867
     51  CB       -18.8600  -12.2220   45.1020 C.3   224  LYS224      0.0271
     52  CG       -18.4530  -12.3090   43.6420 C.3   224  LYS224      0.0035
     53  CD       -17.7510  -13.6250   43.3470 C.3   224  LYS224      0.0206
     54  CE       -17.2370  -13.6600   41.9160 C.3   224  LYS224      0.1093
     55  NZ       -16.3430  -12.5060   41.6170 N.3   224  LYS224     -0.1314
     56  N        -11.5080   -5.9700   45.4080 N.3   233  LYS233     -0.1245
     57  CA       -10.7450   -5.4180   44.2930 C.3   233  LYS233      0.1561
     58  C        -11.3940   -4.1710   43.6880 C.2   233  LYS233      0.2260
     59  O        -12.5710   -3.9090   43.8940 O.2   233  LYS233     -0.2867
     60  CB       -10.5660   -6.4870   43.2090 C.3   233  LYS233      0.0271
     61  CG        -9.7800   -7.7120   43.6690 C.3   233  LYS233      0.0035
     62  CD       -10.0250   -8.8950   42.7590 C.3   233  LYS233      0.0206
     63  CE        -9.1680  -10.0950   43.1460 C.3   233  LYS233      0.1093
     64  NZ        -9.6780  -10.7990   44.3550 N.3   233  LYS233     -0.1314
     65  N        -13.3700   -3.3840   37.2910 N.3   236  VAL236     -0.1245
     66  CA       -12.8240   -4.1030   36.1420 C.3   236  VAL236      0.1561
     67  C        -13.4790   -3.6350   34.8470 C.2   236  VAL236      0.2260
     68  O        -14.6890   -3.3850   34.7970 O.2   236  VAL236     -0.2867
     69  CB       -12.9780   -5.6360   36.3230 C.3   236  VAL236      0.0252
     70  CG1      -12.4190   -6.3960   35.1310 C.3   236  VAL236      0.0019
     71  CG2      -12.2660   -6.0810   37.5980 C.3   236  VAL236      0.0019
     72  N         -4.4420   -5.8460   37.2910 N.3   277  SER277     -0.1217
     73  CA        -4.4420   -7.2450   36.8920 C.3   277  SER277      0.1889
     74  C         -4.9930   -7.3790   35.4810 C.2   277  SER277      0.2288
     75  O         -5.6710   -6.4810   34.9910 O.2   277  SER277     -0.2866
     76  CB        -5.2890   -8.0760   37.8540 C.3   277  SER277      0.2089
     77  OG        -6.6440   -7.6530   37.8530 O.3   277  SER277     -0.2183
     78  N         -6.8990  -10.4630   33.0130 N.3   279  ARG279     -0.1245
     79  CA        -7.4540  -11.8100   32.9070 C.3   279  ARG279      0.1563
     80  C         -8.1330  -12.0170   31.5670 C.2   279  ARG279      0.2260
     81  O         -8.7830  -11.1100   31.0570 O.2   279  ARG279     -0.2867
     82  CB        -8.4850  -12.0790   34.0120 C.3   279  ARG279      0.0307
     83  CG        -7.9170  -12.2850   35.3970 C.3   279  ARG279      0.0489
     84  CD        -8.9650  -12.9090   36.3010 C.3   279  ARG279      0.2205
     85  NE        -8.6070  -12.7900   37.7090 N.pl3 279  ARG279     -0.0865
     86  CZ        -9.3350  -13.2790   38.7090 C.cat 279  ARG279      0.5346
     87  NH1      -10.4620  -13.9290   38.4530 N.pl3 279  ARG279      0.1354
     88  NH2       -8.9340  -13.1220   39.9630 N.pl3 279  ARG279      0.1354
     89  N        -10.8580  -14.9510   30.4400 N.3   281  GLY281     -0.1210
     90  CA       -11.6100  -16.0510   31.0220 C.3   281  GLY281      0.1956
     91  C        -11.2650  -16.2190   32.4930 C.2   281  GLY281      0.2611
     92  O        -11.3840  -15.2730   33.2690 O.2   281  GLY281     -0.2717
     93  N        -10.8120  -17.4110   32.8750 N.am  282  ASP282     -0.1973
     94  CA       -10.4610  -17.6860   34.2680 C.3   282  ASP282      0.1709
     95  C         -8.9600  -17.6480   34.5340 C.2   282  ASP282      0.2293
     96  O         -8.5000  -18.1260   35.5730 O.2   282  ASP282     -0.2864
     97  CB       -11.0080  -19.0490   34.6970 C.3   282  ASP282      0.1436
     98  CG       -12.5010  -19.0260   34.9370 C.2   282  ASP282      0.3671
     99  OD1      -13.0320  -17.9420   35.2600 O.co2 282  ASP282     -0.2456
    100  OD2      -13.1410  -20.0910   34.8100 O.co2 282  ASP282     -0.2456
    101  N         -5.1400  -15.5860   34.6940 N.3   284  GLU284     -0.1245
    102  CA        -4.4280  -14.3220   34.8460 C.3   284  GLU284      0.1567
    103  C         -3.1800  -14.2670   33.9790 C.2   284  GLU284      0.2260
    104  O         -2.5050  -15.2760   33.7670 O.2   284  GLU284     -0.2867
    105  CB        -4.0440  -14.0780   36.3100 C.3   284  GLU284      0.0388
    106  CG        -5.2300  -13.8320   37.2350 C.3   284  GLU284      0.1160
    107  CD        -5.0960  -12.5470   38.0380 C.2   284  GLU284      0.3649
    108  OE1       -6.0590  -12.1810   38.7460 O.co2 284  GLU284     -0.2457
    109  OE2       -4.0280  -11.9040   37.9640 O.co2 284  GLU284     -0.2457
    110  N        -11.5110  -11.2860   24.6890 N.3   293  LEU293     -0.1245
    111  CA       -12.0380  -10.1850   25.4800 C.3   293  LEU293      0.1561
    112  C        -11.2700  -10.2080   26.7920 C.2   293  LEU293      0.2260
    113  O        -11.3610  -11.1720   27.5650 O.2   293  LEU293     -0.2867
    114  CB       -13.5380  -10.3680   25.7330 C.3   293  LEU293      0.0270
    115  CG       -14.4130   -9.3060   26.4180 C.3   293  LEU293      0.0019
    116  CD1      -15.8720   -9.7310   26.3400 C.3   293  LEU293      0.0001
    117  CD2      -14.0500   -9.0470   27.8830 C.3   293  LEU293      0.0001
    118  N        -10.1930   -8.7630   30.5730 N.3   295  ALA295     -0.1245
    119  CA       -10.6830   -8.0670   31.7670 C.3   295  ALA295      0.1562
    120  C         -9.5110   -7.3200   32.3970 C.2   295  ALA295      0.2260
    121  O         -8.5670   -7.9350   32.9060 O.2   295  ALA295     -0.2867
    122  CB       -11.2910   -9.0470   32.7590 C.3   295  ALA295      0.0290
    123  N         -8.2130   -5.1870   35.2760 N.3   297  GLY297     -0.1225
    124  CA        -8.4460   -4.7820   36.6460 C.3   297  GLY297      0.1811
    125  C         -7.8180   -3.4250   36.8740 C.2   297  GLY297      0.2280
    126  O         -6.7300   -3.1490   36.3630 O.2   297  GLY297     -0.2866
@<TRIPOS>BOND
     1   110   111    1
     2   111   114    1
     3   111   112    1
     4   114   115    1
     5   116   115    1
     6   115   117    1
     7   112   113    2
     8    19    18    1
     9    10    11    1
    10    17    18    2
    11    17    16    1
    12    18    20    1
    13    15    16    1
    14    15    14    1
    15    11    14    1
    16    11    12    1
    17     1     2    1
    18    89    90    1
    19    13    12    2
    20   118   119    1
    21    90    91    1
    22    81    80    2
    23     6     7    1
    24     6     5    1
    25     8     7    1
    26     8     9    1
    27    80    79    1
    28   119   120    1
    29   119   122    1
    30     2     5    1
    31     2     3    1
    32   120   121    2
    33    31    29   ar
    34    31    30   ar
    35    91    93   am
    36    91    92    2
    37     3     4    2
    38    29    27   ar
    39    93    94    1
    40    79    78    1
    41    79    82    1
    42    30    28   ar
    43   104   103    2
    44   103   102    1
    45    82    83    1
    46    27    26   ar
    47    94    95    1
    48    94    97    1
    49    28    26   ar
    50    95    96    2
    51   101   102    1
    52    97    98    1
    53    68    67    2
    54   100    98   ar
    55   102   105    1
    56    67    66    1
    57    26    25    1
    58    98    99   ar
    59    75    74    2
    60    70    69    1
    61    21    22    1
    62   123   124    1
    63    83    84    1
    64    74    73    1
    65    66    69    1
    66    66    65    1
    67    25    22    1
    68    22    23    1
    69    84    85    1
    70   105   106    1
    71    69    71    1
    72   126   125    2
    73   124   125    1
    74    73    72    1
    75    73    76    1
    76   106   107    1
    77    23    24    2
    78    23    32   am
    79    85    86    2
    80    77    76    1
    81   109   107   ar
    82   107   108   ar
    83    87    86    1
    84    45    44    1
    85    32    33    1
    86    86    88    1
    87    33    34    1
    88    33    36    1
    89    44    41    1
    90    44    46    1
    91    35    34    2
    92    34    40   am
    93    40    41    1
    94    41    42    1
    95    36    37    1
    96    55    54    1
    97    54    53    1
    98    42    43    2
    99    37    38   ar
   100    37    39   ar
   101    62    63    1
   102    62    61    1
   103    63    64    1
   104    60    61    1
   105    60    57    1
   106    53    52    1
   107    52    51    1
   108    58    59    2
   109    58    57    1
   110    57    56    1
   111    51    48    1
   112    47    48    1
   113    48    49    1
   114    49    50    2
