@<TRIPOS>MOLECULE
tmp/4rd3A01.pdb
 126 116 0 0 0
SMALL
GASTEIGER

@<TRIPOS>ATOM
      1  N        -25.7990  -14.3460   30.3950 N.3    35  LYS35      -0.1245
      2  CA       -25.6050  -14.3100   31.8460 C.3    35  LYS35       0.1561
      3  C        -26.5440  -13.3380   32.5780 C.2    35  LYS35       0.2260
      4  O        -26.6630  -13.3890   33.8080 O.2    35  LYS35      -0.2867
      5  CB       -24.1500  -13.9740   32.1590 C.3    35  LYS35       0.0271
      6  CG       -23.1680  -14.9960   31.6070 C.3    35  LYS35       0.0035
      7  CD       -21.7460  -14.6970   32.0510 C.3    35  LYS35       0.0206
      8  CE       -21.3850  -13.2390   31.7970 C.3    35  LYS35       0.1093
      9  NZ       -19.9680  -12.9380   32.1620 N.3    35  LYS35      -0.1314
     10  N        -17.6930   -3.7150   28.2910 N.3   218  ARG218     -0.1245
     11  CA       -18.2180   -4.0990   29.5940 C.3   218  ARG218      0.1563
     12  C        -17.5050   -3.3210   30.6720 C.2   218  ARG218      0.2260
     13  O        -16.3390   -2.9500   30.5310 O.2   218  ARG218     -0.2867
     14  CB       -18.0360   -5.5960   29.8740 C.3   218  ARG218      0.0307
     15  CG       -18.9300   -6.5250   29.0900 C.3   218  ARG218      0.0489
     16  CD       -18.4700   -7.9670   29.2600 C.3   218  ARG218      0.2205
     17  NE       -19.2970   -8.8900   28.4860 N.pl3 218  ARG218     -0.0865
     18  CZ       -19.1670  -10.2150   28.4980 C.cat 218  ARG218      0.5346
     19  NH1      -18.2300  -10.7970   29.2410 N.pl3 218  ARG218      0.1354
     20  NH2      -19.9770  -10.9600   27.7600 N.pl3 218  ARG218      0.1354
     21  N        -17.7010   -3.3610   35.2470 N.3   220  PHE220     -0.1227
     22  CA       -18.4320   -3.9050   36.3730 C.3   220  PHE220      0.1736
     23  C        -17.6820   -3.7780   37.6820 C.2   220  PHE220      0.2595
     24  O        -16.4830   -3.4480   37.7290 O.2   220  PHE220     -0.2718
     25  CB       -18.7850   -5.3770   36.1180 C.3   220  PHE220      0.0547
     26  CG       -17.7180   -6.1340   35.3970 C.ar  220  PHE220     -0.0202
     27  CD1      -17.7460   -6.2480   34.0160 C.ar  220  PHE220     -0.0042
     28  CD2      -16.6760   -6.7150   36.0920 C.ar  220  PHE220     -0.0042
     29  CE1      -16.7680   -6.9260   33.3430 C.ar  220  PHE220     -0.0003
     30  CE2      -15.6910   -7.3970   35.4190 C.ar  220  PHE220     -0.0003
     31  CZ       -15.7370   -7.4990   34.0380 C.ar  220  PHE220     -0.0000
     32  N        -18.4490   -4.0250   38.7350 N.am  221  ASP221     -0.1960
     33  CA       -17.9860   -4.1490   40.1120 C.3   221  ASP221      0.1840
     34  C        -17.8420   -5.6370   40.4190 C.2   221  ASP221      0.2621
     35  O        -18.8220   -6.3740   40.3700 O.2   221  ASP221     -0.2715
     36  CB       -18.9920   -3.4740   41.0470 C.3   221  ASP221      0.1450
     37  CG       -18.5930   -3.5370   42.5120 C.2   221  ASP221      0.3671
     38  OD1      -17.6790   -4.3030   42.8830 O.co2 221  ASP221     -0.2456
     39  OD2      -19.2230   -2.8050   43.3010 O.co2 221  ASP221     -0.2456
     40  N        -16.6260   -6.0770   40.7270 N.am  222  VAL222     -0.1977
     41  CA       -16.3440   -7.5050   40.8970 C.3   222  VAL222      0.1596
     42  C        -16.4210   -7.9440   42.3730 C.2   222  VAL222      0.2287
     43  O        -16.1550   -9.0980   42.7150 O.2   222  VAL222     -0.2864
     44  CB       -14.9560   -7.8560   40.3050 C.3   222  VAL222      0.0276
     45  CG1      -13.8360   -7.4030   41.2290 C.3   222  VAL222      0.0022
     46  CG2      -14.8510   -9.3400   40.0240 C.3   222  VAL222      0.0022
     47  N        -18.0900   -9.1400   45.8010 N.3   224  LYS224     -0.1245
     48  CA       -19.2050  -10.0280   46.1340 C.3   224  LYS224      0.1561
     49  C        -19.4130  -10.1030   47.6470 C.2   224  LYS224      0.2260
     50  O        -18.4710   -9.8800   48.4110 O.2   224  LYS224     -0.2867
     51  CB       -18.9500  -11.4360   45.5850 C.3   224  LYS224      0.0271
     52  CG       -18.1170  -11.4930   44.3130 C.3   224  LYS224      0.0035
     53  CD       -17.2430  -12.7440   44.3020 C.3   224  LYS224      0.0206
     54  CE       -18.0750  -14.0200   44.3410 C.3   224  LYS224      0.1093
     55  NZ       -18.3940  -14.5200   42.9700 N.3   224  LYS224     -0.1314
     56  N        -11.8910   -5.2760   45.4590 N.3   233  LYS233     -0.1245
     57  CA       -11.1280   -4.7270   44.3420 C.3   233  LYS233      0.1561
     58  C        -11.6630   -3.4230   43.7630 C.2   233  LYS233      0.2260
     59  O        -12.8200   -3.0520   43.9700 O.2   233  LYS233     -0.2867
     60  CB       -11.0550   -5.7540   43.2110 C.3   233  LYS233      0.0271
     61  CG       -10.1310   -6.9230   43.4700 C.3   233  LYS233      0.0035
     62  CD       -10.9100   -8.2120   43.6330 C.3   233  LYS233      0.0206
     63  CE       -10.0870   -9.3940   43.1530 C.3   233  LYS233      0.1093
     64  NZ        -8.6590   -9.2630   43.5540 N.3   233  LYS233     -0.1314
     65  N        -13.4740   -2.9810   37.3430 N.3   236  VAL236     -0.1245
     66  CA       -12.9010   -3.7360   36.2390 C.3   236  VAL236      0.1561
     67  C        -13.5390   -3.2620   34.9350 C.2   236  VAL236      0.2260
     68  O        -14.7470   -2.9860   34.8850 O.2   236  VAL236     -0.2867
     69  CB       -13.1060   -5.2520   36.4080 C.3   236  VAL236      0.0252
     70  CG1      -12.5440   -6.0090   35.1940 C.3   236  VAL236      0.0019
     71  CG2      -12.4420   -5.7260   37.6870 C.3   236  VAL236      0.0019
     72  N         -4.5260   -5.5040   37.3060 N.3   277  SER277     -0.1202
     73  CA        -4.5510   -6.9130   36.9200 C.3   277  SER277      0.2020
     74  C         -5.0930   -7.0770   35.5130 C.2   277  SER277      0.2619
     75  O         -5.8140   -6.2130   35.0230 O.2   277  SER277     -0.2717
     76  CB        -5.3950   -7.7380   37.9020 C.3   277  SER277      0.2103
     77  OG        -6.7610   -7.3440   37.8770 O.3   277  SER277     -0.2182
     78  N         -4.7480   -8.2000   34.8860 N.am  278  ILE278     -0.1965
     79  CA        -5.1870   -8.5280   33.5290 C.3   278  ILE278      0.1727
     80  C         -5.7070   -9.9580   33.5310 C.2   278  ILE278      0.2616
     81  O         -5.0100  -10.8740   33.9600 O.2   278  ILE278     -0.2715
     82  CB        -4.0500   -8.3880   32.5030 C.3   278  ILE278      0.0290
     83  CG1       -3.7190   -6.9130   32.2690 C.3   278  ILE278      0.0022
     84  CG2       -4.4390   -9.0290   31.1660 C.3   278  ILE278      0.0023
     85  CD1       -2.4500   -6.6830   31.4370 C.3   278  ILE278      0.0001
     86  N         -6.9340  -10.1460   33.0610 N.am  279  ARG279     -0.1977
     87  CA        -7.5710  -11.4560   33.0810 C.3   279  ARG279      0.1597
     88  C         -8.2680  -11.7410   31.7630 C.2   279  ARG279      0.2287
     89  O         -8.9970  -10.8900   31.2600 O.2   279  ARG279     -0.2864
     90  CB        -8.6030  -11.5460   34.2050 C.3   279  ARG279      0.0334
     91  CG        -8.2800  -12.4800   35.3550 C.3   279  ARG279      0.0492
     92  CD        -9.4710  -12.5140   36.3090 C.3   279  ARG279      0.2205
     93  NE        -9.4070  -13.5880   37.2980 N.pl3 279  ARG279     -0.0865
     94  CZ        -9.0790  -13.4190   38.5760 C.cat 279  ARG279      0.5346
     95  NH1       -8.7750  -12.2130   39.0360 N.pl3 279  ARG279      0.1354
     96  NH2       -9.0560  -14.4580   39.3970 N.pl3 279  ARG279      0.1354
     97  N        -10.8630  -14.6950   30.6260 N.3   281  GLY281     -0.1210
     98  CA       -11.6250  -15.7820   31.2110 C.3   281  GLY281      0.1956
     99  C        -11.2530  -15.9370   32.6750 C.2   281  GLY281      0.2611
    100  O        -11.3730  -14.9940   33.4540 O.2   281  GLY281     -0.2717
    101  N        -10.7630  -17.1190   33.0400 N.am  282  ASP282     -0.1973
    102  CA       -10.4130  -17.4060   34.4310 C.3   282  ASP282      0.1709
    103  C         -8.9040  -17.3940   34.6800 C.2   282  ASP282      0.2293
    104  O         -8.4450  -17.8730   35.7190 O.2   282  ASP282     -0.2864
    105  CB       -10.9820  -18.7630   34.8520 C.3   282  ASP282      0.1436
    106  CG       -12.5020  -18.7640   34.9380 C.2   282  ASP282      0.3671
    107  OD1      -13.0890  -17.6980   35.2270 O.co2 282  ASP282     -0.2456
    108  OD2      -13.1090  -19.8350   34.7220 O.co2 282  ASP282     -0.2456
    109  N         -5.1000  -15.2790   34.8100 N.3   284  GLU284     -0.1245
    110  CA        -4.4080  -14.0020   34.9550 C.3   284  GLU284      0.1567
    111  C         -3.1470  -13.9450   34.1040 C.2   284  GLU284      0.2260
    112  O         -2.4420  -14.9470   33.9400 O.2   284  GLU284     -0.2867
    113  CB        -4.0400  -13.7440   36.4200 C.3   284  GLU284      0.0388
    114  CG        -5.2330  -13.6360   37.3560 C.3   284  GLU284      0.1160
    115  CD        -5.2990  -12.3030   38.0790 C.2   284  GLU284      0.3649
    116  OE1       -5.9650  -12.2260   39.1320 O.co2 284  GLU284     -0.2457
    117  OE2       -4.6920  -11.3290   37.5940 O.co2 284  GLU284     -0.2457
    118  N        -10.3190   -8.4880   30.7240 N.3   295  ALA295     -0.1245
    119  CA       -10.7880   -7.7750   31.8920 C.3   295  ALA295      0.1562
    120  C         -9.5920   -7.0530   32.5150 C.2   295  ALA295      0.2260
    121  O         -8.6340   -7.6850   32.9730 O.2   295  ALA295     -0.2867
    122  CB       -11.4350   -8.7260   32.8740 C.3   295  ALA295      0.0290
    123  N         -8.2530   -4.8900   35.4280 N.3   297  GLY297     -0.1225
    124  CA        -8.4460   -4.4310   36.7890 C.3   297  GLY297      0.1811
    125  C         -7.8340   -3.0560   36.9660 C.2   297  GLY297      0.2280
    126  O         -6.7690   -2.7590   36.4140 O.2   297  GLY297     -0.2866
@<TRIPOS>BOND
     1    20    18    1
     2    10    11    1
     3    17    18    2
     4    17    16    1
     5    18    19    1
     6    15    16    1
     7    15    14    1
     8    11    14    1
     9    11    12    1
    10     1     2    1
    11    13    12    2
    12    97    98    1
    13   118   119    1
    14    84    82    1
    15    98    99    1
    16    89    88    2
    17    85    83    1
    18     6     7    1
    19     6     5    1
    20    88    87    1
    21     8     7    1
    22     8     9    1
    23     2     5    1
    24     2     3    1
    25   119   120    1
    26   119   122    1
    27    83    82    1
    28    82    79    1
    29   120   121    2
    30     3     4    2
    31    99   101   am
    32    99   100    2
    33   101   102    1
    34    86    87    1
    35    86    80   am
    36    87    90    1
    37    29    27   ar
    38    29    31   ar
    39    79    80    1
    40    79    78    1
    41    80    81    2
    42   112   111    2
    43    27    26   ar
    44    31    30   ar
    45   111   110    1
    46    90    91    1
    47   102   103    1
    48   102   105    1
    49   103   104    2
    50   108   106   ar
    51   109   110    1
    52   105   106    1
    53    68    67    2
    54    78    74   am
    55    67    66    1
    56   106   107   ar
    57   110   113    1
    58    75    74    2
    59    70    69    1
    60    21    22    1
    61    91    92    1
    62    26    28   ar
    63    26    25    1
    64    30    28   ar
    65   123   124    1
    66    74    73    1
    67    25    22    1
    68    66    69    1
    69    66    65    1
    70    92    93    1
    71    22    23    1
    72    69    71    1
    73   126   125    2
    74   113   114    1
    75   124   125    1
    76    73    72    1
    77    73    76    1
    78    93    94    2
    79   114   115    1
    80   117   115   ar
    81    23    24    2
    82    23    32   am
    83    77    76    1
    84   115   116   ar
    85    94    95    1
    86    94    96    1
    87    32    33    1
    88    46    44    1
    89    33    34    1
    90    33    36    1
    91    44    41    1
    92    44    45    1
    93    35    34    2
    94    34    40   am
    95    40    41    1
    96    41    42    1
    97    36    37    1
    98    42    43    2
    99    37    38   ar
   100    37    39   ar
   101    55    54    1
   102    63    64    1
   103    63    62    1
   104    60    61    1
   105    60    57    1
   106    61    62    1
   107    58    59    2
   108    58    57    1
   109    53    52    1
   110    53    54    1
   111    52    51    1
   112    57    56    1
   113    51    48    1
   114    47    48    1
   115    48    49    1
   116    49    50    2
