@<TRIPOS>MOLECULE
tmp/4rdaA01.pdb
 144 138 0 0 0
SMALL
GASTEIGER

@<TRIPOS>ATOM
      1  N        108.9660  105.4060  204.2860 N.3    15  GLU15      -0.1231
      2  CA       107.9730  105.8620  205.2290 C.3    15  GLU15       0.1699
      3  C        107.2710  104.6660  205.8320 C.2    15  GLU15       0.2592
      4  O        107.0000  104.6360  207.0310 O.2    15  GLU15      -0.2718
      5  CB       106.9780  106.8000  204.5500 C.3    15  GLU15       0.0402
      6  CG       105.6920  107.0710  205.3260 C.3    15  GLU15       0.1161
      7  CD       105.9290  107.4720  206.8010 C.2    15  GLU15       0.3649
      8  OE1      106.9890  108.0520  207.1370 O.co2  15  GLU15      -0.2457
      9  OE2      105.0340  107.2000  207.6250 O.co2  15  GLU15      -0.2457
     10  N        107.0190  103.6640  205.0020 N.am   16  HIS16      -0.1976
     11  CA       106.2720  102.4860  205.4180 C.3    16  HIS16       0.1656
     12  C        107.1190  101.6360  206.3540 C.2    16  HIS16       0.2291
     13  O        106.6260  101.1560  207.3790 O.2    16  HIS16      -0.2864
     14  CB       105.8260  101.6870  204.1970 C.3    16  HIS16       0.0771
     15  CG       105.0460  100.4530  204.5250 C.ar   16  HIS16       0.0820
     16  ND1      103.7300  100.4890  204.9490 N.ar   16  HIS16      -0.2267
     17  CD2      105.3950   99.1430  204.4870 C.ar   16  HIS16       0.1154
     18  CE1      103.3030   99.2550  205.1500 C.ar   16  HIS16       0.1986
     19  NE2      104.2930   98.4210  204.8770 N.ar   16  HIS16      -0.2212
     20  N        107.4330  103.5830  209.6880 N.3    19  PHE19      -0.1227
     21  CA       106.1710  103.5130  210.3930 C.3    19  PHE19       0.1736
     22  C        106.0500  102.1950  211.1680 C.2    19  PHE19       0.2595
     23  O        105.8160  102.2090  212.3760 O.2    19  PHE19      -0.2718
     24  CB       105.0190  103.6790  209.4150 C.3    19  PHE19       0.0547
     25  CG       103.6660  103.5370  210.0360 C.ar   19  PHE19      -0.0202
     26  CD1      103.2550  104.3910  211.0380 C.ar   19  PHE19      -0.0042
     27  CD2      102.7850  102.5590  209.5930 C.ar   19  PHE19      -0.0042
     28  CE1      101.9960  104.2550  211.6180 C.ar   19  PHE19      -0.0003
     29  CE2      101.5240  102.4280  210.1640 C.ar   19  PHE19      -0.0003
     30  CZ       101.1330  103.2730  211.1800 C.ar   19  PHE19      -0.0000
     31  N        106.2330  101.0700  210.4800 N.am   20  LEU20      -0.1980
     32  CA       106.1130   99.7520  211.1030 C.3    20  LEU20       0.1596
     33  C        107.0560   99.5760  212.2740 C.2    20  LEU20       0.2287
     34  O        106.6960   98.9680  213.2880 O.2    20  LEU20      -0.2864
     35  CB       106.3770   98.6350  210.0980 C.3    20  LEU20       0.0297
     36  CG       105.2940   98.4550  209.0360 C.3    20  LEU20       0.0022
     37  CD1      105.5910   97.2150  208.2140 C.3    20  LEU20       0.0001
     38  CD2      103.8890   98.4130  209.6440 C.3    20  LEU20       0.0001
     39  N        105.8520  101.6700  215.2520 N.3    23  LYS23      -0.1245
     40  CA       104.6740  100.9960  215.7830 C.3    23  LYS23       0.1561
     41  C        105.1040   99.8080  216.6320 C.2    23  LYS23       0.2260
     42  O        104.5750   99.5680  217.7150 O.2    23  LYS23      -0.2867
     43  CB       103.7670  100.5330  214.6440 C.3    23  LYS23       0.0271
     44  CG       102.3080  100.2750  215.0090 C.3    23  LYS23       0.0035
     45  CD       101.4300  100.1750  213.7440 C.3    23  LYS23       0.0206
     46  CE       101.2030   98.7150  213.2690 C.3    23  LYS23       0.1093
     47  NZ       100.1710   97.9640  214.0980 N.3    23  LYS23      -0.1314
     48  N         99.5270  107.3060  213.7980 N.3    82  VAL82      -0.1245
     49  CA        98.7010  107.0300  212.6500 C.3    82  VAL82       0.1561
     50  C         98.3680  108.3250  211.8790 C.2    82  VAL82       0.2260
     51  O         98.2690  108.3100  210.6480 O.2    82  VAL82      -0.2867
     52  CB        97.4270  106.2630  213.1060 C.3    82  VAL82       0.0252
     53  CG1       96.2010  106.6600  212.3190 C.3    82  VAL82       0.0019
     54  CG2       97.6760  104.7670  213.0200 C.3    82  VAL82       0.0019
     55  N        101.5860  109.3020  209.9220 N.3    85  HIS85      -0.1241
     56  CA       101.7370  108.4120  208.7770 C.3    85  HIS85       0.1621
     57  C        100.7430  108.7300  207.6440 C.2    85  HIS85       0.2264
     58  O        101.1140  108.7470  206.4690 O.2    85  HIS85      -0.2867
     59  CB       101.5830  106.9580  209.2170 C.3    85  HIS85       0.0745
     60  CG       101.7170  105.9610  208.0990 C.ar   85  HIS85       0.0817
     61  ND1      102.8930  105.7720  207.4060 N.ar   85  HIS85      -0.2268
     62  CD2      100.8260  105.0890  207.5710 C.ar   85  HIS85       0.1154
     63  CE1      102.7200  104.8280  206.4940 C.ar   85  HIS85       0.1986
     64  NE2      101.4730  104.4030  206.5700 N.ar   85  HIS85      -0.2212
     65  N        101.6150  109.8590  203.7020 N.3    89  VAL89      -0.1245
     66  CA       101.2660  109.0030  202.5780 C.3    89  VAL89       0.1561
     67  C        100.5630  109.8270  201.5000 C.2    89  VAL89       0.2260
     68  O        100.9650  109.8250  200.3400 O.2    89  VAL89      -0.2867
     69  CB       100.3790  107.8180  203.0230 C.3    89  VAL89       0.0252
     70  CG1       99.7140  107.1510  201.8130 C.3    89  VAL89       0.0019
     71  CG2      101.2180  106.8160  203.7850 C.3    89  VAL89       0.0019
     72  N        103.0690  112.0200  199.7470 N.3    92  LEU92      -0.1231
     73  CA       103.8550  111.2510  198.7950 C.3    92  LEU92       0.1693
     74  C        103.0640  110.9980  197.5270 C.2    92  LEU92       0.2591
     75  O        103.5950  111.0760  196.4240 O.2    92  LEU92      -0.2718
     76  CB       104.2860  109.9100  199.3910 C.3    92  LEU92       0.0284
     77  CG       105.5630  109.9050  200.2310 C.3    92  LEU92       0.0019
     78  CD1      105.4960  108.7880  201.2620 C.3    92  LEU92       0.0001
     79  CD2      106.7940  109.7470  199.3550 C.3    92  LEU92       0.0001
     80  N        101.7950  110.6530  197.6990 N.am   93  ILE93      -0.1980
     81  CA       100.9520  110.3300  196.5740 C.3    93  ILE93       0.1595
     82  C        100.7020  111.6110  195.7710 C.2    93  ILE93       0.2287
     83  O        100.7550  111.5960  194.5520 O.2    93  ILE93      -0.2864
     84  CB        99.6440  109.6750  197.0430 C.3    93  ILE93       0.0276
     85  CG1       99.9460  108.2320  197.4760 C.3    93  ILE93       0.0022
     86  CG2       98.5850  109.7350  195.9400 C.3    93  ILE93       0.0022
     87  CD1       98.7940  107.4550  198.0900 C.3    93  ILE93       0.0001
     88  N         96.7310  105.4560  191.6540 N.3   131  LYS131     -0.1245
     89  CA        97.1790  105.1390  192.9900 C.3   131  LYS131      0.1561
     90  C         96.3940  105.9820  194.0020 C.2   131  LYS131      0.2260
     91  O         96.0420  105.4920  195.0910 O.2   131  LYS131     -0.2867
     92  CB        98.6980  105.3470  193.1430 C.3   131  LYS131      0.0271
     93  CG        99.2060  105.0310  194.5510 C.3   131  LYS131      0.0035
     94  CD       100.7330  105.1300  194.6900 C.3   131  LYS131      0.0206
     95  CE       101.4520  104.0190  193.9220 C.3   131  LYS131      0.1093
     96  NZ       102.9260  104.0630  194.1010 N.3   131  LYS131     -0.1314
     97  N         93.8200  104.3770  196.8340 N.3   135  HIS135     -0.1241
     98  CA        94.0240  104.7710  198.2140 C.3   135  HIS135      0.1621
     99  C         92.7610  105.3980  198.7980 C.2   135  HIS135      0.2264
    100  O         92.4630  105.2360  199.9770 O.2   135  HIS135     -0.2867
    101  CB        95.1890  105.7470  198.3220 C.3   135  HIS135      0.0745
    102  CG        95.5980  106.0290  199.7310 C.ar  135  HIS135      0.0817
    103  ND1       95.0520  107.0500  200.4770 N.ar  135  HIS135     -0.2268
    104  CD2       96.4840  105.4040  200.5410 C.ar  135  HIS135      0.1154
    105  CE1       95.5880  107.0510  201.6830 C.ar  135  HIS135      0.1986
    106  NE2       96.4630  106.0630  201.7450 N.ar  135  HIS135     -0.2212
    107  N         90.3070  102.3720  199.2880 N.3   138  ARG138     -0.1231
    108  CA        90.7790  101.4010  200.2790 C.3   138  ARG138      0.1694
    109  C         90.7040  101.9310  201.7030 C.2   138  ARG138      0.2592
    110  O         90.3080  101.2150  202.6230 O.2   138  ARG138     -0.2718
    111  CB        92.2140  100.9730  199.9740 C.3   138  ARG138      0.0321
    112  CG        92.6990   99.8550  200.8680 C.3   138  ARG138      0.0489
    113  CD        94.1680   99.5330  200.6470 C.3   138  ARG138      0.2205
    114  NE        94.3980   98.9800  199.3240 N.pl3 138  ARG138     -0.0865
    115  CZ        95.0410   99.6120  198.3410 C.cat 138  ARG138      0.5346
    116  NH1       95.5500  100.8350  198.5350 N.pl3 138  ARG138      0.1354
    117  NH2       95.1830   99.0090  197.1620 N.pl3 138  ARG138      0.1354
    118  N         91.0790  103.1880  201.8850 N.am  139  HIS139     -0.1976
    119  CA        90.9800  103.8020  203.1900 C.3   139  HIS139      0.1656
    120  C         89.5140  103.8850  203.6130 C.2   139  HIS139      0.2291
    121  O         89.1860  103.6900  204.7870 O.2   139  HIS139     -0.2864
    122  CB        91.6330  105.1880  203.1920 C.3   139  HIS139      0.0771
    123  CG        91.5340  105.8980  204.5070 C.ar  139  HIS139      0.0820
    124  ND1       92.1180  105.4130  205.6630 N.ar  139  HIS139     -0.2267
    125  CD2       90.8990  107.0420  204.8560 C.ar  139  HIS139      0.1154
    126  CE1       91.8600  106.2370  206.6620 C.ar  139  HIS139      0.1986
    127  NE2       91.1240  107.2360  206.2000 N.ar  139  HIS139     -0.2212
    128  N         88.5020  100.4220  204.5150 N.3   142  HIS142     -0.1241
    129  CA        89.1220  100.0150  205.7650 C.3   142  HIS142      0.1621
    130  C         88.4120  100.6220  206.9780 C.2   142  HIS142      0.2264
    131  O         88.1740   99.9280  207.9700 O.2   142  HIS142     -0.2867
    132  CB        90.6000  100.3990  205.7610 C.3   142  HIS142      0.0745
    133  CG        91.2380  100.3420  207.1080 C.ar  142  HIS142      0.0817
    134  ND1       91.6530   99.1620  207.6880 N.ar  142  HIS142     -0.2268
    135  CD2       91.5300  101.3210  207.9950 C.ar  142  HIS142      0.1154
    136  CE1       92.1780   99.4180  208.8710 C.ar  142  HIS142      0.1986
    137  NE2       92.1160  100.7210  209.0820 N.ar  142  HIS142     -0.2212
    138  N         86.4350   98.5480  210.1460 N.3   146  VAL146     -0.1245
    139  CA        86.8970   98.4910  211.5310 C.3   146  VAL146      0.1561
    140  C         86.2970   99.5770  212.4070 C.2   146  VAL146      0.2260
    141  O         86.5110   99.5810  213.6150 O.2   146  VAL146     -0.2867
    142  CB        88.4300   98.6090  211.6370 C.3   146  VAL146      0.0252
    143  CG1       89.1250   97.5490  210.7780 C.3   146  VAL146      0.0019
    144  CG2       88.8790  100.0170  211.2670 C.3   146  VAL146      0.0019
@<TRIPOS>BOND
     1    88    89    1
     2    89    92    1
     3    89    90    1
     4    92    93    1
     5    95    96    1
     6    95    94    1
     7    90    91    2
     8    93    94    1
     9    83    82    2
    10    82    81    1
    11    86    84    1
    12    75    74    2
    13    81    84    1
    14    81    80    1
    15    97    98    1
    16    84    85    1
    17   117   115    1
    18    85    87    1
    19    74    80   am
    20    74    73    1
    21    98   101    1
    22    98    99    1
    23   101   102    1
    24   115   116    1
    25   115   114    2
    26    73    76    1
    27    73    72    1
    28    99   100    2
    29   107   108    1
    30   114   113    1
    31    79    77    1
    32    76    77    1
    33   102   103   ar
    34   102   104   ar
    35   111   108    1
    36   111   112    1
    37    77    78    1
    38   108   109    1
    39    68    67    2
    40   103   105   ar
    41   104   106   ar
    42   113   112    1
    43    67    66    1
    44   105   106   ar
    45   109   118   am
    46   109   110    2
    47    70    69    1
    48   118   119    1
    49    66    69    1
    50    66    65    1
    51    69    71    1
    52   119   122    1
    53   119   120    1
    54   122   123    1
    55   120   121    2
    56    14    15    1
    57    14    11    1
    58     1     2    1
    59    17    15   ar
    60    17    19   ar
    61   123   125   ar
    62   123   124   ar
    63   128   129    1
    64    15    16   ar
    65     5     2    1
    66     5     6    1
    67   125   127   ar
    68    19    18   ar
    69    16    18   ar
    70    10    11    1
    71    10     3   am
    72     2     3    1
    73     6     7    1
    74    11    12    1
    75   124   126   ar
    76   132   129    1
    77   132   133    1
    78   129   130    1
    79     3     4    2
    80   127   126   ar
    81    12    13    2
    82    58    57    2
    83    63    64   ar
    84    63    61   ar
    85    64    62   ar
    86     7     8   ar
    87     7     9   ar
    88   130   131    2
    89   133   134   ar
    90   133   135   ar
    91    61    60   ar
    92    62    60   ar
    93    57    56    1
    94   134   136   ar
    95   135   137   ar
    96    60    59    1
    97    37    36    1
    98    56    59    1
    99    56    55    1
   100   136   137   ar
   101    36    38    1
   102    36    35    1
   103    24    25    1
   104    24    21    1
   105    27    25   ar
   106    27    29   ar
   107    20    21    1
   108    25    26   ar
   109    35    32    1
   110   138   139    1
   111    29    30   ar
   112    21    22    1
   113    31    32    1
   114    31    22   am
   115    51    50    2
   116   143   142    1
   117    26    28   ar
   118    32    33    1
   119    22    23    2
   120    30    28   ar
   121   144   142    1
   122   139   142    1
   123   139   140    1
   124    50    49    1
   125    33    34    2
   126    53    52    1
   127   140   141    2
   128    49    52    1
   129    49    48    1
   130    54    52    1
   131    46    45    1
   132    46    47    1
   133    45    44    1
   134    43    44    1
   135    43    40    1
   136    39    40    1
   137    40    41    1
   138    41    42    2
