@<TRIPOS>MOLECULE
tmp/4rdaA00.pdb
 91 85 0 0 0
SMALL
GASTEIGER

@<TRIPOS>ATOM
      1  N        107.4330  103.5830  209.6880 N.3    19  PHE19      -0.1227
      2  CA       106.1710  103.5130  210.3930 C.3    19  PHE19       0.1736
      3  C        106.0500  102.1950  211.1680 C.2    19  PHE19       0.2595
      4  O        105.8160  102.2090  212.3760 O.2    19  PHE19      -0.2718
      5  CB       105.0190  103.6790  209.4150 C.3    19  PHE19       0.0547
      6  CG       103.6660  103.5370  210.0360 C.ar   19  PHE19      -0.0202
      7  CD1      103.2550  104.3910  211.0380 C.ar   19  PHE19      -0.0042
      8  CD2      102.7850  102.5590  209.5930 C.ar   19  PHE19      -0.0042
      9  CE1      101.9960  104.2550  211.6180 C.ar   19  PHE19      -0.0003
     10  CE2      101.5240  102.4280  210.1640 C.ar   19  PHE19      -0.0003
     11  CZ       101.1330  103.2730  211.1800 C.ar   19  PHE19      -0.0000
     12  N        106.2330  101.0700  210.4800 N.am   20  LEU20      -0.1980
     13  CA       106.1130   99.7520  211.1030 C.3    20  LEU20       0.1596
     14  C        107.0560   99.5760  212.2740 C.2    20  LEU20       0.2287
     15  O        106.6960   98.9680  213.2880 O.2    20  LEU20      -0.2864
     16  CB       106.3770   98.6350  210.0980 C.3    20  LEU20       0.0297
     17  CG       105.2940   98.4550  209.0360 C.3    20  LEU20       0.0022
     18  CD1      105.5910   97.2150  208.2140 C.3    20  LEU20       0.0001
     19  CD2      103.8890   98.4130  209.6440 C.3    20  LEU20       0.0001
     20  N        105.8520  101.6700  215.2520 N.3    23  LYS23      -0.1245
     21  CA       104.6740  100.9960  215.7830 C.3    23  LYS23       0.1561
     22  C        105.1040   99.8080  216.6320 C.2    23  LYS23       0.2260
     23  O        104.5750   99.5680  217.7150 O.2    23  LYS23      -0.2867
     24  CB       103.7670  100.5330  214.6440 C.3    23  LYS23       0.0271
     25  CG       102.3080  100.2750  215.0090 C.3    23  LYS23       0.0035
     26  CD       101.4300  100.1750  213.7440 C.3    23  LYS23       0.0206
     27  CE       101.2030   98.7150  213.2690 C.3    23  LYS23       0.1093
     28  NZ       100.1710   97.9640  214.0980 N.3    23  LYS23      -0.1314
     29  N        104.7520   99.2130  220.7180 N.3    27  GLU27      -0.1245
     30  CA       103.9930   98.0360  221.0880 C.3    27  GLU27       0.1567
     31  C        104.7500   97.2080  222.1170 C.2    27  GLU27       0.2260
     32  O        104.1560   96.7470  223.0900 O.2    27  GLU27      -0.2867
     33  CB       103.6760   97.2070  219.8440 C.3    27  GLU27       0.0388
     34  CG       102.8670   95.9510  220.1000 C.3    27  GLU27       0.1160
     35  CD       102.6510   95.1300  218.8260 C.2    27  GLU27       0.3649
     36  OE1      101.8890   95.5890  217.9380 O.co2  27  GLU27      -0.2457
     37  OE2      103.2520   94.0330  218.7160 O.co2  27  GLU27      -0.2457
     38  N         99.1020  105.9790  219.5790 N.3    78  ARG78      -0.1245
     39  CA        98.6180  105.3790  218.3550 C.3    78  ARG78       0.1563
     40  C         98.0180  106.4290  217.4200 C.2    78  ARG78       0.2260
     41  O         98.3750  106.4620  216.2490 O.2    78  ARG78      -0.2867
     42  CB        97.5970  104.2850  218.6930 C.3    78  ARG78       0.0307
     43  CG        96.8550  103.6980  217.5090 C.3    78  ARG78       0.0489
     44  CD        97.8170  103.2140  216.4300 C.3    78  ARG78       0.2205
     45  NE        98.6760  102.1260  216.8910 N.pl3  78  ARG78      -0.0865
     46  CZ        98.4320  100.8380  216.6620 C.cat  78  ARG78       0.5346
     47  NH1       97.3490  100.4770  215.9760 N.pl3  78  ARG78       0.1354
     48  NH2       99.2720   99.9120  217.1220 N.pl3  78  ARG78       0.1354
     49  N         99.5270  107.3060  213.7980 N.3    82  VAL82      -0.1245
     50  CA        98.7010  107.0300  212.6500 C.3    82  VAL82       0.1561
     51  C         98.3680  108.3250  211.8790 C.2    82  VAL82       0.2260
     52  O         98.2690  108.3100  210.6480 O.2    82  VAL82      -0.2867
     53  CB        97.4270  106.2630  213.1060 C.3    82  VAL82       0.0252
     54  CG1       96.2010  106.6600  212.3190 C.3    82  VAL82       0.0019
     55  CG2       97.6760  104.7670  213.0200 C.3    82  VAL82       0.0019
     56  N         91.0790  103.1880  201.8850 N.3   139  HIS139     -0.1241
     57  CA        90.9800  103.8020  203.1900 C.3   139  HIS139      0.1621
     58  C         89.5140  103.8850  203.6130 C.2   139  HIS139      0.2264
     59  O         89.1860  103.6900  204.7870 O.2   139  HIS139     -0.2867
     60  CB        91.6330  105.1880  203.1920 C.3   139  HIS139      0.0745
     61  CG        91.5340  105.8980  204.5070 C.ar  139  HIS139      0.0817
     62  ND1       92.1180  105.4130  205.6630 N.ar  139  HIS139     -0.2268
     63  CD2       90.8990  107.0420  204.8560 C.ar  139  HIS139      0.1154
     64  CE1       91.8600  106.2370  206.6620 C.ar  139  HIS139      0.1986
     65  NE2       91.1240  107.2360  206.2000 N.ar  139  HIS139     -0.2212
     66  N         88.5020  100.4220  204.5150 N.3   142  HIS142     -0.1241
     67  CA        89.1220  100.0150  205.7650 C.3   142  HIS142      0.1621
     68  C         88.4120  100.6220  206.9780 C.2   142  HIS142      0.2264
     69  O         88.1740   99.9280  207.9700 O.2   142  HIS142     -0.2867
     70  CB        90.6000  100.3990  205.7610 C.3   142  HIS142      0.0745
     71  CG        91.2380  100.3420  207.1080 C.ar  142  HIS142      0.0817
     72  ND1       91.6530   99.1620  207.6880 N.ar  142  HIS142     -0.2268
     73  CD2       91.5300  101.3210  207.9950 C.ar  142  HIS142      0.1154
     74  CE1       92.1780   99.4180  208.8710 C.ar  142  HIS142      0.1986
     75  NE2       92.1160  100.7210  209.0820 N.ar  142  HIS142     -0.2212
     76  N         86.4350   98.5480  210.1460 N.3   146  VAL146     -0.1245
     77  CA        86.8970   98.4910  211.5310 C.3   146  VAL146      0.1561
     78  C         86.2970   99.5770  212.4070 C.2   146  VAL146      0.2260
     79  O         86.5110   99.5810  213.6150 O.2   146  VAL146     -0.2867
     80  CB        88.4300   98.6090  211.6370 C.3   146  VAL146      0.0252
     81  CG1       89.1250   97.5490  210.7780 C.3   146  VAL146      0.0019
     82  CG2       88.8790  100.0170  211.2670 C.3   146  VAL146      0.0019
     83  N         82.6110  105.9810  211.8310 N.3   150  LYS150     -0.1245
     84  CA        83.5190  106.9470  211.2240 C.3   150  LYS150      0.1561
     85  C         83.3350  106.9750  209.6930 C.2   150  LYS150      0.2260
     86  O         83.5660  107.9950  209.0340 O.2   150  LYS150     -0.2867
     87  CB        84.9540  106.5810  211.6070 C.3   150  LYS150      0.0271
     88  CG        85.9560  107.7120  211.6590 C.3   150  LYS150      0.0035
     89  CD        87.3030  107.1560  212.1040 C.3   150  LYS150      0.0206
     90  CE        88.4700  107.9110  211.4980 C.3   150  LYS150      0.1093
     91  NZ        89.7570  107.2130  211.7800 N.3   150  LYS150     -0.1314
@<TRIPOS>BOND
     1    56    57    1
     2    57    60    1
     3    57    58    1
     4    60    61    1
     5    58    59    2
     6    61    63   ar
     7    61    62   ar
     8    66    67    1
     9    63    65   ar
    10    62    64   ar
    11    70    67    1
    12    70    71    1
    13    67    68    1
    14    65    64   ar
    15    68    69    2
    16    71    72   ar
    17    71    73   ar
    18    72    74   ar
    19    73    75   ar
    20    18    17    1
    21    74    75   ar
    22    86    85    2
    23    17    19    1
    24    17    16    1
    25     5     6    1
    26     5     2    1
    27     8     6   ar
    28     8    10   ar
    29     1     2    1
    30    85    84    1
    31     6     7   ar
    32    16    13    1
    33    76    77    1
    34    10    11   ar
    35     2     3    1
    36    12    13    1
    37    12     3   am
    38    52    51    2
    39    81    80    1
    40     7     9   ar
    41    13    14    1
    42     3     4    2
    43    11     9   ar
    44    84    87    1
    45    84    83    1
    46    82    80    1
    47    90    91    1
    48    90    89    1
    49    77    80    1
    50    77    78    1
    51    87    88    1
    52    88    89    1
    53    51    50    1
    54    14    15    2
    55    54    53    1
    56    78    79    2
    57    50    53    1
    58    50    49    1
    59    55    53    1
    60    27    26    1
    61    27    28    1
    62    26    25    1
    63    24    25    1
    64    24    21    1
    65    20    21    1
    66    21    22    1
    67    47    46    1
    68    41    40    2
    69    44    45    1
    70    44    43    1
    71    22    23    2
    72    46    45    2
    73    46    48    1
    74    40    39    1
    75    43    42    1
    76    36    35   ar
    77    39    42    1
    78    39    38    1
    79    37    35   ar
    80    35    34    1
    81    33    34    1
    82    33    30    1
    83    29    30    1
    84    30    31    1
    85    31    32    2
