@<TRIPOS>MOLECULE
tmp/4rdcA00.pdb
 88 81 0 0 0
SMALL
GASTEIGER

@<TRIPOS>ATOM
      1  N         -4.7680    1.5250   13.8750 N.3    18  LEU18      -0.1245
      2  CA        -3.6060    0.9870   13.1700 C.3    18  LEU18       0.1561
      3  C         -3.6000   -0.5390   13.2440 C.2    18  LEU18       0.2260
      4  O         -3.4130   -1.2300   12.2340 O.2    18  LEU18      -0.2867
      5  CB        -2.2950    1.5180   13.7740 C.3    18  LEU18       0.0270
      6  CG        -1.9590    3.0050   13.6370 C.3    18  LEU18       0.0019
      7  CD1       -2.8190    3.8740   14.5350 C.3    18  LEU18       0.0001
      8  CD2       -0.4890    3.2220   13.9460 C.3    18  LEU18       0.0001
      9  N          2.2580   -3.3890   17.9290 N.3    78  THR78      -0.1203
     10  CA         1.9410   -2.3120   16.9920 C.3    78  THR78       0.1994
     11  C          2.8280   -1.0770   17.1760 C.2    78  THR78       0.2618
     12  O          3.3410   -0.5220   16.2030 O.2    78  THR78      -0.2717
     13  CB         0.4660   -1.9200   17.1250 C.3    78  THR78       0.1784
     14  OG1       -0.3390   -3.0590   16.8050 O.3    78  THR78      -0.2211
     15  CG2        0.0990   -0.7570   16.2090 C.3    78  THR78       0.0376
     16  N          3.0500   -0.6700   18.4200 N.am   79  LEU79      -0.1965
     17  CA         3.7700    0.5770   18.6840 C.3    79  LEU79       0.1728
     18  C          5.1810    0.3450   19.1820 C.2    79  LEU79       0.2616
     19  O          5.4230   -0.5620   19.9860 O.2    79  LEU79      -0.2715
     20  CB         3.0280    1.4020   19.7320 C.3    79  LEU79       0.0311
     21  CG         1.6160    1.8640   19.4010 C.3    79  LEU79       0.0022
     22  CD1        1.0670    2.6620   20.5860 C.3    79  LEU79       0.0001
     23  CD2        1.5740    2.6850   18.1070 C.3    79  LEU79       0.0001
     24  N          6.1110    1.2010   18.7530 N.am   80  SER80      -0.1950
     25  CA         7.4530    1.1940   19.3210 C.3    80  SER80       0.1924
     26  C          7.4460    1.3860   20.8320 C.2    80  SER80       0.2314
     27  O          8.2170    0.7520   21.5380 O.2    80  SER80      -0.2863
     28  CB         8.3330    2.2680   18.6740 C.3    80  SER80       0.2116
     29  OG         8.5710    2.0020   17.3020 O.3    80  SER80      -0.2180
     30  N          5.7770   -2.8180   12.4770 N.3   101  SER101     -0.1217
     31  CA         5.3760   -1.4080   12.4380 C.3   101  SER101      0.1889
     32  C          6.0610   -0.6260   13.5370 C.2   101  SER101      0.2288
     33  O          5.4880    0.3250   14.0970 O.2   101  SER101     -0.2866
     34  CB         3.8720   -1.2820   12.6800 C.3   101  SER101      0.2089
     35  OG         3.5080   -1.8600   13.9330 O.3   101  SER101     -0.2183
     36  N          8.9480    1.6940   14.1210 N.3   103  THR103     -0.1218
     37  CA         9.8690    2.4410   13.2710 C.3   103  THR103      0.1862
     38  C         10.7380    3.4420   14.0370 C.2   103  THR103      0.2287
     39  O         11.5390    4.1580   13.4440 O.2   103  THR103     -0.2866
     40  CB         9.0970    3.1210   12.1420 C.3   103  THR103      0.1770
     41  OG1        8.1340    4.0250   12.7130 O.3   103  THR103     -0.2211
     42  CG2        8.3850    2.0750   11.2950 C.3   103  THR103      0.0375
     43  N          4.9050    9.5500   23.3170 N.3   150  ASP150     -0.1239
     44  CA         5.0420    8.3630   22.4800 C.3   150  ASP150      0.1674
     45  C          6.4490    8.2490   21.8710 C.2   150  ASP150      0.2266
     46  O          6.9280    9.1850   21.2230 O.2   150  ASP150     -0.2867
     47  CB         3.9890    8.3890   21.3770 C.3   150  ASP150      0.1410
     48  CG         4.1180    7.2220   20.4370 C.2   150  ASP150      0.3668
     49  OD1        3.7720    6.0860   20.8440 O.co2 150  ASP150     -0.2456
     50  OD2        4.5850    7.4340   19.2960 O.co2 150  ASP150     -0.2456
     51  N          7.8150    6.5240   19.3520 N.3   152  PHE152     -0.1241
     52  CA         7.8970    6.6820   17.9060 C.3   152  PHE152      0.1605
     53  C          7.7450    8.1390   17.4870 C.2   152  PHE152      0.2264
     54  O          8.4980    8.6310   16.6480 O.2   152  PHE152     -0.2867
     55  CB         6.8480    5.8090   17.2230 C.3   152  PHE152      0.0534
     56  CG         6.3120    6.3860   15.9520 C.ar  152  PHE152     -0.0203
     57  CD1        7.0610    6.3460   14.7800 C.ar  152  PHE152     -0.0042
     58  CD2        5.0610    6.9770   15.9250 C.ar  152  PHE152     -0.0042
     59  CE1        6.5710    6.8910   13.6060 C.ar  152  PHE152     -0.0003
     60  CE2        4.5570    7.5170   14.7530 C.ar  152  PHE152     -0.0003
     61  CZ         5.3120    7.4770   13.5950 C.ar  152  PHE152     -0.0000
     62  N         -0.4030    9.5670   16.5340 N.3   204  LEU204     -0.1245
     63  CA        -1.1030    8.3890   16.0410 C.3   204  LEU204      0.1561
     64  C         -2.3500    8.8490   15.2830 C.2   204  LEU204      0.2260
     65  O         -2.4310   10.0160   14.8730 O.2   204  LEU204     -0.2867
     66  CB        -1.3720    7.3850   17.1690 C.3   204  LEU204      0.0270
     67  CG        -0.0890    6.9180   17.8770 C.3   204  LEU204      0.0019
     68  CD1       -0.3940    5.9390   18.9950 C.3   204  LEU204      0.0001
     69  CD2        0.9280    6.3030   16.8960 C.3   204  LEU204      0.0001
     70  N          3.9210    8.4790   10.0910 N.3   228  ASP228     -0.1239
     71  CA         3.4910    7.0960    9.8940 C.3   228  ASP228      0.1674
     72  C          2.3360    6.6920   10.8260 C.2   228  ASP228      0.2266
     73  O          1.5900    5.7550   10.5320 O.2   228  ASP228     -0.2867
     74  CB         4.6980    6.1530   10.0730 C.3   228  ASP228      0.1410
     75  CG         4.6230    4.8850    9.2150 C.2   228  ASP228      0.3668
     76  OD1        3.8720    4.8290    8.2200 O.co2 228  ASP228     -0.2456
     77  OD2        5.3750    3.9410    9.5280 O.co2 228  ASP228     -0.2456
     78  N          0.3150   -0.9500    6.4960 N.3   279  PHE279     -0.1241
     79  CA         0.4160   -1.7530    7.7090 C.3   279  PHE279      0.1605
     80  C         -0.0210   -3.1990    7.4760 C.2   279  PHE279      0.2264
     81  O          0.5000   -4.1260    8.1060 O.2   279  PHE279     -0.2867
     82  CB        -0.3720   -1.1310    8.8730 C.3   279  PHE279      0.0534
     83  CG         0.2050    0.1680    9.3740 C.ar  279  PHE279     -0.0203
     84  CD1        1.5740    0.3400    9.5160 C.ar  279  PHE279     -0.0042
     85  CD2       -0.6240    1.2190    9.6990 C.ar  279  PHE279     -0.0042
     86  CE1        2.0980    1.5390    9.9710 C.ar  279  PHE279     -0.0003
     87  CE2       -0.1000    2.4190   10.1500 C.ar  279  PHE279     -0.0003
     88  CZ         1.2570    2.5730   10.2810 C.ar  279  PHE279     -0.0000
@<TRIPOS>BOND
     1    78    79    1
     2    80    79    1
     3    80    81    2
     4    79    82    1
     5    76    75   ar
     6    82    83    1
     7    75    77   ar
     8    75    74    1
     9    83    84   ar
    10    83    85   ar
    11    84    86   ar
    12    85    87   ar
    13    71    74    1
    14    71    70    1
    15    71    72    1
    16    86    88   ar
    17    87    88   ar
    18    73    72    2
    19    42    40    1
    20    40    41    1
    21    40    37    1
    22     4     3    2
    23    31    30    1
    24    31    34    1
    25    31    32    1
    26    34    35    1
    27     2     3    1
    28     2     5    1
    29     2     1    1
    30    37    38    1
    31    37    36    1
    32    39    38    2
    33    32    33    2
    34    61    59   ar
    35    61    60   ar
    36    59    57   ar
    37     6     5    1
    38     6     8    1
    39     6     7    1
    40    60    58   ar
    41    57    56   ar
    42    65    64    2
    43    64    63    1
    44    58    56   ar
    45    56    55    1
    46    63    62    1
    47    63    66    1
    48    12    11    2
    49    15    13    1
    50    54    53    2
    51    14    13    1
    52    69    67    1
    53    10    13    1
    54    10    11    1
    55    10     9    1
    56    66    67    1
    57    11    16   am
    58    55    52    1
    59    29    28    1
    60    53    52    1
    61    67    68    1
    62    52    51    1
    63    23    21    1
    64    16    17    1
    65    28    25    1
    66    17    18    1
    67    17    20    1
    68    24    18   am
    69    24    25    1
    70    18    19    2
    71    50    48   ar
    72    25    26    1
    73    21    20    1
    74    21    22    1
    75    48    49   ar
    76    48    47    1
    77    26    27    2
    78    46    45    2
    79    47    44    1
    80    45    44    1
    81    44    43    1
