@<TRIPOS>MOLECULE
tmp/4rddA00.pdb
 130 122 0 0 0
SMALL
GASTEIGER

@<TRIPOS>ATOM
      1  N         27.2910    8.5620   10.7220 N.3    18  TYR18      -0.1241
      2  CA        28.0390    9.6860   10.1710 C.3    18  TYR18       0.1605
      3  C         27.6300   10.9590   10.9040 C.2    18  TYR18       0.2264
      4  O         26.4480   11.2930   10.9750 O.2    18  TYR18      -0.2867
      5  CB        27.8080    9.8110    8.6520 C.3    18  TYR18       0.0534
      6  CG        28.0700    8.5310    7.8810 C.ar   18  TYR18      -0.0201
      7  CD1       29.3450    8.2080    7.4160 C.ar   18  TYR18      -0.0009
      8  CD2       27.0440    7.6380    7.6280 C.ar   18  TYR18      -0.0009
      9  CE1       29.5760    7.0210    6.7150 C.ar   18  TYR18       0.0417
     10  CE2       27.2640    6.4650    6.9310 C.ar   18  TYR18       0.0417
     11  CZ        28.5230    6.1530    6.4860 C.ar   18  TYR18       0.1957
     12  OH        28.7040    4.9730    5.7900 O.3    18  TYR18      -0.2866
     13  N         25.1060   13.3760    9.1360 N.3    21  ILE21      -0.1245
     14  CA        23.9090   12.8580    8.4850 C.3    21  ILE21       0.1561
     15  C         22.8740   12.5490    9.5680 C.2    21  ILE21       0.2260
     16  O         22.9790   11.5440   10.2630 O.2    21  ILE21      -0.2867
     17  CB        24.2270   11.6110    7.6400 C.3    21  ILE21       0.0252
     18  CG1       25.1770   11.9990    6.5050 C.3    21  ILE21       0.0019
     19  CG2       22.9510   11.0090    7.0610 C.3    21  ILE21       0.0019
     20  CD1       25.6650   10.8400    5.6560 C.3    21  ILE21       0.0001
     21  N         21.8570   -3.2080    1.5110 N.3    96  THR96      -0.1218
     22  CA        23.3080   -3.4350    1.4620 C.3    96  THR96       0.1862
     23  C         23.6640   -4.8310    1.9510 C.2    96  THR96       0.2287
     24  O         22.8740   -5.4550    2.6460 O.2    96  THR96      -0.2866
     25  CB        24.0910   -2.4160    2.3290 C.3    96  THR96       0.1770
     26  OG1       23.8200   -2.6560    3.7180 O.3    96  THR96      -0.2211
     27  CG2       23.7030   -0.9880    2.0010 C.3    96  THR96       0.0375
     28  N         33.1430   -3.9540    0.1280 N.3   101  ARG101     -0.1245
     29  CA        34.5060   -3.4780   -0.1270 C.3   101  ARG101      0.1563
     30  C         35.3300   -3.4000    1.1550 C.2   101  ARG101      0.2260
     31  O         36.1110   -2.4670    1.3500 O.2   101  ARG101     -0.2867
     32  CB        34.4720   -2.1190   -0.8180 C.3   101  ARG101      0.0307
     33  CG        33.5690   -2.1040   -2.0340 C.3   101  ARG101      0.0489
     34  CD        33.3170   -0.6920   -2.5120 C.3   101  ARG101      0.2205
     35  NE        34.5540   -0.0280   -2.8960 N.pl3 101  ARG101     -0.0865
     36  CZ        34.6110    1.2100   -3.3740 C.cat 101  ARG101      0.5346
     37  NH1       33.4940    1.9160   -3.5260 N.pl3 101  ARG101      0.1354
     38  NH2       35.7810    1.7380   -3.7070 N.pl3 101  ARG101      0.1354
     39  N         28.7210   -1.9490    6.6010 N.3   105  LYS105     -0.1245
     40  CA        27.6800   -1.0200    6.2050 C.3   105  LYS105      0.1561
     41  C         26.5430   -1.0560    7.2020 C.2   105  LYS105      0.2260
     42  O         25.7990   -0.0950    7.3530 O.2   105  LYS105     -0.2867
     43  CB        27.1530   -1.3730    4.8190 C.3   105  LYS105      0.0271
     44  CG        28.2140   -1.3210    3.7380 C.3   105  LYS105      0.0035
     45  CD        28.8380    0.0630    3.6570 C.3   105  LYS105      0.0206
     46  CE        29.3430    0.3330    2.2600 C.3   105  LYS105      0.1093
     47  NZ        28.2260    0.3900    1.2880 N.3   105  LYS105     -0.1314
     48  N         23.3980   -5.4100   -5.0970 N.3   162  TRP162     -0.1241
     49  CA        23.7720   -4.0520   -5.4830 C.3   162  TRP162      0.1605
     50  C         25.2870   -4.0050   -5.6280 C.2   162  TRP162      0.2264
     51  O         26.0000   -4.5350   -4.7810 O.2   162  TRP162     -0.2867
     52  CB        23.2890   -3.0530   -4.4450 C.3   162  TRP162      0.0550
     53  CG        23.2760   -1.6070   -4.8810 C.ar  162  TRP162      0.0003
     54  CD1       24.2980   -0.7170   -4.8040 C.ar  162  TRP162      0.0946
     55  CD2       22.1640   -0.8950   -5.4180 C.ar  162  TRP162      0.0152
     56  NE1       23.8970    0.5150   -5.2750 N.ar  162  TRP162     -0.2442
     57  CE2       22.5790    0.4300   -5.6370 C.ar  162  TRP162      0.0810
     58  CE3       20.8440   -1.2450   -5.7150 C.ar  162  TRP162      0.0012
     59  CZ2       21.7280    1.4040   -6.1610 C.ar  162  TRP162      0.0191
     60  CZ3       20.0060   -0.2780   -6.2400 C.ar  162  TRP162      0.0001
     61  CH2       20.4440    1.0300   -6.4440 C.ar  162  TRP162      0.0015
     62  N         28.7010    2.3020   -7.8790 N.3   166  GLY166     -0.1225
     63  CA        27.6520    2.6410   -8.8200 C.3   166  GLY166      0.1811
     64  C         26.3430    1.9420   -8.5220 C.2   166  GLY166      0.2280
     65  O         26.0660    1.5880   -7.3780 O.2   166  GLY166     -0.2866
     66  N         20.0920    1.4950    4.3350 N.3   198  CYS198     -0.1221
     67  CA        21.3510    1.2090    3.6680 C.3   198  CYS198      0.1808
     68  C         22.4520    1.4080    4.7050 C.2   198  CYS198      0.2602
     69  O         22.4270    0.7460    5.7490 O.2   198  CYS198     -0.2717
     70  CB        21.5380    2.0820    2.4110 C.3   198  CYS198      0.0970
     71  SG        21.1510    3.8580    2.5360 S.3   198  CYS198     -0.0800
     72  N         23.4230    2.2740    4.4370 N.am  199  SER199     -0.1938
     73  CA        24.4470    2.5330    5.4420 C.3   199  SER199      0.2055
     74  C         24.1570    3.8730    6.1040 C.2   199  SER199      0.2642
     75  O         23.9450    3.9290    7.3040 O.2   199  SER199     -0.2714
     76  CB        25.8480    2.5080    4.8410 C.3   199  SER199      0.2130
     77  OG        26.8080    2.5330    5.8850 O.3   199  SER199     -0.2179
     78  N         24.1240    4.9430    5.3180 N.am  200  ALA200     -0.1977
     79  CA        23.7960    6.2610    5.8420 C.3   200  ALA200      0.1597
     80  C         22.2840    6.5000    5.8940 C.2   200  ALA200      0.2287
     81  O         21.8140    7.4330    6.5590 O.2   200  ALA200     -0.2864
     82  CB        24.4630    7.3310    4.9940 C.3   200  ALA200      0.0319
     83  N         20.3890    7.2790    3.2160 N.3   202  ILE202     -0.1231
     84  CA        19.9390    8.3400    2.3040 C.3   202  ILE202      0.1692
     85  C         20.1260    8.0280    0.8130 C.2   202  ILE202      0.2593
     86  O         19.2250    8.2940    0.0120 O.2   202  ILE202     -0.2718
     87  CB        20.6260    9.7050    2.6050 C.3   202  ILE202      0.0266
     88  CG1       22.1510    9.6160    2.5850 C.3   202  ILE202      0.0019
     89  CG2       20.1540   10.2700    3.9520 C.3   202  ILE202      0.0020
     90  CD1       22.8140   10.9840    2.7560 C.3   202  ILE202      0.0001
     91  N         21.2610    7.4650    0.4310 N.am  203  GLY203     -0.1942
     92  CA        21.5300    7.2510   -0.9900 C.3   203  GLY203      0.2014
     93  C         20.7550    6.0760   -1.5700 C.2   203  GLY203      0.2638
     94  O         19.8030    6.2570   -2.3420 O.2   203  GLY203     -0.2714
     95  N         21.1500    4.8610   -1.1990 N.am  204  ARG204     -0.1977
     96  CA        20.4230    3.6800   -1.6470 C.3   204  ARG204      0.1597
     97  C         18.9980    3.6570   -1.1240 C.2   204  ARG204      0.2287
     98  O         18.0660    3.2900   -1.8370 O.2   204  ARG204     -0.2864
     99  CB        21.1500    2.4090   -1.2150 C.3   204  ARG204      0.0334
    100  CG        21.5890    1.5500   -2.3550 C.3   204  ARG204      0.0492
    101  CD        22.3660    0.3560   -1.8560 C.3   204  ARG204      0.2205
    102  NE        23.7980    0.6160   -1.8210 N.pl3 204  ARG204     -0.0865
    103  CZ        24.7180   -0.3220   -1.6080 C.cat 204  ARG204      0.5346
    104  NH1       24.3570   -1.5830   -1.4000 N.pl3 204  ARG204      0.1354
    105  NH2       26.0050   -0.0010   -1.6110 N.pl3 204  ARG204      0.1354
    106  N         21.6810   10.2930   -3.5850 N.3   245  GLN245     -0.1231
    107  CA        22.9580   10.9780   -3.4310 C.3   245  GLN245      0.1698
    108  C         23.7530   11.2130   -4.7230 C.2   245  GLN245      0.2592
    109  O         24.4490   12.2190   -4.8290 O.2   245  GLN245     -0.2718
    110  CB        23.8320   10.1960   -2.4410 C.3   245  GLN245      0.0381
    111  CG        23.5110   10.4920   -0.9880 C.3   245  GLN245      0.0905
    112  CD        24.1130   11.8010   -0.5340 C.2   245  GLN245      0.2608
    113  OE1       25.3300   11.9130   -0.3720 O.2   245  GLN245     -0.2717
    114  NE2       23.2700   12.8030   -0.3380 N.am  245  GLN245     -0.0878
    115  N         23.6680   10.3070   -5.6990 N.am  246  THR246     -0.1953
    116  CA        24.5680   10.3780   -6.8580 C.3   246  THR246      0.1897
    117  C         23.8400   10.4970   -8.1770 C.2   246  THR246      0.2313
    118  O         22.6550   10.2090   -8.2680 O.2   246  THR246     -0.2863
    119  CB        25.4680    9.1420   -6.9620 C.3   246  THR246      0.1794
    120  OG1       24.6630    7.9920   -7.2750 O.3   246  THR246     -0.2208
    121  CG2       26.2060    8.9180   -5.6680 C.3   246  THR246      0.0378
    122  N         22.4630    7.0970   -9.2220 N.3   249  GLN249     -0.1245
    123  CA        21.2440    6.7440   -8.4960 C.3   249  GLN249      0.1566
    124  C         20.0410    7.4820   -9.0780 C.2   249  GLN249      0.2260
    125  O         18.9820    6.9040   -9.2670 O.2   249  GLN249     -0.2867
    126  CB        21.3840    7.0600   -7.0000 C.3   249  GLN249      0.0367
    127  CG        22.3180    6.1220   -6.2490 C.3   249  GLN249      0.0905
    128  CD        22.6630    6.6300   -4.8560 C.2   249  GLN249      0.2608
    129  OE1       22.2170    7.6960   -4.4440 O.2   249  GLN249     -0.2717
    130  NE2       23.4810    5.8720   -4.1390 N.am  249  GLN249     -0.0878
@<TRIPOS>BOND
     1   125   124    2
     2   122   123    1
     3   124   123    1
     4    63    64    1
     5    63    62    1
     6    64    65    2
     7   123   126    1
     8   118   117    2
     9   117   116    1
    10   120   119    1
    11   126   127    1
    12   119   116    1
    13   119   121    1
    14   116   115    1
    15    61    60   ar
    16    61    59   ar
    17   127   128    1
    18    60    58   ar
    19    59    57   ar
    20    58    55   ar
    21   115   108   am
    22    57    55   ar
    23    57    56   ar
    24    50    49    1
    25    50    51    2
    26    49    48    1
    27    49    52    1
    28    55    53   ar
    29    56    54   ar
    30    53    54   ar
    31    53    52    1
    32   128   129    2
    33   128   130   am
    34   109   108    2
    35   108   107    1
    36    38    36    1
    37   106   107    1
    38    37    36    1
    39   107   110    1
    40    36    35    2
    41    35    34    1
    42    34    33    1
    43   110   111    1
    44   100   101    1
    45   100    99    1
    46    94    93    2
    47    33    32    1
    48   101   102    1
    49    98    97    2
    50   102   103    2
    51    96    99    1
    52    96    95    1
    53    96    97    1
    54   105   103    1
    55   103   104    1
    56    93    95   am
    57    93    92    1
    58    92    91    1
    59   111   112    1
    60    32    29    1
    61   112   113    2
    62   112   114   am
    63    29    28    1
    64    29    30    1
    65    86    85    2
    66    91    85   am
    67    85    84    1
    68    30    31    2
    69    47    46    1
    70    22    21    1
    71    22    23    1
    72    22    25    1
    73    23    24    2
    74    27    25    1
    75    46    45    1
    76    84    87    1
    77    84    83    1
    78    25    26    1
    79    70    71    1
    80    70    67    1
    81    88    87    1
    82    88    90    1
    83    87    89    1
    84    45    44    1
    85    67    66    1
    86    67    68    1
    87    44    43    1
    88    72    68   am
    89    72    73    1
    90    68    69    2
    91    43    40    1
    92    76    73    1
    93    76    77    1
    94    82    79    1
    95    78    79    1
    96    78    74   am
    97    73    74    1
    98    20    18    1
    99    12    11    1
   100    79    80    1
   101    80    81    2
   102    74    75    2
   103    40    39    1
   104    40    41    1
   105    11     9   ar
   106    11    10   ar
   107    18    17    1
   108     9     7   ar
   109    10     8   ar
   110    19    17    1
   111    41    42    2
   112     7     6   ar
   113     8     6   ar
   114    17    14    1
   115     6     5    1
   116    14    13    1
   117    14    15    1
   118     5     2    1
   119    15    16    2
   120     2     1    1
   121     2     3    1
   122     3     4    2
