@<TRIPOS>MOLECULE
tmp/4rdkA00.pdb
 77 73 0 0 0
SMALL
GASTEIGER

@<TRIPOS>ATOM
      1  N        -17.4030  -59.4710   24.1020 N.3   101  ASP101     -0.1239
      2  CA       -16.3610  -60.3010   23.5150 C.3   101  ASP101      0.1674
      3  C        -16.3840  -60.1550   22.0010 C.2   101  ASP101      0.2266
      4  O        -17.3780  -60.4980   21.3490 O.2   101  ASP101     -0.2867
      5  CB       -16.5780  -61.7700   23.8950 C.3   101  ASP101      0.1410
      6  CG       -16.2330  -62.0680   25.3490 C.2   101  ASP101      0.3668
      7  OD1      -15.9390  -61.1240   26.1160 O.co2 101  ASP101     -0.2456
      8  OD2      -16.2580  -63.2620   25.7250 O.co2 101  ASP101     -0.2456
      9  N        -15.1480  -61.4340   18.5990 N.3   103  HIS103     -0.1241
     10  CA       -14.5390  -62.6060   17.9850 C.3   103  HIS103      0.1621
     11  C        -14.0340  -62.2040   16.6120 C.2   103  HIS103      0.2264
     12  O        -14.8290  -61.9480   15.6970 O.2   103  HIS103     -0.2867
     13  CB       -15.5470  -63.7550   17.9140 C.3   103  HIS103      0.0745
     14  CG       -16.0920  -64.1480   19.2530 C.ar  103  HIS103      0.0817
     15  ND1      -15.5780  -65.1970   19.9880 N.ar  103  HIS103     -0.2268
     16  CD2      -17.0900  -63.6140   20.0010 C.ar  103  HIS103      0.1154
     17  CE1      -16.2420  -65.2990   21.1280 C.ar  103  HIS103      0.1986
     18  NE2      -17.1670  -64.3540   21.1580 N.ar  103  HIS103     -0.2212
     19  N        -10.0870  -63.8320   20.2320 N.3   124  VAL124     -0.1245
     20  CA       -11.0890  -63.0580   20.9480 C.3   124  VAL124      0.1561
     21  C        -10.4200  -61.8530   21.5800 C.2   124  VAL124      0.2260
     22  O         -9.3340  -61.9700   22.1560 O.2   124  VAL124     -0.2867
     23  CB       -11.7590  -63.8970   22.0570 C.3   124  VAL124      0.0252
     24  CG1      -12.7680  -63.0480   22.8380 C.3   124  VAL124      0.0019
     25  CG2      -12.4310  -65.1220   21.4550 C.3   124  VAL124      0.0019
     26  N        -17.9260  -62.0990   14.8120 N.3   161  TRP161     -0.1241
     27  CA       -19.1400  -62.1500   15.6190 C.3   161  TRP161      0.1605
     28  C        -18.8800  -61.5850   17.0100 C.2   161  TRP161      0.2264
     29  O        -17.7280  -61.3150   17.3790 O.2   161  TRP161     -0.2867
     30  CB       -19.7600  -63.5670   15.6600 C.3   161  TRP161      0.0550
     31  CG       -18.9500  -64.6570   16.3450 C.ar  161  TRP161      0.0003
     32  CD1      -17.8210  -65.2820   15.8740 C.ar  161  TRP161      0.0946
     33  CD2      -19.2520  -65.2750   17.5990 C.ar  161  TRP161      0.0152
     34  NE1      -17.3940  -66.2400   16.7760 N.ar  161  TRP161     -0.2442
     35  CE2      -18.2600  -66.2550   17.8400 C.ar  161  TRP161      0.0810
     36  CE3      -20.2730  -65.1000   18.5410 C.ar  161  TRP161      0.0012
     37  CZ2      -18.2540  -67.0410   18.9890 C.ar  161  TRP161      0.0191
     38  CZ3      -20.2650  -65.8870   19.6850 C.ar  161  TRP161      0.0001
     39  CH2      -19.2650  -66.8440   19.8980 C.ar  161  TRP161      0.0015
     40  N        -20.1980  -61.7100   21.2990 N.3   163  SER163     -0.1202
     41  CA       -20.9960  -62.3100   22.3660 C.3   163  SER163      0.2020
     42  C        -20.8860  -61.5050   23.6580 C.2   163  SER163      0.2618
     43  O        -20.0340  -60.6180   23.7810 O.2   163  SER163     -0.2717
     44  CB       -20.5940  -63.7680   22.6140 C.3   163  SER163      0.2103
     45  OG       -19.2330  -63.8660   23.0060 O.3   163  SER163     -0.2182
     46  N        -21.7550  -61.8040   24.6170 N.am  164  ASN164     -0.1974
     47  CA       -21.7280  -61.0860   25.8790 C.3   164  ASN164      0.1688
     48  C        -20.5210  -61.4520   26.7380 C.2   164  ASN164      0.2292
     49  O        -19.9890  -62.5700   26.6720 O.2   164  ASN164     -0.2864
     50  CB       -23.0180  -61.3060   26.6740 C.3   164  ASN164      0.1181
     51  CG       -23.1890  -62.7480   27.1260 C.2   164  ASN164      0.2629
     52  OD1      -23.4730  -63.6270   26.3180 O.2   164  ASN164     -0.2716
     53  ND2      -23.0330  -62.9910   28.4290 N.am  164  ASN164     -0.0877
     54  N        -19.0420  -62.5660   30.1850 N.3   166  THR166     -0.1203
     55  CA       -19.5880  -63.3730   31.2670 C.3   166  THR166      0.1994
     56  C        -20.0780  -62.4670   32.3920 C.2   166  THR166      0.2618
     57  O        -19.3720  -61.5530   32.8140 O.2   166  THR166     -0.2717
     58  CB       -18.5480  -64.3470   31.8270 C.3   166  THR166      0.1784
     59  OG1      -18.0790  -65.1960   30.7750 O.3   166  THR166     -0.2211
     60  CG2      -19.1660  -65.1960   32.9230 C.3   166  THR166      0.0376
     61  N        -21.2960  -62.7110   32.8630 N.am  167  GLY167     -0.1956
     62  CA       -21.8510  -61.9450   33.9630 C.3   167  GLY167      0.1869
     63  C        -22.5810  -60.6810   33.5500 C.2   167  GLY167      0.2309
     64  O        -23.1120  -59.9660   34.4000 O.2   167  GLY167     -0.2863
     65  N        -24.5490  -62.0960   19.0060 N.3   211  VAL211     -0.1231
     66  CA       -25.3230  -63.1980   19.5590 C.3   211  VAL211      0.1692
     67  C        -26.0770  -62.7930   20.8280 C.2   211  VAL211      0.2592
     68  O        -25.4910  -62.2160   21.7450 O.2   211  VAL211     -0.2718
     69  CB       -24.4210  -64.4270   19.8000 C.3   211  VAL211      0.0266
     70  CG1      -25.1890  -65.5420   20.5190 C.3   211  VAL211      0.0020
     71  CG2      -23.8630  -64.9200   18.4650 C.3   211  VAL211      0.0020
     72  N        -27.3750  -63.1120   20.8460 N.am  212  SER212     -0.1952
     73  CA       -28.3490  -62.7170   21.8780 C.3   212  SER212      0.1924
     74  C        -29.1230  -61.4440   21.5090 C.2   212  SER212      0.2314
     75  O        -30.1650  -61.1520   22.0990 O.2   212  SER212     -0.2863
     76  CB       -27.7440  -62.6130   23.2880 C.3   212  SER212      0.2116
     77  OG       -27.1680  -61.3410   23.5210 O.3   212  SER212     -0.2180
@<TRIPOS>BOND
     1    26    27    1
     2    27    30    1
     3    27    28    1
     4    30    31    1
     5    12    11    2
     6    32    31   ar
     7    32    34   ar
     8    31    33   ar
     9    11    10    1
    10    34    35   ar
    11    28    29    2
    12    33    35   ar
    13    33    36   ar
    14    35    37   ar
    15    13    10    1
    16    13    14    1
    17    10     9    1
    18    71    69    1
    19    36    38   ar
    20    37    39   ar
    21    65    66    1
    22    14    15   ar
    23    14    16   ar
    24    66    69    1
    25    66    67    1
    26    38    39   ar
    27    69    70    1
    28    15    17   ar
    29    16    18   ar
    30    19    20    1
    31    67    72   am
    32    67    68    2
    33    72    73    1
    34    20    21    1
    35    20    23    1
    36    17    18   ar
    37    40    41    1
    38     4     3    2
    39    25    23    1
    40    74    73    1
    41    74    75    2
    42    21    22    2
    43    73    76    1
    44     3     2    1
    45    23    24    1
    46    41    44    1
    47    41    42    1
    48    44    45    1
    49    76    77    1
    50     2     5    1
    51     2     1    1
    52    42    43    2
    53    42    46   am
    54     5     6    1
    55    46    47    1
    56     6     8   ar
    57     6     7   ar
    58    47    50    1
    59    47    48    1
    60    52    51    2
    61    49    48    2
    62    50    51    1
    63    51    53   am
    64    54    55    1
    65    59    58    1
    66    55    58    1
    67    55    56    1
    68    58    60    1
    69    56    57    2
    70    56    61   am
    71    61    62    1
    72    63    62    1
    73    63    64    2
