@<TRIPOS>MOLECULE
tmp/4rdnB00.pdb
 143 143 0 0 0
SMALL
GASTEIGER

@<TRIPOS>ATOM
      1  N        -20.2150  -43.4340   17.7870 N.3    16  LYS16      -0.1231
      2  CA       -19.5460  -42.2630   17.2220 C.3    16  LYS16       0.1693
      3  C        -20.4390  -41.6760   16.1280 C.2    16  LYS16       0.2593
      4  O        -21.1260  -42.4120   15.4330 O.2    16  LYS16      -0.2718
      5  CB       -18.1660  -42.6340   16.6610 C.3    16  LYS16       0.0285
      6  CG       -17.1840  -43.2190   17.6850 C.3    16  LYS16       0.0035
      7  CD       -16.7110  -42.2040   18.7240 C.3    16  LYS16       0.0206
      8  CE       -15.7610  -41.1930   18.0910 C.3    16  LYS16       0.1093
      9  NZ       -15.4180  -40.1040   19.0410 N.3    16  LYS16      -0.1314
     10  N        -20.4350  -40.3540   15.9940 N.am   17  SER17      -0.1938
     11  CA       -21.2390  -39.6770   14.9710 C.3    17  SER17       0.2055
     12  C        -20.4550  -38.5380   14.3440 C.2    17  SER17       0.2643
     13  O        -19.8120  -37.7710   15.0500 O.2    17  SER17      -0.2714
     14  CB       -22.5320  -39.1190   15.5890 C.3    17  SER17       0.2130
     15  OG       -23.2780  -38.3620   14.6470 O.3    17  SER17      -0.2179
     16  N        -20.5100  -38.4090   13.0220 N.am   18  TYR18      -0.1959
     17  CA       -20.0000  -37.1810   12.4250 C.3    18  TYR18       0.1771
     18  C        -21.1160  -36.1670   12.1140 C.2    18  TYR18       0.2620
     19  O        -20.9360  -35.2790   11.3000 O.2    18  TYR18      -0.2715
     20  CB       -19.0150  -37.4210   11.2690 C.3    18  TYR18       0.0574
     21  CG       -19.4110  -38.4140   10.2410 C.ar   18  TYR18      -0.0198
     22  CD1      -20.4130  -38.2290    9.2670 C.ar   18  TYR18      -0.0009
     23  CD2      -18.7130  -39.6060   10.0880 C.ar   18  TYR18      -0.0009
     24  CE1      -20.7320  -39.1410    8.3080 C.ar   18  TYR18       0.0417
     25  CE2      -18.9880  -40.5590    9.1340 C.ar   18  TYR18       0.0417
     26  CZ       -19.9930  -40.2880    8.2260 C.ar   18  TYR18       0.1957
     27  OH       -20.2360  -41.2080    7.2680 O.3    18  TYR18      -0.2866
     28  N        -22.2450  -36.2920   12.8230 N.am   19  SER19      -0.1950
     29  CA       -23.3360  -35.3120   12.7750 C.3    19  SER19       0.1924
     30  C        -23.8730  -34.9990   14.1760 C.2    19  SER19       0.2314
     31  O        -24.4490  -35.8700   14.8320 O.2    19  SER19      -0.2863
     32  CB       -24.4800  -35.8300   11.9100 C.3    19  SER19       0.2116
     33  OG       -25.6060  -34.9730   11.9950 O.3    19  SER19      -0.2180
     34  N        -27.7780  -35.2600   14.1220 N.3    22  ASP22      -0.1239
     35  CA       -28.2740  -36.6190   14.3740 C.3    22  ASP22       0.1674
     36  C        -28.3500  -36.8860   15.8720 C.2    22  ASP22       0.2266
     37  O        -29.3510  -37.4140   16.3540 O.2    22  ASP22      -0.2867
     38  CB       -27.4010  -37.6840   13.6880 C.3    22  ASP22       0.1410
     39  CG       -27.5860  -37.7270   12.1660 C.2    22  ASP22       0.3668
     40  OD1      -28.5040  -37.0710   11.6370 O.co2  22  ASP22      -0.2456
     41  OD2      -26.8050  -38.4350   11.4900 O.co2  22  ASP22      -0.2456
     42  N        -31.9610  -44.1800   17.3890 N.3    32  TRP32      -0.1227
     43  CA       -30.6290  -44.1230   16.8070 C.3    32  TRP32       0.1737
     44  C        -30.5480  -45.0920   15.6360 C.2    32  TRP32       0.2596
     45  O        -31.4210  -45.9230   15.4460 O.2    32  TRP32      -0.2718
     46  CB       -29.5460  -44.4300   17.8620 C.3    32  TRP32       0.0564
     47  CG       -28.1530  -44.1800   17.3570 C.ar   32  TRP32       0.0003
     48  CD1      -27.1800  -45.1020   17.1540 C.ar   32  TRP32       0.0946
     49  CD2      -27.6130  -42.9300   16.9350 C.ar   32  TRP32       0.0152
     50  NE1      -26.0490  -44.5050   16.6540 N.ar   32  TRP32      -0.2442
     51  CE2      -26.2930  -43.1670   16.5040 C.ar   32  TRP32       0.0810
     52  CE3      -28.1130  -41.6270   16.8860 C.ar   32  TRP32       0.0012
     53  CZ2      -25.4630  -42.1480   16.0380 C.ar   32  TRP32       0.0191
     54  CZ3      -27.2900  -40.6160   16.4170 C.ar   32  TRP32       0.0001
     55  CH2      -25.9810  -40.8820   15.9960 C.ar   32  TRP32       0.0015
     56  N        -29.5210  -44.9310   14.8210 N.am   33  CYS33      -0.1956
     57  CA       -29.2260  -45.8570   13.7470 C.3    33  CYS33       0.1843
     58  C        -27.7330  -45.7820   13.4940 C.2    33  CYS33       0.2626
     59  O        -27.1690  -44.6880   13.4610 O.2    33  CYS33      -0.2714
     60  CB       -29.9920  -45.4820   12.4710 C.3    33  CYS33       0.0997
     61  SG       -29.5860  -46.5110   11.0340 S.3    33  CYS33      -0.0797
     62  N        -27.1000  -46.9420   13.3210 N.am   34  SER34      -0.1936
     63  CA       -25.6660  -47.0150   13.0780 C.3    34  SER34       0.2055
     64  C        -25.4550  -47.4420   11.6360 C.2    34  SER34       0.2643
     65  O        -26.3930  -47.4240   10.8530 O.2    34  SER34      -0.2714
     66  CB       -25.0210  -48.0030   14.0520 C.3    34  SER34       0.2130
     67  OG       -23.6200  -48.0520   13.8630 O.3    34  SER34      -0.2179
     68  N        -24.2280  -47.8110   11.2820 N.am   35  THR35      -0.1950
     69  CA       -23.9510  -48.4240    9.9810 C.3    35  THR35       0.1897
     70  C        -24.6620  -49.7820    9.8980 C.2    35  THR35       0.2313
     71  O        -25.2530  -50.2350   10.8800 O.2    35  THR35      -0.2863
     72  CB       -22.4380  -48.6510    9.7600 C.3    35  THR35       0.1794
     73  OG1      -21.9030  -49.4330   10.8340 O.3    35  THR35      -0.2208
     74  CG2      -21.6810  -47.3240    9.6730 C.3    35  THR35       0.0378
     75  N        -23.1740  -52.8030    9.4880 N.3    37  HIS37      -0.1241
     76  CA       -22.4180  -53.7070   10.3640 C.3    37  HIS37       0.1621
     77  C        -22.5730  -53.3120   11.8360 C.2    37  HIS37       0.2264
     78  O        -22.6770  -54.1760   12.7050 O.2    37  HIS37      -0.2867
     79  CB       -20.9390  -53.8260    9.9350 C.3    37  HIS37       0.0745
     80  CG       -20.0480  -52.7200   10.4230 C.ar   37  HIS37       0.0817
     81  ND1      -19.6050  -52.6370   11.7290 N.ar   37  HIS37      -0.2268
     82  CD2      -19.4720  -51.6830    9.7670 C.ar   37  HIS37       0.1154
     83  CE1      -18.8220  -51.5810   11.8610 C.ar   37  HIS37       0.1986
     84  NE2      -18.7220  -50.9870   10.6840 N.ar   37  HIS37      -0.2212
     85  N        -17.4920  -37.2550   16.4740 N.3    62  ASN62      -0.1240
     86  CA       -16.1320  -37.2840   15.9090 C.3    62  ASN62       0.1653
     87  C        -15.4630  -35.9150   15.9590 C.2    62  ASN62       0.2266
     88  O        -16.0470  -34.9220   15.5480 O.2    62  ASN62      -0.2867
     89  CB       -16.1290  -37.7280   14.4450 C.3    62  ASN62       0.1155
     90  CG       -16.5450  -39.1650   14.2570 C.2    62  ASN62       0.2627
     91  OD1      -16.6730  -39.9170   15.2060 O.2    62  ASN62      -0.2716
     92  ND2      -16.7700  -39.5490   13.0110 N.am   62  ASN62      -0.0877
     93  N        -32.3190  -38.9620    8.7530 N.3    86  TRP86      -0.1227
     94  CA       -31.1010  -38.4880    9.4230 C.3    86  TRP86       0.1737
     95  C        -30.3870  -37.4820    8.5240 C.2    86  TRP86       0.2596
     96  O        -30.8930  -37.1480    7.4560 O.2    86  TRP86      -0.2718
     97  CB       -30.1700  -39.6650    9.7680 C.3    86  TRP86       0.0564
     98  CG       -30.7980  -40.6730   10.6850 C.ar   86  TRP86       0.0003
     99  CD1      -31.3770  -41.8550   10.3230 C.ar   86  TRP86       0.0946
    100  CD2      -30.9160  -40.5910   12.1150 C.ar   86  TRP86       0.0152
    101  NE1      -31.8600  -42.5040   11.4310 N.ar   86  TRP86      -0.2442
    102  CE2      -31.5900  -41.7530   12.5440 C.ar   86  TRP86       0.0810
    103  CE3      -30.5360  -39.6420   13.0700 C.ar   86  TRP86       0.0012
    104  CZ2      -31.8820  -41.9970   13.8810 C.ar   86  TRP86       0.0191
    105  CZ3      -30.8170  -39.8880   14.4030 C.ar   86  TRP86       0.0001
    106  CH2      -31.4900  -41.0580   14.7960 C.ar   86  TRP86       0.0015
    107  N        -29.2210  -37.0020    8.9700 N.am   87  SER87      -0.1952
    108  CA       -28.3820  -36.0610    8.2080 C.3    87  SER87       0.1924
    109  C        -28.1060  -36.5110    6.7770 C.2    87  SER87       0.2314
    110  O        -28.1020  -35.6970    5.8570 O.2    87  SER87      -0.2863
    111  CB       -27.0290  -35.8750    8.9090 C.3    87  SER87       0.2116
    112  OG       -26.3280  -37.1180    8.9980 O.3    87  SER87      -0.2180
    113  N        -27.6530  -42.4910    3.7340 N.3    90  LYS90      -0.1231
    114  CA       -27.0710  -43.8380    3.8110 C.3    90  LYS90       0.1693
    115  C        -27.3220  -44.5450    5.1520 C.2    90  LYS90       0.2592
    116  O        -27.0860  -45.7430    5.2640 O.2    90  LYS90      -0.2718
    117  CB       -25.5840  -43.8450    3.4170 C.3    90  LYS90       0.0285
    118  CG       -24.5700  -44.0160    4.5290 C.3    90  LYS90       0.0035
    119  CD       -23.9920  -42.7050    5.0140 C.3    90  LYS90       0.0206
    120  CE       -23.0240  -42.9870    6.1460 C.3    90  LYS90       0.1093
    121  NZ       -21.9380  -43.9490    5.8000 N.3    90  LYS90      -0.1314
    122  N        -27.8060  -43.8130    6.1540 N.am   91  TRP91      -0.1976
    123  CA       -28.2150  -44.4180    7.4250 C.3    91  TRP91       0.1640
    124  C        -29.5540  -45.0900    7.2070 C.2    91  TRP91       0.2290
    125  O        -30.5220  -44.4290    6.8220 O.2    91  TRP91      -0.2864
    126  CB       -28.3170  -43.3680    8.5390 C.3    91  TRP91       0.0576
    127  CG       -27.0790  -42.5890    8.6610 C.ar   91  TRP91       0.0006
    128  CD1      -26.9290  -41.2520    8.4760 C.ar   91  TRP91       0.0946
    129  CD2      -25.7810  -43.1060    8.9400 C.ar   91  TRP91       0.0152
    130  NE1      -25.6120  -40.8980    8.6350 N.ar   91  TRP91      -0.2442
    131  CE2      -24.8870  -42.0200    8.9270 C.ar   91  TRP91       0.0810
    132  CE3      -25.2850  -44.3860    9.2080 C.ar   91  TRP91       0.0012
    133  CZ2      -23.5280  -42.1730    9.1700 C.ar   91  TRP91       0.0191
    134  CZ3      -23.9410  -44.5340    9.4500 C.ar   91  TRP91       0.0001
    135  CH2      -23.0750  -43.4380    9.4310 C.ar   91  TRP91       0.0015
    136  N        -16.9000  -46.4010   16.1650 N.3   128  ASP128     -0.1239
    137  CA       -18.3270  -46.6490   16.3140 C.3   128  ASP128      0.1674
    138  C        -18.6210  -48.1190   16.6310 C.2   128  ASP128      0.2266
    139  O        -18.1110  -49.0060   15.9720 O.2   128  ASP128     -0.2867
    140  CB       -19.0480  -46.2560   15.0160 C.3   128  ASP128      0.1410
    141  CG       -20.5510  -46.1900   15.1820 C.2   128  ASP128      0.3668
    142  OD1      -21.0100  -45.7270   16.2400 O.co2 128  ASP128     -0.2456
    143  OD2      -21.2730  -46.5790   14.2450 O.co2 128  ASP128     -0.2456
@<TRIPOS>BOND
     1   117   114    1
     2   117   118    1
     3   113   114    1
     4   114   115    1
     5   118   119    1
     6   119   120    1
     7   115   116    2
     8   115   122   am
     9   121   120    1
    10   110   109    2
    11   122   123    1
    12   109   108    1
    13   125   124    2
    14   124   123    1
    15    27    26    1
    16   123   126    1
    17    96    95    2
    18   108   111    1
    19   108   107    1
    20    26    24   ar
    21    26    25   ar
    22    24    22   ar
    23   128   130   ar
    24   128   127   ar
    25    95   107   am
    26    95    94    1
    27   126   127    1
    28   130   131   ar
    29   127   129   ar
    30    93    94    1
    31   111   112    1
    32   131   129   ar
    33   131   133   ar
    34   129   132   ar
    35    25    23   ar
    36   133   135   ar
    37   132   134   ar
    38    22    21   ar
    39    94    97    1
    40   135   134   ar
    41    75    76    1
    42    74    72    1
    43    72    69    1
    44    72    73    1
    45    82    80   ar
    46    82    84   ar
    47    97    98    1
    48    70    69    1
    49    70    71    2
    50    79    76    1
    51    79    80    1
    52    69    68    1
    53    23    21   ar
    54    21    20    1
    55    99    98   ar
    56    99   101   ar
    57    76    77    1
    58    80    81   ar
    59    84    83   ar
    60    98   100   ar
    61    65    64    2
    62    61    60    1
    63    20    17    1
    64    68    64   am
    65    19    18    2
    66   101   102   ar
    67    41    39   ar
    68    64    63    1
    69    40    39   ar
    70    81    83   ar
    71    77    78    2
    72    32    33    1
    73    32    29    1
    74    18    17    1
    75    18    28   am
    76   100   102   ar
    77   100   103   ar
    78    39    38    1
    79    17    16    1
    80    60    57    1
    81   102   104   ar
    82    29    28    1
    83    29    30    1
    84    92    90   am
    85    16    12   am
    86   103   105   ar
    87    63    62    1
    88    63    66    1
    89    62    58   am
    90    59    58    2
    91    58    57    1
    92    38    35    1
    93    57    56    1
    94    67    66    1
    95   104   106   ar
    96    34    35    1
    97    30    31    2
    98   143   141   ar
    99    90    89    1
   100    90    91    2
   101    12    11    1
   102    12    13    2
   103    35    36    1
   104   105   106   ar
   105    89    86    1
   106    15    14    1
   107    56    44   am
   108    11    14    1
   109    11    10    1
   110   140   141    1
   111   140   137    1
   112   141   142   ar
   113     4     3    2
   114    45    44    2
   115    88    87    2
   116    44    43    1
   117    36    37    2
   118    86    87    1
   119    86    85    1
   120   139   138    2
   121    10     3   am
   122    55    53   ar
   123    55    54   ar
   124    53    51   ar
   125     3     2    1
   126   136   137    1
   127   137   138    1
   128    54    52   ar
   129    51    50   ar
   130    51    49   ar
   131    50    48   ar
   132     5     2    1
   133     5     6    1
   134    43    42    1
   135    43    46    1
   136    52    49   ar
   137    49    47   ar
   138    48    47   ar
   139     2     1    1
   140    47    46    1
   141     6     7    1
   142     8     7    1
   143     8     9    1
