@<TRIPOS>MOLECULE
tmp/4rdqC01.pdb
 93 88 0 0 0
SMALL
GASTEIGER

@<TRIPOS>ATOM
      1  N         46.8460   39.3540   44.3050 N.3     6  ASN6       -0.1225
      2  CA        46.8570   38.2450   43.3590 C.3     6  ASN6        0.1785
      3  C         45.4540   37.8040   42.9550 C.2     6  ASN6        0.2597
      4  O         45.2500   37.3160   41.8430 O.2     6  ASN6       -0.2718
      5  CB        47.6260   37.0570   43.9350 C.3     6  ASN6        0.1169
      6  CG        48.0640   36.0770   42.8640 C.2     6  ASN6        0.2627
      7  OD1       47.5810   34.9480   42.8040 O.2     6  ASN6       -0.2716
      8  ND2       48.9830   36.5100   42.0060 N.am    6  ASN6       -0.0877
      9  N         44.4920   37.9760   43.8570 N.am    7  ARG7       -0.1979
     10  CA        43.1070   37.6130   43.5730 C.3     7  ARG7        0.1597
     11  C         42.5270   38.5060   42.4880 C.2     7  ARG7        0.2287
     12  O         41.7470   38.0580   41.6480 O.2     7  ARG7       -0.2864
     13  CB        42.2410   37.7230   44.8300 C.3     7  ARG7        0.0334
     14  CG        42.4310   36.6250   45.8570 C.3     7  ARG7        0.0492
     15  CD        41.8670   37.0600   47.2020 C.3     7  ARG7        0.2205
     16  NE        41.5790   35.9290   48.0790 N.pl3   7  ARG7       -0.0865
     17  CZ        40.4880   35.1740   47.9910 C.cat   7  ARG7        0.5346
     18  NH1       39.5660   35.4390   47.0760 N.pl3   7  ARG7        0.1354
     19  NH2       40.3120   34.1640   48.8310 N.pl3   7  ARG7        0.1354
     20  N         44.1900   40.0560   40.1100 N.3     9  ALA9       -0.1231
     21  CA        45.1480   40.1950   39.0190 C.3     9  ALA9        0.1694
     22  C         44.4370   40.3370   37.6770 C.2     9  ALA9        0.2592
     23  O         44.8410   41.1340   36.8320 O.2     9  ALA9       -0.2718
     24  CB        46.0990   39.0090   38.9910 C.3     9  ALA9        0.0304
     25  N         43.3720   39.5660   37.4880 N.am   10  ASP10      -0.1974
     26  CA        42.6110   39.6210   36.2470 C.3    10  ASP10       0.1709
     27  C         41.1860   40.0870   36.5080 C.2    10  ASP10       0.2293
     28  O         40.6500   39.9060   37.6010 O.2    10  ASP10      -0.2864
     29  CB        42.5960   38.2570   35.5530 C.3    10  ASP10       0.1436
     30  CG        43.9880   37.7380   35.2570 C.2    10  ASP10       0.3671
     31  OD1       44.7760   38.4690   34.6220 O.co2  10  ASP10      -0.2456
     32  OD2       44.2930   36.5940   35.6540 O.co2  10  ASP10      -0.2456
     33  N         37.9540   39.1150   35.9210 N.3    12  ARG12      -0.1231
     34  CA        37.0700   38.0170   35.5500 C.3    12  ARG12       0.1694
     35  C         35.6850   38.2180   36.1600 C.2    12  ARG12       0.2592
     36  O         35.3860   39.2890   36.6880 O.2    12  ARG12      -0.2718
     37  CB        37.6660   36.6810   35.9960 C.3    12  ARG12       0.0321
     38  CG        39.0340   36.3830   35.4000 C.3    12  ARG12       0.0489
     39  CD        39.8290   35.5450   36.3350 C.3    12  ARG12       0.2205
     40  NE        39.6060   35.8980   37.7340 N.pl3  12  ARG12      -0.0865
     41  CZ        39.7420   35.0050   38.7230 C.cat  12  ARG12       0.5346
     42  NH1       40.0280   33.7190   38.4880 N.pl3  12  ARG12       0.1354
     43  NH2       39.5990   35.4020   39.9880 N.pl3  12  ARG12       0.1354
     44  N         34.8440   37.1900   36.0780 N.am   13  LEU13      -0.1966
     45  CA        33.4640   37.2710   36.5620 C.3    13  LEU13       0.1728
     46  C         33.3080   37.7180   38.0160 C.2    13  LEU13       0.2617
     47  O         32.5830   38.6700   38.2970 O.2    13  LEU13      -0.2715
     48  CB        32.7630   35.9220   36.3780 C.3    13  LEU13       0.0311
     49  CG        31.2990   35.8830   36.8310 C.3    13  LEU13       0.0022
     50  CD1       30.4660   36.8950   36.0770 C.3    13  LEU13       0.0001
     51  CD2       30.7260   34.4900   36.6450 C.3    13  LEU13       0.0001
     52  N         33.9850   37.0410   38.9360 N.am   14  GLY14      -0.1940
     53  CA        33.8330   37.3510   40.3450 C.3    14  GLY14       0.2014
     54  C         35.0330   38.0020   41.0030 C.2    14  GLY14       0.2639
     55  O         35.2550   37.8170   42.1980 O.2    14  GLY14      -0.2714
     56  N         35.8160   38.7400   40.2210 N.am   15  THR15      -0.1950
     57  CA        37.0070   39.4270   40.7220 C.3    15  THR15       0.1897
     58  C         36.7610   40.2140   42.0130 C.2    15  THR15       0.2313
     59  O         37.5210   40.1010   42.9750 O.2    15  THR15      -0.2863
     60  CB        37.5730   40.3900   39.6630 C.3    15  THR15       0.1794
     61  OG1       37.8850   39.6610   38.4700 O.3    15  THR15      -0.2208
     62  CG2       38.8340   41.0770   40.1780 C.3    15  THR15       0.0378
     63  N         33.4180   40.4380   43.4980 N.3    17  SER17      -0.1202
     64  CA        32.3760   39.7340   44.2440 C.3    17  SER17       0.2020
     65  C         32.9690   38.7840   45.2830 C.2    17  SER17       0.2618
     66  O         32.4790   38.6990   46.4080 O.2    17  SER17      -0.2717
     67  CB        31.4670   38.9590   43.2900 C.3    17  SER17       0.2103
     68  OG        31.1930   39.7130   42.1230 O.3    17  SER17      -0.2182
     69  N         34.0030   38.0490   44.8800 N.am   18  GLN18      -0.1979
     70  CA        34.7040   37.1180   45.7630 C.3    18  GLN18       0.1601
     71  C         35.1700   37.7770   47.0620 C.2    18  GLN18       0.2287
     72  O         35.2000   37.1410   48.1160 O.2    18  GLN18      -0.2864
     73  CB        35.9020   36.4960   45.0340 C.3    18  GLN18       0.0394
     74  CG        37.0660   37.4560   44.7910 C.3    18  GLN18       0.0908
     75  CD        38.2600   36.7870   44.1390 C.2    18  GLN18       0.2608
     76  OE1       38.7280   35.7440   44.5930 O.2    18  GLN18      -0.2717
     77  NE2       38.7660   37.3940   43.0700 N.am   18  GLN18      -0.0878
     78  N         33.7570   39.9250   48.8030 N.3    20  LEU20      -0.1231
     79  CA        32.6600   40.1350   49.7380 C.3    20  LEU20       0.1693
     80  C         32.5540   38.9640   50.7120 C.2    20  LEU20       0.2591
     81  O         31.8470   39.0400   51.7140 O.2    20  LEU20      -0.2718
     82  CB        31.3390   40.3210   48.9880 C.3    20  LEU20       0.0284
     83  CG        31.1600   41.6260   48.2090 C.3    20  LEU20       0.0019
     84  CD1       29.8780   41.5920   47.3940 C.3    20  LEU20       0.0001
     85  CD2       31.1640   42.8200   49.1510 C.3    20  LEU20       0.0001
     86  N         33.2570   37.8780   50.4060 N.am   21  LEU21      -0.1980
     87  CA        33.2480   36.6910   51.2550 C.3    21  LEU21       0.1596
     88  C         34.4460   36.6360   52.1990 C.2    21  LEU21       0.2287
     89  O         34.6460   35.6430   52.8960 O.2    21  LEU21      -0.2864
     90  CB        33.2150   35.4270   50.3950 C.3    21  LEU21       0.0297
     91  CG        32.0060   35.2620   49.4730 C.3    21  LEU21       0.0022
     92  CD1       32.0040   33.8730   48.8550 C.3    21  LEU21       0.0001
     93  CD2       30.7080   35.5270   50.2250 C.3    21  LEU21       0.0001
@<TRIPOS>BOND
     1    31    30   ar
     2    30    29    1
     3    30    32   ar
     4    38    37    1
     5    38    39    1
     6    34    33    1
     7    34    37    1
     8    34    35    1
     9    29    26    1
    10    50    49    1
    11    44    35   am
    12    44    45    1
    13    35    36    2
    14    26    27    1
    15    26    25    1
    16    39    40    1
    17    48    45    1
    18    48    49    1
    19    27    28    2
    20    45    46    1
    21    51    49    1
    22    23    22    2
    23    25    22   am
    24    22    21    1
    25    40    41    2
    26    46    47    2
    27    46    52   am
    28    61    60    1
    29    42    41    1
    30    41    43    1
    31    52    53    1
    32    24    21    1
    33    21    20    1
    34    60    62    1
    35    60    57    1
    36    56    57    1
    37    56    54   am
    38    53    54    1
    39    57    58    1
    40    54    55    2
    41    12    11    2
    42     4     3    2
    43     8     6   am
    44    58    59    2
    45    68    67    1
    46    11    10    1
    47     7     6    2
    48     6     5    1
    49     3     2    1
    50     3     9   am
    51    77    75   am
    52    67    64    1
    53     2     5    1
    54     2     1    1
    55    63    64    1
    56    10     9    1
    57    10    13    1
    58    75    76    2
    59    75    74    1
    60    64    65    1
    61    74    73    1
    62    13    14    1
    63    69    65   am
    64    69    70    1
    65    73    70    1
    66    65    66    2
    67    70    71    1
    68    14    15    1
    69    71    72    2
    70    18    17    1
    71    15    16    1
    72    84    83    1
    73    17    16    2
    74    17    19    1
    75    83    82    1
    76    83    85    1
    77    78    79    1
    78    92    91    1
    79    82    79    1
    80    91    93    1
    81    91    90    1
    82    79    80    1
    83    90    87    1
    84    86    80   am
    85    86    87    1
    86    80    81    2
    87    87    88    1
    88    88    89    2
