@<TRIPOS>MOLECULE
tmp/4rdrA00.pdb
 99 93 0 0 0
SMALL
GASTEIGER

@<TRIPOS>ATOM
      1  N        -53.2780   49.0030   35.4240 N.3   132  LEU132     -0.1245
      2  CA       -54.1190   48.6380   34.2970 C.3   132  LEU132      0.1561
      3  C        -53.3750   49.0250   33.0310 C.2   132  LEU132      0.2260
      4  O        -52.7520   50.0710   32.9760 O.2   132  LEU132     -0.2867
      5  CB       -55.4520   49.3850   34.3660 C.3   132  LEU132      0.0270
      6  CG       -56.7280   48.5610   34.5330 C.3   132  LEU132      0.0019
      7  CD1      -56.6780   47.7250   35.8040 C.3   132  LEU132      0.0001
      8  CD2      -57.9440   49.4710   34.5430 C.3   132  LEU132      0.0001
      9  N        -54.5300   43.6990   26.5920 N.3   145  THR145     -0.1203
     10  CA       -55.0320   44.3270   27.8000 C.3   145  THR145      0.1994
     11  C        -54.5310   43.5360   28.9870 C.2   145  THR145      0.2619
     12  O        -54.4680   42.3120   28.9350 O.2   145  THR145     -0.2717
     13  CB       -56.5950   44.4600   27.8220 C.3   145  THR145      0.1784
     14  OG1      -57.1980   43.2450   28.2850 O.3   145  THR145     -0.2211
     15  CG2      -57.1360   44.8100   26.4400 C.3   145  THR145      0.0376
     16  N        -54.1780   44.2340   30.0560 N.am  146  SER146     -0.1937
     17  CA       -53.6040   43.5870   31.2220 C.3   146  SER146      0.2055
     18  C        -54.0040   44.3520   32.4590 C.2   146  SER146      0.2643
     19  O        -54.3130   45.5340   32.3790 O.2   146  SER146     -0.2714
     20  CB       -52.0820   43.5620   31.0990 C.3   146  SER146      0.2130
     21  OG       -51.5960   44.8570   30.7960 O.3   146  SER146     -0.2179
     22  N        -54.0280   43.6770   33.6010 N.am  147  GLY147     -0.1954
     23  CA       -54.3290   44.3570   34.8390 C.3   147  GLY147      0.1869
     24  C        -53.9370   43.5480   36.0450 C.2   147  GLY147      0.2309
     25  O        -53.7480   42.3310   35.9660 O.2   147  GLY147     -0.2863
     26  N        -54.1490   39.4790   35.5490 N.3   163  GLY163     -0.1210
     27  CA       -54.5180   38.8250   34.3270 C.3   163  GLY163      0.1956
     28  C        -54.1040   39.6070   33.1130 C.2   163  GLY163      0.2612
     29  O        -53.7600   40.7940   33.1890 O.2   163  GLY163     -0.2717
     30  N        -54.1250   38.9110   31.9860 N.am  164  LEU164     -0.1965
     31  CA       -53.7010   39.4890   30.7330 C.3   164  LEU164      0.1728
     32  C        -54.3930   38.7580   29.5880 C.2   164  LEU164      0.2616
     33  O        -54.5980   37.5490   29.6490 O.2   164  LEU164     -0.2715
     34  CB       -52.1690   39.4280   30.6610 C.3   164  LEU164      0.0311
     35  CG       -51.3680   39.5140   29.3710 C.3   164  LEU164      0.0022
     36  CD1      -49.9630   39.9580   29.6890 C.3   164  LEU164      0.0001
     37  CD2      -51.3140   38.1410   28.7140 C.3   164  LEU164      0.0001
     38  N        -54.8010   39.5040   28.5710 N.am  165  TYR165     -0.1974
     39  CA       -55.2350   38.9050   27.3320 C.3   165  TYR165      0.1639
     40  C        -54.5920   39.5880   26.1330 C.2   165  TYR165      0.2290
     41  O        -54.5680   40.8180   26.0300 O.2   165  TYR165     -0.2864
     42  CB       -56.7650   38.9350   27.2040 C.3   165  TYR165      0.0560
     43  CG       -57.2590   38.3190   25.9110 C.ar  165  TYR165     -0.0198
     44  CD1      -57.3870   36.9410   25.7780 C.ar  165  TYR165     -0.0009
     45  CD2      -57.5650   39.1080   24.8140 C.ar  165  TYR165     -0.0009
     46  CE1      -57.8220   36.3720   24.5900 C.ar  165  TYR165      0.0417
     47  CE2      -58.0050   38.5500   23.6230 C.ar  165  TYR165      0.0417
     48  CZ       -58.1330   37.1830   23.5160 C.ar  165  TYR165      0.1957
     49  OH       -58.5700   36.6320   22.3290 O.3   165  TYR165     -0.2866
     50  N        -54.2010   34.0930   27.0940 N.3   190  GLN190     -0.1231
     51  CA       -54.7310   34.7110   28.2890 C.3   190  GLN190      0.1698
     52  C        -54.2820   34.0450   29.5700 C.2   190  GLN190      0.2593
     53  O        -54.1860   32.8190   29.6500 O.2   190  GLN190     -0.2718
     54  CB       -56.2600   34.8350   28.2420 C.3   190  GLN190      0.0381
     55  CG       -57.0370   33.5460   28.4290 C.3   190  GLN190      0.0905
     56  CD       -58.4450   33.8030   28.9500 C.2   190  GLN190      0.2608
     57  OE1      -59.4160   33.2110   28.4760 O.2   190  GLN190     -0.2717
     58  NE2      -58.5580   34.6880   29.9320 N.am  190  GLN190     -0.0878
     59  N        -54.0320   34.8660   30.5810 N.am  191  THR191     -0.1939
     60  CA       -53.5360   34.3780   31.8530 C.3   191  THR191      0.2028
     61  C        -54.3030   35.0290   32.9740 C.2   191  THR191      0.2642
     62  O        -54.7780   36.1630   32.8470 O.2   191  THR191     -0.2714
     63  CB       -52.0540   34.7310   32.0810 C.3   191  THR191      0.1808
     64  OG1      -51.3380   34.6870   30.8400 O.3   191  THR191     -0.2208
     65  CG2      -51.4320   33.7560   33.0600 C.3   191  THR191      0.0379
     66  N        -54.4120   34.2990   34.0750 N.am  192  GLY192     -0.1954
     67  CA       -55.0080   34.8210   35.2810 C.3   192  GLY192      0.1869
     68  C        -54.3550   34.1910   36.4920 C.2   192  GLY192      0.2309
     69  O        -53.8990   33.0490   36.4550 O.2   192  GLY192     -0.2863
     70  N        -53.3540   30.3040   35.7660 N.3   211  ASP211     -0.1239
     71  CA       -53.9630   29.5570   34.6850 C.3   211  ASP211      0.1674
     72  C        -53.7030   30.2940   33.3900 C.2   211  ASP211      0.2266
     73  O        -53.9420   31.5040   33.2920 O.2   211  ASP211     -0.2867
     74  CB       -55.4630   29.4130   34.9310 C.3   211  ASP211      0.1410
     75  CG       -56.0830   28.2940   34.1190 C.2   211  ASP211      0.3668
     76  OD1      -55.4530   27.8420   33.1390 O.co2 211  ASP211     -0.2456
     77  OD2      -57.2030   27.8610   34.4660 O.co2 211  ASP211     -0.2456
     78  N        -53.8760   29.9950   28.9950 N.3   213  ARG213     -0.1245
     79  CA       -54.1980   29.3620   27.7340 C.3   213  ARG213      0.1563
     80  C        -53.5560   30.0960   26.5730 C.2   213  ARG213      0.2260
     81  O        -53.7200   31.3100   26.4320 O.2   213  ARG213     -0.2867
     82  CB       -55.7080   29.2730   27.5460 C.3   213  ARG213      0.0307
     83  CG       -56.1450   28.5720   26.2750 C.3   213  ARG213      0.0489
     84  CD       -57.0980   27.4440   26.6420 C.3   213  ARG213      0.2205
     85  NE       -57.5200   26.6410   25.4990 N.pl3 213  ARG213     -0.0865
     86  CZ       -58.6700   26.7920   24.8490 C.cat 213  ARG213      0.5346
     87  NH1      -59.5410   27.7180   25.2340 N.pl3 213  ARG213      0.1354
     88  NH2      -58.9520   26.0010   23.8200 N.pl3 213  ARG213      0.1354
     89  N        -52.3000   24.6480   27.5720 N.3   276  ARG276     -0.1245
     90  CA       -52.9140   24.9640   28.8410 C.3   276  ARG276      0.1563
     91  C        -51.9480   24.6370   29.9740 C.2   276  ARG276      0.2260
     92  O        -51.4350   23.5070   30.0750 O.2   276  ARG276     -0.2867
     93  CB       -54.1990   24.1580   29.0080 C.3   276  ARG276      0.0307
     94  CG       -55.0100   24.5600   30.2150 C.3   276  ARG276      0.0489
     95  CD       -55.5800   25.9570   30.0540 C.3   276  ARG276      0.2205
     96  NE       -56.4270   26.3050   31.1920 N.pl3 276  ARG276     -0.0865
     97  CZ       -57.6780   25.8830   31.3580 C.cat 276  ARG276      0.5346
     98  NH1      -58.2400   25.0810   30.4620 N.pl3 276  ARG276      0.1354
     99  NH2      -58.3630   26.2530   32.4290 N.pl3 276  ARG276      0.1354
@<TRIPOS>BOND
     1    49    48    1
     2    48    47   ar
     3    48    46   ar
     4    47    45   ar
     5    88    86    1
     6    46    44   ar
     7    45    43   ar
     8    86    87    1
     9    86    85    2
    10    85    84    1
    11    44    43   ar
    12    43    42    1
    13    41    40    2
    14    40    39    1
    15    83    84    1
    16    83    82    1
    17    81    80    2
    18    15    13    1
    19    80    79    1
    20     9    10    1
    21    50    51    1
    22    42    39    1
    23    39    38    1
    24    82    79    1
    25    89    90    1
    26    79    78    1
    27    10    13    1
    28    10    11    1
    29    13    14    1
    30    54    51    1
    31    54    55    1
    32    51    52    1
    33    55    56    1
    34    57    56    2
    35    38    32   am
    36    37    35    1
    37    90    93    1
    38    90    91    1
    39    12    11    2
    40    56    58   am
    41    11    16   am
    42    93    94    1
    43    35    36    1
    44    35    34    1
    45    52    53    2
    46    52    59   am
    47    32    33    2
    48    32    31    1
    49    91    92    2
    50    95    94    1
    51    95    96    1
    52    16    17    1
    53    98    97    1
    54    59    60    1
    55    34    31    1
    56    31    30    1
    57    21    20    1
    58    64    63    1
    59    20    17    1
    60    96    97    2
    61    17    18    1
    62    97    99    1
    63    60    63    1
    64    60    61    1
    65    30    28   am
    66    63    65    1
    67    19    18    2
    68    18    22   am
    69    62    61    2
    70    61    66   am
    71     4     3    2
    72     3     2    1
    73    28    29    2
    74    28    27    1
    75    76    75   ar
    76    73    72    2
    77    72    71    1
    78    22    23    1
    79    66    67    1
    80    75    77   ar
    81    75    74    1
    82     2     5    1
    83     2     1    1
    84    27    26    1
    85     5     6    1
    86     6     8    1
    87     6     7    1
    88    71    74    1
    89    71    70    1
    90    23    24    1
    91    67    68    1
    92    25    24    2
    93    69    68    2
