@<TRIPOS>MOLECULE
tmp/4rdrA04.pdb
 117 114 0 0 0
SMALL
GASTEIGER

@<TRIPOS>ATOM
      1  N        -19.1400   23.1150   40.2240 N.3   431  PHE431     -0.1227
      2  CA       -18.5620   24.1400   41.0780 C.3   431  PHE431      0.1736
      3  C        -18.3990   25.4440   40.3200 C.2   431  PHE431      0.2595
      4  O        -18.2380   25.4550   39.1000 O.2   431  PHE431     -0.2718
      5  CB       -17.1810   23.7180   41.5900 C.3   431  PHE431      0.0547
      6  CG       -17.1050   22.2970   42.0500 C.ar  431  PHE431     -0.0202
      7  CD1      -17.4590   21.9550   43.3460 C.ar  431  PHE431     -0.0042
      8  CD2      -16.6770   21.2980   41.1900 C.ar  431  PHE431     -0.0042
      9  CE1      -17.3860   20.6410   43.7810 C.ar  431  PHE431     -0.0003
     10  CE2      -16.6070   19.9820   41.6170 C.ar  431  PHE431     -0.0003
     11  CZ       -16.9620   19.6560   42.9160 C.ar  431  PHE431     -0.0000
     12  N        -18.4050   26.5420   41.0600 N.am  432  ALA432     -0.1966
     13  CA       -18.1960   27.8540   40.4730 C.3   432  ALA432      0.1728
     14  C        -17.3870   28.6960   41.4340 C.2   432  ALA432      0.2616
     15  O        -17.4270   28.4910   42.6400 O.2   432  ALA432     -0.2715
     16  CB       -19.5180   28.5240   40.1690 C.3   432  ALA432      0.0334
     17  N        -16.6290   29.6280   40.8880 N.am  433  LEU433     -0.1977
     18  CA       -15.7990   30.4910   41.6900 C.3   433  LEU433      0.1596
     19  C        -15.7760   31.8340   41.0000 C.2   433  LEU433      0.2287
     20  O        -15.6530   31.9030   39.7870 O.2   433  LEU433     -0.2864
     21  CB       -14.3970   29.9040   41.8040 C.3   433  LEU433      0.0297
     22  CG       -13.5040   30.5490   42.8500 C.3   433  LEU433      0.0022
     23  CD1      -14.0550   30.2430   44.2300 C.3   433  LEU433      0.0001
     24  CD2      -12.0840   30.0330   42.7010 C.3   433  LEU433      0.0001
     25  N        -15.5990   31.8440   36.9160 N.3   449  ALA449     -0.1231
     26  CA       -15.3010   30.5610   36.3090 C.3   449  ALA449      0.1694
     27  C        -16.1520   29.4510   36.8900 C.2   449  ALA449      0.2593
     28  O        -16.5300   29.5100   38.0470 O.2   449  ALA449     -0.2718
     29  CB       -13.8370   30.2290   36.4790 C.3   449  ALA449      0.0304
     30  N        -16.4030   28.4100   36.1050 N.am  450  SER450     -0.1938
     31  CA       -17.1780   27.2830   36.6030 C.3   450  SER450      0.2055
     32  C        -16.8330   25.9980   35.8650 C.2   450  SER450      0.2643
     33  O        -16.4680   26.0160   34.7030 O.2   450  SER450     -0.2714
     34  CB       -18.6980   27.5750   36.5160 C.3   450  SER450      0.2130
     35  OG       -19.2400   27.3610   35.2180 O.3   450  SER450     -0.2179
     36  N        -16.9250   24.8840   36.5750 N.am  451  HIS451     -0.1973
     37  CA       -16.8600   23.5760   35.9590 C.3   451  HIS451      0.1656
     38  C        -18.1750   22.8850   36.2570 C.2   451  HIS451      0.2291
     39  O        -18.4800   22.5830   37.4140 O.2   451  HIS451     -0.2864
     40  CB       -15.6950   22.7390   36.4970 C.3   451  HIS451      0.0771
     41  CG       -15.7060   21.3280   36.0020 C.ar  451  HIS451      0.0820
     42  ND1      -16.4490   20.3350   36.6050 N.ar  451  HIS451     -0.2267
     43  CD2      -15.1180   20.7550   34.9250 C.ar  451  HIS451      0.1154
     44  CE1      -16.2940   19.2040   35.9370 C.ar  451  HIS451      0.1986
     45  NE2      -15.4930   19.4310   34.9130 N.ar  451  HIS451     -0.2212
     46  N        -19.8620   18.1340   30.0310 N.3   484  ARG484     -0.1245
     47  CA       -18.9560   18.7720   30.9460 C.3   484  ARG484      0.1563
     48  C        -18.5350   20.0900   30.3720 C.2   484  ARG484      0.2260
     49  O        -18.3290   20.1910   29.1910 O.2   484  ARG484     -0.2867
     50  CB       -17.7420   17.8980   31.1680 C.3   484  ARG484      0.0307
     51  CG       -17.9980   16.6900   32.0430 C.3   484  ARG484      0.0489
     52  CD       -16.9580   15.5900   31.8840 C.3   484  ARG484      0.2205
     53  NE       -15.7320   16.0600   31.2480 N.pl3 484  ARG484     -0.0865
     54  CZ       -15.2740   15.6320   30.0800 C.cat 484  ARG484      0.5346
     55  NH1      -15.9180   14.7060   29.4130 N.pl3 484  ARG484      0.1354
     56  NH2      -14.1660   16.1390   29.5890 N.pl3 484  ARG484      0.1354
     57  N        -16.2030   23.8560   31.0420 N.3   486  ASN486     -0.1225
     58  CA       -15.2950   24.7100   31.7560 C.3   486  ASN486      0.1785
     59  C        -15.5240   26.0960   31.2100 C.2   486  ASN486      0.2597
     60  O        -15.3080   26.3550   30.0210 O.2   486  ASN486     -0.2718
     61  CB       -13.8490   24.2610   31.5560 C.3   486  ASN486      0.1169
     62  CG       -13.5220   23.0050   32.3410 C.2   486  ASN486      0.2627
     63  OD1      -13.7720   22.9260   33.5400 O.2   486  ASN486     -0.2716
     64  ND2      -12.9500   22.0230   31.6670 N.am  486  ASN486     -0.0877
     65  N        -15.9910   26.9790   32.0830 N.am  487  ASN487     -0.1960
     66  CA       -16.4780   28.2890   31.6870 C.3   487  ASN487      0.1819
     67  C        -15.7080   29.4220   32.3380 C.2   487  ASN487      0.2621
     68  O        -15.3990   29.3860   33.5300 O.2   487  ASN487     -0.2715
     69  CB       -17.9780   28.3930   31.9760 C.3   487  ASN487      0.1195
     70  CG       -18.7240   27.1370   31.5620 C.2   487  ASN487      0.2630
     71  OD1      -18.9660   26.9330   30.3760 O.2   487  ASN487     -0.2716
     72  ND2      -19.0680   26.2830   32.5260 N.am  487  ASN487     -0.0877
     73  N        -15.3660   30.4100   31.5220 N.am  488  ILE488     -0.1977
     74  CA       -14.6320   31.5660   31.9880 C.3   488  ILE488      0.1596
     75  C        -15.2090   32.8520   31.4090 C.2   488  ILE488      0.2287
     76  O        -15.5320   32.9240   30.2270 O.2   488  ILE488     -0.2864
     77  CB       -13.1190   31.4320   31.6280 C.3   488  ILE488      0.0276
     78  CG1      -12.3060   32.5710   32.2390 C.3   488  ILE488      0.0022
     79  CG2      -12.8980   31.3560   30.1170 C.3   488  ILE488      0.0022
     80  CD1      -12.0680   32.4220   33.7320 C.3   488  ILE488      0.0001
     81  N        -15.7540   32.5300   27.3960 N.3   507  ARG507     -0.1245
     82  CA       -15.4240   31.3140   26.6900 C.3   507  ARG507      0.1563
     83  C        -16.0380   30.1350   27.4370 C.2   507  ARG507      0.2260
     84  O        -15.9330   30.0410   28.6600 O.2   507  ARG507     -0.2867
     85  CB       -13.9070   31.1610   26.6040 C.3   507  ARG507      0.0307
     86  CG       -13.4370   30.0920   25.6440 C.3   507  ARG507      0.0489
     87  CD       -11.9340   30.1100   25.5770 C.3   507  ARG507      0.2205
     88  NE       -11.3530   29.6010   26.8220 N.pl3 507  ARG507     -0.0865
     89  CZ       -10.2050   30.0180   27.3550 C.cat 507  ARG507      0.5346
     90  NH1       -9.4860   30.9650   26.7580 N.pl3 507  ARG507      0.1354
     91  NH2       -9.7740   29.4830   28.4940 N.pl3 507  ARG507      0.1354
     92  N        -16.0840   25.9390   27.2060 N.3   509  ARG509     -0.1231
     93  CA       -15.4500   24.7610   26.6180 C.3   509  ARG509      0.1694
     94  C        -16.1090   23.4650   27.0840 C.2   509  ARG509      0.2592
     95  O        -16.1710   23.2010   28.2770 O.2   509  ARG509     -0.2718
     96  CB       -13.9560   24.7350   26.9580 C.3   509  ARG509      0.0321
     97  CG       -13.0430   25.0940   25.8080 C.3   509  ARG509      0.0489
     98  CD       -12.7870   26.5860   25.7340 C.3   509  ARG509      0.2205
     99  NE       -11.3580   26.8940   25.7970 N.pl3 509  ARG509     -0.0865
    100  CZ       -10.6290   27.3320   24.7690 C.cat 509  ARG509      0.5346
    101  NH1      -11.1860   27.5420   23.5840 N.pl3 509  ARG509      0.1354
    102  NH2       -9.3440   27.5940   24.9360 N.pl3 509  ARG509      0.1354
    103  N        -16.6040   22.6650   26.1430 N.am  510  PHE510     -0.1962
    104  CA       -17.1790   21.3500   26.4310 C.3   510  PHE510      0.1771
    105  C        -16.2620   20.3570   25.7160 C.2   510  PHE510      0.2620
    106  O        -15.6820   20.7200   24.6990 O.2   510  PHE510     -0.2715
    107  CB       -18.5950   21.2210   25.8310 C.3   510  PHE510      0.0574
    108  CG       -19.5430   22.3650   26.1540 C.ar  510  PHE510     -0.0200
    109  CD1      -19.5140   23.5410   25.4210 C.ar  510  PHE510     -0.0042
    110  CD2      -20.5070   22.2340   27.1440 C.ar  510  PHE510     -0.0042
    111  CE1      -20.4000   24.5780   25.6970 C.ar  510  PHE510     -0.0003
    112  CE2      -21.3830   23.2640   27.4210 C.ar  510  PHE510     -0.0003
    113  CZ       -21.3300   24.4400   26.6910 C.ar  510  PHE510     -0.0000
    114  N        -16.1120   19.1210   26.1950 N.am  511  GLY511     -0.1954
    115  CA       -16.7460   18.6220   27.3920 C.3   511  GLY511      0.1869
    116  C        -17.8750   17.6260   27.1600 C.2   511  GLY511      0.2309
    117  O        -18.8890   17.6730   27.8630 O.2   511  GLY511     -0.2863
@<TRIPOS>BOND
     1   101   100    1
     2   106   105    2
     3   100   102    1
     4   100    99    2
     5   109   111   ar
     6   109   108   ar
     7    87    86    1
     8    87    88    1
     9    86    85    1
    10   111   113   ar
    11   105   114   am
    12   105   104    1
    13    98    99    1
    14    98    97    1
    15    97    96    1
    16   107   108    1
    17   107   104    1
    18   103   104    1
    19   103    94   am
    20   108   110   ar
    21   114   115    1
    22    85    82    1
    23    93    96    1
    24    93    94    1
    25    93    92    1
    26    82    81    1
    27    82    83    1
    28   113   112   ar
    29    90    89    1
    30    88    89    2
    31    94    95    2
    32   110   112   ar
    33   116   115    1
    34   116   117    2
    35    89    91    1
    36    83    84    2
    37    49    48    2
    38    55    54    1
    39    56    54    1
    40    60    59    2
    41    46    47    1
    42    54    53    2
    43    79    77    1
    44    76    75    2
    45    48    47    1
    46    71    70    2
    47    47    50    1
    48    57    58    1
    49    50    51    1
    50    59    58    1
    51    59    65   am
    52    53    52    1
    53    75    74    1
    54    73    74    1
    55    73    67   am
    56    61    58    1
    57    61    62    1
    58    70    69    1
    59    70    72   am
    60    77    74    1
    61    77    78    1
    62    64    62   am
    63    66    69    1
    64    66    65    1
    65    66    67    1
    66    52    51    1
    67    78    80    1
    68    67    68    2
    69    62    63    2
    70    33    32    2
    71    45    43   ar
    72    45    44   ar
    73    43    41   ar
    74    35    34    1
    75    32    36   am
    76    32    31    1
    77    44    42   ar
    78    37    38    1
    79    37    40    1
    80    37    36    1
    81    41    40    1
    82    41    42   ar
    83    30    31    1
    84    30    27   am
    85    38    39    2
    86    26    29    1
    87    26    27    1
    88    26    25    1
    89    34    31    1
    90    27    28    2
    91     4     3    2
    92    20    19    2
    93    16    13    1
    94     1     2    1
    95     3    12   am
    96     3     2    1
    97    13    12    1
    98    13    14    1
    99    17    14   am
   100    17    18    1
   101    19    18    1
   102     2     5    1
   103     8    10   ar
   104     8     6   ar
   105    14    15    2
   106     5     6    1
   107    10    11   ar
   108    18    21    1
   109    21    22    1
   110     6     7   ar
   111    24    22    1
   112    22    23    1
   113    11     9   ar
   114     7     9   ar
