@<TRIPOS>MOLECULE
tmp/4rdrA01.pdb
 128 123 0 0 0
SMALL
GASTEIGER

@<TRIPOS>ATOM
      1  N        -18.9510   45.7050   29.7700 N.3   503  LEU503     -0.1245
      2  CA       -18.2480   44.9090   28.7750 C.3   503  LEU503      0.1561
      3  C        -18.0180   43.5040   29.2990 C.2   503  LEU503      0.2260
      4  O        -17.6920   43.3200   30.4690 O.2   503  LEU503     -0.2867
      5  CB       -16.9070   45.5590   28.4290 C.3   503  LEU503      0.0270
      6  CG       -16.9710   47.0360   28.0330 C.3   503  LEU503      0.0019
      7  CD1      -15.5780   47.6290   27.9370 C.3   503  LEU503      0.0001
      8  CD2      -17.7090   47.1990   26.7160 C.3   503  LEU503      0.0001
      9  N        -18.0470   38.0010   22.7660 N.3   548  ALA548     -0.1231
     10  CA       -17.9650   39.2580   23.4880 C.3   548  ALA548      0.1694
     11  C        -19.2520   40.0490   23.3310 C.2   548  ALA548      0.2592
     12  O        -19.9580   39.9240   22.3240 O.2   548  ALA548     -0.2718
     13  CB       -16.8040   40.0680   22.9720 C.3   548  ALA548      0.0304
     14  N        -19.5530   40.8720   24.3260 N.am  549  GLU549     -0.1965
     15  CA       -20.7270   41.7320   24.2390 C.3   549  GLU549      0.1737
     16  C        -20.5290   42.9430   25.1260 C.2   549  GLU549      0.2655
     17  O        -19.8360   42.8680   26.1290 O.2   549  GLU549     -0.2711
     18  CB       -21.9930   40.9570   24.6380 C.3   549  GLU549      0.0429
     19  CG       -22.1870   40.7620   26.1380 C.3   549  GLU549      0.1163
     20  CD       -22.3900   39.3060   26.5050 C.2   549  GLU549      0.3649
     21  OE1      -22.1650   38.4490   25.6270 O.co2 549  GLU549     -0.2457
     22  OE2      -22.7600   39.0150   27.6650 O.co2 549  GLU549     -0.2457
     23  N        -21.1600   44.0540   24.7750 N.am  550  GLY550     -0.1730
     24  CA       -20.9910   45.2650   25.5490 C.2   550  GLY550      0.1340
     25  C        -21.8980   46.4160   25.1670 C.2   550  GLY550      0.2521
     26  O        -22.4980   46.4320   24.0950 O.2   550  GLY550     -0.2816
     27  N        -22.0360   50.9490   25.8460 N.3   552  ILE552     -0.1245
     28  CA       -21.3790   52.1520   26.3330 C.3   552  ILE552      0.1561
     29  C        -22.1930   53.4200   26.0440 C.2   552  ILE552      0.2260
     30  O        -22.5220   53.7200   24.9020 O.2   552  ILE552     -0.2867
     31  CB       -19.9590   52.2720   25.7520 C.3   552  ILE552      0.0252
     32  CG1      -19.4040   53.6710   26.0020 C.3   552  ILE552      0.0019
     33  CG2      -19.9650   51.9700   24.2640 C.3   552  ILE552      0.0019
     34  CD1      -18.0060   53.8780   25.4680 C.3   552  ILE552      0.0001
     35  N        -23.6270   53.0860   22.3210 N.3   564  VAL564     -0.1231
     36  CA       -23.2440   52.0980   21.3370 C.3   564  VAL564      0.1692
     37  C        -23.2830   50.7390   22.0110 C.2   564  VAL564      0.2593
     38  O        -22.7920   50.5810   23.1200 O.2   564  VAL564     -0.2718
     39  CB       -21.8440   52.3910   20.7610 C.3   564  VAL564      0.0266
     40  CG1      -21.3570   51.2410   19.9030 C.3   564  VAL564      0.0020
     41  CG2      -21.8630   53.6830   19.9620 C.3   564  VAL564      0.0020
     42  N        -23.8730   49.7570   21.3460 N.am  565  SER565     -0.1938
     43  CA       -23.9500   48.4160   21.9030 C.3   565  SER565      0.2055
     44  C        -23.4090   47.4380   20.8820 C.2   565  SER565      0.2644
     45  O        -23.1710   47.8000   19.7340 O.2   565  SER565     -0.2714
     46  CB       -25.3910   48.0680   22.2950 C.3   565  SER565      0.2130
     47  OG       -26.2660   48.0990   21.1810 O.3   565  SER565     -0.2179
     48  N        -23.1550   46.2110   21.3070 N.am  566  GLY566     -0.1939
     49  CA       -22.6850   45.2120   20.3780 C.3   566  GLY566      0.2014
     50  C        -22.5470   43.8360   20.9790 C.2   566  GLY566      0.2639
     51  O        -22.4340   43.6680   22.1940 O.2   566  GLY566     -0.2714
     52  N        -22.5410   42.8420   20.1050 N.am  567  ASP567     -0.1957
     53  CA       -22.2500   41.4820   20.5160 C.3   567  ASP567      0.1840
     54  C        -21.7940   40.6570   19.3350 C.2   567  ASP567      0.2622
     55  O        -21.9970   41.0230   18.1710 O.2   567  ASP567     -0.2715
     56  CB       -23.4310   40.8130   21.2280 C.3   567  ASP567      0.1450
     57  CG       -24.7530   41.0520   20.5290 C.2   567  ASP567      0.3671
     58  OD1      -24.9140   40.5870   19.3780 O.co2 567  ASP567     -0.2456
     59  OD2      -25.6440   41.6740   21.1520 O.co2 567  ASP567     -0.2456
     60  N        -21.1880   39.5280   19.6630 N.am  568  TYR568     -0.1974
     61  CA       -20.5460   38.6970   18.6800 C.3   568  TYR568      0.1639
     62  C        -20.3270   37.3900   19.4080 C.2   568  TYR568      0.2290
     63  O        -19.9870   37.3830   20.5950 O.2   568  TYR568     -0.2864
     64  CB       -19.2090   39.3290   18.2930 C.3   568  TYR568      0.0560
     65  CG       -18.4080   38.5560   17.2730 C.ar  568  TYR568     -0.0198
     66  CD1      -17.5820   37.5120   17.6580 C.ar  568  TYR568     -0.0009
     67  CD2      -18.4500   38.8940   15.9250 C.ar  568  TYR568     -0.0009
     68  CE1      -16.8440   36.8000   16.7300 C.ar  568  TYR568      0.0417
     69  CE2      -17.7160   38.1870   14.9890 C.ar  568  TYR568      0.0417
     70  CZ       -16.9130   37.1430   15.4000 C.ar  568  TYR568      0.1957
     71  OH       -16.1680   36.4350   14.4850 O.3   568  TYR568     -0.2866
     72  N        -23.3860   38.6770   14.4040 N.3   605  ALA605     -0.1231
     73  CA       -22.9020   39.8260   15.1530 C.3   605  ALA605      0.1694
     74  C        -23.9070   40.9530   15.0500 C.2   605  ALA605      0.2592
     75  O        -24.6560   41.0390   14.0780 O.2   605  ALA605     -0.2718
     76  CB       -21.5510   40.2730   14.6470 C.3   605  ALA605      0.0304
     77  N        -23.9320   41.8190   16.0530 N.am  606  ARG606     -0.1966
     78  CA       -24.8700   42.9320   16.0150 C.3   606  ARG606      0.1729
     79  C        -24.2590   44.1790   16.6360 C.2   606  ARG606      0.2616
     80  O        -23.5460   44.0970   17.6460 O.2   606  ARG606     -0.2715
     81  CB       -26.1800   42.5540   16.7040 C.3   606  ARG606      0.0348
     82  CG       -27.0940   43.7220   17.0020 C.3   606  ARG606      0.0492
     83  CD       -28.5250   43.2600   17.2280 C.3   606  ARG606      0.2205
     84  NE       -28.6020   42.0900   18.0970 N.pl3 606  ARG606     -0.0865
     85  CZ       -28.9320   42.1350   19.3810 C.cat 606  ARG606      0.5346
     86  NH1      -29.2020   43.3020   19.9360 N.pl3 606  ARG606      0.1354
     87  NH2      -28.9890   41.0240   20.1090 N.pl3 606  ARG606      0.1354
     88  N        -24.4830   45.3170   15.9840 N.am  607  LEU607     -0.1977
     89  CA       -24.0550   46.6010   16.5210 C.3   607  LEU607      0.1596
     90  C        -25.2690   47.4810   16.7840 C.2   607  LEU607      0.2287
     91  O        -26.2310   47.4530   16.0410 O.2   607  LEU607     -0.2864
     92  CB       -23.1120   47.2890   15.5370 C.3   607  LEU607      0.0297
     93  CG       -21.6930   46.7240   15.5520 C.3   607  LEU607      0.0022
     94  CD1      -20.8320   47.3440   14.4610 C.3   607  LEU607      0.0001
     95  CD2      -21.0690   46.9330   16.9210 C.3   607  LEU607      0.0001
     96  N        -25.5260   42.0720   11.2460 N.3   629  PHE629     -0.1227
     97  CA       -24.6930   41.6130   10.1470 C.3   629  PHE629      0.1736
     98  C        -25.1050   40.2470    9.6720 C.2   629  PHE629      0.2595
     99  O        -25.7970   39.5120   10.3690 O.2   629  PHE629     -0.2718
    100  CB       -23.2140   41.6080   10.5350 C.3   629  PHE629      0.0547
    101  CG       -22.6420   42.9780   10.7020 C.ar  629  PHE629     -0.0202
    102  CD1      -22.1630   43.6730    9.6070 C.ar  629  PHE629     -0.0042
    103  CD2      -22.5990   43.5790   11.9430 C.ar  629  PHE629     -0.0042
    104  CE1      -21.6450   44.9350    9.7470 C.ar  629  PHE629     -0.0003
    105  CE2      -22.0830   44.8430   12.0880 C.ar  629  PHE629     -0.0003
    106  CZ       -21.6050   45.5210   10.9890 C.ar  629  PHE629     -0.0000
    107  N        -24.6580   39.9100    8.4740 N.am  630  ALA630     -0.1980
    108  CA       -24.9680   38.6240    7.9010 C.3   630  ALA630      0.1597
    109  C        -24.2090   37.5690    8.6790 C.2   630  ALA630      0.2287
    110  O        -23.2440   37.8720    9.3740 O.2   630  ALA630     -0.2864
    111  CB       -24.5940   38.5860    6.4300 C.3   630  ALA630      0.0319
    112  N        -22.1700   34.1800    8.0640 N.3   632  ASN632     -0.1225
    113  CA       -21.5340   33.3270    7.0710 C.3   632  ASN632      0.1785
    114  C        -20.8280   32.1170    7.6860 C.2   632  ASN632      0.2597
    115  O        -20.3330   31.2460    6.9710 O.2   632  ASN632     -0.2718
    116  CB       -20.5490   34.1450    6.2370 C.3   632  ASN632      0.1169
    117  CG       -21.2100   35.3340    5.5700 C.2   632  ASN632      0.2627
    118  OD1      -22.1020   35.1730    4.7410 O.2   632  ASN632     -0.2716
    119  ND2      -20.7750   36.5370    5.9310 N.am  632  ASN632     -0.0877
    120  N        -20.7850   32.0600    9.0130 N.am  633  LYS633     -0.1980
    121  CA       -20.2390   30.8870    9.6780 C.3   633  LYS633      0.1596
    122  C        -21.3790   29.9050    9.8220 C.2   633  LYS633      0.2287
    123  O        -22.1920   30.0030   10.7490 O.2   633  LYS633     -0.2864
    124  CB       -19.6370   31.2460   11.0330 C.3   633  LYS633      0.0298
    125  CG       -18.6100   32.3620   10.9640 C.3   633  LYS633      0.0038
    126  CD       -17.5160   32.0470    9.9530 C.3   633  LYS633      0.0206
    127  CE       -16.5510   33.2120    9.7880 C.3   633  LYS633      0.1093
    128  NZ       -15.5130   32.9410    8.7550 N.3   633  LYS633     -0.1314
@<TRIPOS>BOND
     1   118   117    2
     2   117   119   am
     3   117   116    1
     4   116   113    1
     5   111   108    1
     6   115   114    2
     7   113   114    1
     8   113   112    1
     9   114   120   am
    10   108   107    1
    11   108   109    1
    12   107    98   am
    13   109   110    2
    14   128   127    1
    15   120   121    1
    16   102   104   ar
    17   102   101   ar
    18    98    97    1
    19    98    99    2
    20   121   122    1
    21   121   124    1
    22   104   106   ar
    23   127   126    1
    24   122   123    2
    25   126   125    1
    26    97   100    1
    27    97    96    1
    28   100   101    1
    29   101   103   ar
    30   125   124    1
    31   106   105   ar
    32   103   105   ar
    33    75    74    2
    34    72    73    1
    35    94    93    1
    36    71    70    1
    37    76    73    1
    38    69    70   ar
    39    69    67   ar
    40    74    73    1
    41    74    77   am
    42    70    68   ar
    43    92    93    1
    44    92    89    1
    45    93    95    1
    46    67    65   ar
    47    88    89    1
    48    88    79   am
    49    78    77    1
    50    78    79    1
    51    78    81    1
    52    91    90    2
    53    89    90    1
    54    79    80    2
    55    81    82    1
    56    68    66   ar
    57    82    83    1
    58    83    84    1
    59    65    66   ar
    60    65    64    1
    61    84    85    2
    62    55    54    2
    63    64    61    1
    64    61    62    1
    65    61    60    1
    66    54    60   am
    67    54    53    1
    68    58    57   ar
    69    85    86    1
    70    85    87    1
    71    62    63    2
    72    45    44    2
    73    40    39    1
    74    41    39    1
    75    52    53    1
    76    52    50   am
    77    49    50    1
    78    49    48    1
    79    53    56    1
    80    57    59   ar
    81    57    56    1
    82    39    36    1
    83    44    48   am
    84    44    43    1
    85    50    51    2
    86    47    46    1
    87    36    37    1
    88    36    35    1
    89    42    43    1
    90    42    37   am
    91    43    46    1
    92    37    38    2
    93    12    11    2
    94     9    10    1
    95    13    10    1
    96    11    10    1
    97    11    14   am
    98    26    25    2
    99    15    14    1
   100    15    18    1
   101    15    16    1
   102    33    31    1
   103    18    19    1
   104    23    16    1
   105    23    24    2
   106    30    29    2
   107    16    17    2
   108    25    24    1
   109    34    32    1
   110    21    20   ar
   111    31    32    1
   112    31    28    1
   113    27    28    1
   114    29    28    1
   115    19    20    1
   116    20    22   ar
   117     8     6    1
   118     7     6    1
   119     6     5    1
   120     5     2    1
   121     2     3    1
   122     2     1    1
   123     3     4    2
