@<TRIPOS>MOLECULE
tmp/4rdtA00.pdb
 112 105 0 0 0
SMALL
GASTEIGER

@<TRIPOS>ATOM
      1  N         -3.8240   45.1430   85.5680 N.3   133  LEU133     -0.1231
      2  CA        -4.6110   46.1780   84.9190 C.3   133  LEU133      0.1693
      3  C         -3.9420   47.5200   85.1020 C.2   133  LEU133      0.2592
      4  O         -3.4420   47.8330   86.1800 O.2   133  LEU133     -0.2718
      5  CB        -6.0130   46.2300   85.5170 C.3   133  LEU133      0.0284
      6  CG        -7.2030   45.9240   84.6070 C.3   133  LEU133      0.0019
      7  CD1       -7.0710   44.5570   83.9590 C.3   133  LEU133      0.0001
      8  CD2       -8.4950   46.0380   85.3880 C.3   133  LEU133      0.0001
      9  N         -3.9480   48.3180   84.0420 N.am  134  GLY134     -0.1957
     10  CA        -3.2290   49.5710   84.0480 C.3   134  GLY134      0.1869
     11  C         -3.9520   50.6900   83.3410 C.2   134  GLY134      0.2309
     12  O         -4.6760   50.4650   82.3740 O.2   134  GLY134     -0.2863
     13  N         -4.4590   52.5990   78.4490 N.3   146  THR146     -0.1203
     14  CA        -4.9870   51.5150   79.2630 C.3   146  THR146      0.1994
     15  C         -4.3880   50.1780   78.8580 C.2   146  THR146      0.2619
     16  O         -4.1640   49.9170   77.6740 O.2   146  THR146     -0.2717
     17  CB        -6.5110   51.4330   79.2330 C.3   146  THR146      0.1784
     18  OG1       -6.9290   50.6610   78.1040 O.3   146  THR146     -0.2211
     19  CG2       -7.1110   52.8390   79.1910 C.3   146  THR146      0.0376
     20  N         -4.1500   49.3170   79.8350 N.am  147  SER147     -0.1937
     21  CA        -3.5140   48.0550   79.5530 C.3   147  SER147      0.2055
     22  C         -3.9980   46.9930   80.5220 C.2   147  SER147      0.2643
     23  O         -4.4730   47.2880   81.6280 O.2   147  SER147     -0.2714
     24  CB        -2.0120   48.2030   79.6610 C.3   147  SER147      0.2130
     25  OG        -1.6790   48.7860   80.9100 O.3   147  SER147     -0.2179
     26  N         -3.9200   45.7520   80.0640 N.am  148  GLY148     -0.1954
     27  CA        -4.3030   44.6160   80.8630 C.3   148  GLY148      0.1869
     28  C         -3.6970   43.3720   80.2680 C.2   148  GLY148      0.2309
     29  O         -3.2900   43.3500   79.1080 O.2   148  GLY148     -0.2863
     30  N         -3.6300   42.9980   76.2880 N.3   164  GLY164     -0.1210
     31  CA        -3.9240   44.0630   75.3580 C.3   164  GLY164      0.1956
     32  C         -3.6630   45.4580   75.8830 C.2   164  GLY164      0.2612
     33  O         -3.5010   45.6960   77.0850 O.2   164  GLY164     -0.2717
     34  N         -3.6110   46.4040   74.9650 N.am  165  LEU165     -0.1965
     35  CA        -3.2880   47.7460   75.3450 C.3   165  LEU165      0.1728
     36  C         -4.0070   48.6750   74.3610 C.2   165  LEU165      0.2616
     37  O         -3.9700   48.4200   73.1580 O.2   165  LEU165     -0.2715
     38  CB        -1.7760   47.9120   75.3150 C.3   165  LEU165      0.0311
     39  CG        -1.1330   49.2820   75.2280 C.3   165  LEU165      0.0022
     40  CD1       -1.3490   49.8640   76.5760 C.3   165  LEU165      0.0001
     41  CD2        0.3410   49.1380   74.9910 C.3   165  LEU165      0.0001
     42  N         -4.6250   49.7610   74.8370 N.am  166  TYR166     -0.1974
     43  CA        -5.1170   50.7670   73.9080 C.3   166  TYR166      0.1639
     44  C         -4.6280   52.1230   74.3380 C.2   166  TYR166      0.2290
     45  O         -4.7550   52.5190   75.5130 O.2   166  TYR166     -0.2864
     46  CB        -6.6210   50.7660   73.8010 C.3   166  TYR166      0.0560
     47  CG        -7.1620   51.8200   72.8600 C.ar  166  TYR166     -0.0198
     48  CD1       -7.1630   51.6200   71.4860 C.ar  166  TYR166     -0.0009
     49  CD2       -7.6970   53.0100   73.3500 C.ar  166  TYR166     -0.0009
     50  CE1       -7.6630   52.5890   70.6140 C.ar  166  TYR166      0.0417
     51  CE2       -8.2010   53.9830   72.4920 C.ar  166  TYR166      0.0417
     52  CZ        -8.1790   53.7660   71.1220 C.ar  166  TYR166      0.1957
     53  OH        -8.6750   54.7190   70.2560 O.3   166  TYR166     -0.2866
     54  N         -3.4430   49.7940   69.0060 N.3   191  GLN191     -0.1231
     55  CA        -3.9940   48.7070   69.8220 C.3   191  GLN191      0.1698
     56  C         -3.3210   47.3700   69.5960 C.2   191  GLN191      0.2593
     57  O         -2.9310   47.0450   68.4810 O.2   191  GLN191     -0.2718
     58  CB        -5.5110   48.5390   69.6960 C.3   191  GLN191      0.0381
     59  CG        -5.8890   48.1340   68.2520 C.3   191  GLN191      0.0905
     60  CD        -7.3840   47.9380   68.0110 C.2   191  GLN191      0.2608
     61  OE1       -7.9990   48.6560   67.2180 O.2   191  GLN191     -0.2717
     62  NE2       -7.9850   47.0070   68.7470 N.am  191  GLN191     -0.0878
     63  N         -3.1870   46.5870   70.6580 N.am  192  THR192     -0.1939
     64  CA        -2.5040   45.3200   70.5450 C.3   192  THR192      0.2028
     65  C         -3.3510   44.3170   71.2700 C.2   192  THR192      0.2642
     66  O         -3.9760   44.6560   72.2720 O.2   192  THR192     -0.2714
     67  CB        -1.1580   45.3450   71.1730 C.3   192  THR192      0.1808
     68  OG1       -0.5690   46.6290   70.9650 O.3   192  THR192     -0.2208
     69  CG2       -0.2930   44.2450   70.5640 C.3   192  THR192      0.0379
     70  N         -3.3320   43.0720   70.8160 N.am  193  GLY193     -0.1954
     71  CA        -4.0850   42.0360   71.4790 C.3   193  GLY193      0.1869
     72  C         -3.3870   40.7290   71.2990 C.2   193  GLY193      0.2309
     73  O         -2.7850   40.5190   70.2640 O.2   193  GLY193     -0.2863
     74  N         -2.3630   40.7730   67.4520 N.3   212  ASP212     -0.1239
     75  CA        -2.8650   41.6850   66.4570 C.3   212  ASP212      0.1674
     76  C         -2.5980   43.0830   66.9410 C.2   212  ASP212      0.2266
     77  O         -2.9270   43.4520   68.0780 O.2   212  ASP212     -0.2867
     78  CB        -4.3680   41.4250   66.2260 C.3   212  ASP212      0.1410
     79  CG        -4.8970   42.0520   64.9440 C.2   212  ASP212      0.3668
     80  OD1       -4.2020   42.8760   64.3250 O.co2 212  ASP212     -0.2456
     81  OD2       -5.9670   41.6160   64.4920 O.co2 212  ASP212     -0.2456
     82  N         -2.7810   47.1190   65.4520 N.3   214  ARG214     -0.1245
     83  CA        -3.0660   48.1700   64.4950 C.3   214  ARG214      0.1563
     84  C         -2.5260   49.5080   65.0210 C.2   214  ARG214      0.2260
     85  O         -2.8250   49.8940   66.1510 O.2   214  ARG214     -0.2867
     86  CB        -4.5600   48.2550   64.2130 C.3   214  ARG214      0.0307
     87  CG        -5.0310   49.2820   63.1980 C.3   214  ARG214      0.0489
     88  CD        -5.9260   48.6420   62.1500 C.3   214  ARG214      0.2205
     89  NE        -6.3840   49.6030   61.1530 N.pl3 214  ARG214     -0.0865
     90  CZ        -7.5610   50.2200   61.2160 C.cat 214  ARG214      0.5346
     91  NH1       -8.3710   49.9820   62.2370 N.pl3 214  ARG214      0.1354
     92  NH2       -7.9240   51.0820   60.2740 N.pl3 214  ARG214      0.1354
     93  N         -0.7610   47.5990   60.2060 N.3   258  ARG258     -0.1245
     94  CA        -1.4020   46.4250   60.7830 C.3   258  ARG258      0.1563
     95  C         -0.4240   45.2720   60.9010 C.2   258  ARG258      0.2260
     96  O          0.2060   44.8920   59.9190 O.2   258  ARG258     -0.2867
     97  CB        -2.5690   45.9950   59.9030 C.3   258  ARG258      0.0307
     98  CG        -3.7350   46.9770   59.8620 C.3   258  ARG258      0.0489
     99  CD        -4.8670   46.4330   58.9960 C.3   258  ARG258      0.2205
    100  NE        -5.9830   47.3670   58.8660 N.pl3 258  ARG258     -0.0865
    101  CZ        -7.0300   47.1660   58.0720 C.cat 258  ARG258      0.5346
    102  NH1       -7.0910   46.0740   57.3230 N.pl3 258  ARG258      0.1354
    103  NH2       -8.0010   48.0650   58.0060 N.pl3 258  ARG258      0.1354
    104  N         -0.0540   41.2540   62.2790 N.3   260  LYS260     -0.1245
    105  CA        -0.6660   40.0230   62.7400 C.3   260  LYS260      0.1561
    106  C          0.3970   38.9590   62.9770 C.2   260  LYS260      0.2260
    107  O          1.2120   38.6950   62.1020 O.2   260  LYS260     -0.2867
    108  CB        -1.6790   39.5240   61.7060 C.3   260  LYS260      0.0271
    109  CG        -2.7020   40.5840   61.3290 C.3   260  LYS260      0.0035
    110  CD        -3.6820   40.1010   60.3000 C.3   260  LYS260      0.0206
    111  CE        -4.5250   41.2570   59.8070 C.3   260  LYS260      0.1093
    112  NZ        -5.4260   40.8060   58.7160 N.3   260  LYS260     -0.1314
@<TRIPOS>BOND
     1   102   101    1
     2   103   101    1
     3   101   100    2
     4   112   111    1
     5   100    99    1
     6    99    98    1
     7   111   110    1
     8    98    97    1
     9    97    94    1
    10    96    95    2
    11    93    94    1
    12    92    90    1
    13   110   109    1
    14    94    95    1
    15    89    90    2
    16    89    88    1
    17    90    91    1
    18   109   108    1
    19   108   105    1
    20   107   106    2
    21    88    87    1
    22   104   105    1
    23   105   106    1
    24    87    86    1
    25    86    83    1
    26    80    79   ar
    27    81    79   ar
    28    83    84    1
    29    83    82    1
    30    79    78    1
    31    84    85    2
    32    78    75    1
    33    75    76    1
    34    75    74    1
    35    76    77    2
    36    61    60    2
    37    60    59    1
    38    60    62   am
    39    59    58    1
    40    57    56    2
    41    54    55    1
    42    56    55    1
    43    56    63   am
    44    58    55    1
    45    53    52    1
    46    73    72    2
    47    64    63    1
    48    64    67    1
    49    64    65    1
    50    69    67    1
    51    50    52   ar
    52    50    48   ar
    53    70    65   am
    54    70    71    1
    55    68    67    1
    56    52    51   ar
    57    65    66    2
    58    72    71    1
    59    48    47   ar
    60    51    49   ar
    61    47    49   ar
    62    47    46    1
    63    37    36    2
    64    46    43    1
    65    43    44    1
    66    43    42    1
    67    44    45    2
    68    36    42   am
    69    36    35    1
    70    34    35    1
    71    34    32   am
    72    41    39    1
    73    39    38    1
    74    39    40    1
    75    38    35    1
    76    31    32    1
    77    31    30    1
    78    32    33    2
    79    16    15    2
    80    18    17    1
    81    13    14    1
    82    15    14    1
    83    15    20   am
    84    29    28    2
    85    19    17    1
    86    17    14    1
    87    21    24    1
    88    21    20    1
    89    21    22    1
    90    24    25    1
    91    26    22   am
    92    26    27    1
    93    28    27    1
    94    22    23    2
    95    12    11    2
    96    11    10    1
    97     7     6    1
    98     9    10    1
    99     9     3   am
   100     6     8    1
   101     6     5    1
   102     2     3    1
   103     2     5    1
   104     2     1    1
   105     3     4    2
