@<TRIPOS>MOLECULE
tmp/4rdvB00.pdb
 178 173 0 0 0
SMALL
GASTEIGER

@<TRIPOS>ATOM
      1  N         66.9780   -7.1110   32.9000 N.3    57  HIS57      -0.1241
      2  CA        68.1160   -6.2390   33.2520 C.3    57  HIS57       0.1621
      3  C         67.9690   -5.8300   34.7070 C.2    57  HIS57       0.2264
      4  O         67.3040   -4.8420   34.9990 O.2    57  HIS57      -0.2867
      5  CB        68.1660   -4.9620   32.3980 C.3    57  HIS57       0.0745
      6  CG        67.9960   -5.2070   30.9380 C.ar   57  HIS57       0.0817
      7  ND1       68.8860   -5.9620   30.2040 N.ar   57  HIS57      -0.2268
      8  CD2       67.0290   -4.8160   30.0750 C.ar   57  HIS57       0.1154
      9  CE1       68.4800   -6.0150   28.9460 C.ar   57  HIS57       0.1986
     10  NE2       67.3580   -5.3270   28.8420 N.ar   57  HIS57      -0.2212
     11  N         67.5750   -2.2700   36.5920 N.3    60  GLN60      -0.1245
     12  CA        66.4650   -1.3900   36.2330 C.3    60  GLN60       0.1566
     13  C         65.2960   -1.4480   37.2350 C.2    60  GLN60       0.2260
     14  O         64.5220   -0.4980   37.3420 O.2    60  GLN60      -0.2867
     15  CB        66.0010   -1.6420   34.7820 C.3    60  GLN60       0.0367
     16  CG        67.1000   -1.3170   33.7510 C.3    60  GLN60       0.0905
     17  CD        66.6490   -1.4450   32.2900 C.2    60  GLN60       0.2608
     18  OE1       65.4900   -1.7470   32.0000 O.2    60  GLN60      -0.2717
     19  NE2       67.5790   -1.2080   31.3640 N.am   60  GLN60      -0.0878
     20  N         60.8900    6.6940   24.1730 N.3    77  PHE77      -0.1241
     21  CA        61.7920    5.6090   24.5260 C.3    77  PHE77       0.1605
     22  C         63.2340    6.1070   24.7480 C.2    77  PHE77       0.2264
     23  O         63.9300    5.6530   25.6670 O.2    77  PHE77      -0.2867
     24  CB        61.7450    4.5750   23.3880 C.3    77  PHE77       0.0534
     25  CG        62.6800    3.4170   23.5620 C.ar   77  PHE77      -0.0203
     26  CD1       62.2190    2.2150   24.0770 C.ar   77  PHE77      -0.0042
     27  CD2       64.0190    3.5200   23.1850 C.ar   77  PHE77      -0.0042
     28  CE1       63.0770    1.1410   24.2370 C.ar   77  PHE77      -0.0003
     29  CE2       64.8850    2.4500   23.3420 C.ar   77  PHE77      -0.0003
     30  CZ        64.4150    1.2580   23.8690 C.ar   77  PHE77      -0.0000
     31  N         63.6240    8.1630   27.9660 N.3    80  TRP80      -0.1227
     32  CA        63.7030    7.1680   29.0360 C.3    80  TRP80       0.1737
     33  C         65.1010    6.5360   29.0990 C.2    80  TRP80       0.2595
     34  O         65.6870    6.4170   30.1800 O.2    80  TRP80      -0.2718
     35  CB        62.6380    6.0840   28.8690 C.3    80  TRP80       0.0564
     36  CG        62.8550    4.8890   29.7520 C.ar   80  TRP80       0.0003
     37  CD1       62.3760    4.7050   31.0170 C.ar   80  TRP80       0.0946
     38  CD2       63.6080    3.7110   29.4320 C.ar   80  TRP80       0.0152
     39  NE1       62.7800    3.4840   31.5000 N.ar   80  TRP80      -0.2442
     40  CE2       63.5410    2.8570   30.5490 C.ar   80  TRP80       0.0810
     41  CE3       64.3270    3.2940   28.3040 C.ar   80  TRP80       0.0012
     42  CZ2       64.1660    1.6170   30.5760 C.ar   80  TRP80       0.0191
     43  CZ3       64.9510    2.0660   28.3330 C.ar   80  TRP80       0.0001
     44  CH2       64.8700    1.2410   29.4630 C.ar   80  TRP80       0.0015
     45  N         65.6330    6.1470   27.9400 N.am   81  ARG81      -0.1980
     46  CA        66.9340    5.4770   27.8940 C.3    81  ARG81       0.1597
     47  C         68.0550    6.3320   28.4870 C.2    81  ARG81       0.2287
     48  O         68.9440    5.8060   29.1680 O.2    81  ARG81      -0.2864
     49  CB        67.2980    5.0100   26.4760 C.3    81  ARG81       0.0334
     50  CG        68.4290    3.9700   26.4630 C.3    81  ARG81       0.0492
     51  CD        68.8380    3.5340   25.0550 C.3    81  ARG81       0.2205
     52  NE        69.5980    4.5610   24.3430 N.pl3  81  ARG81      -0.0865
     53  CZ        70.2760    4.3400   23.2210 C.cat  81  ARG81       0.5346
     54  NH1       70.2980    3.1230   22.6860 N.pl3  81  ARG81       0.1354
     55  NH2       70.9370    5.3320   22.6380 N.pl3  81  ARG81       0.1354
     56  N         67.7720    6.0460   32.1140 N.3    84  MET84      -0.1230
     57  CA        68.3350    4.7830   32.5770 C.3    84  MET84       0.1702
     58  C         69.8740    4.8660   32.6150 C.2    84  MET84       0.2592
     59  O         70.5060    4.4280   33.5860 O.2    84  MET84      -0.2718
     60  CB        67.8260    3.6350   31.6990 C.3    84  MET84       0.0401
     61  CG        68.3680    2.2530   32.0420 C.3    84  MET84       0.0596
     62  SD        69.8910    1.8360   31.1400 S.3    84  MET84      -0.1393
     63  CE        69.3190    1.7460   29.4380 C.3    84  MET84       0.0692
     64  N         70.4670    5.4610   31.5760 N.am   85  TYR85      -0.1976
     65  CA        71.9140    5.7080   31.5490 C.3    85  TYR85       0.1639
     66  C         72.3830    6.4870   32.7810 C.2    85  TYR85       0.2290
     67  O         73.4890    6.2700   33.2780 O.2    85  TYR85      -0.2864
     68  CB        72.3500    6.4700   30.2870 C.3    85  TYR85       0.0560
     69  CG        72.3450    5.6780   28.9900 C.ar   85  TYR85      -0.0198
     70  CD1       71.9520    4.3420   28.9550 C.ar   85  TYR85      -0.0009
     71  CD2       72.7460    6.2760   27.7930 C.ar   85  TYR85      -0.0009
     72  CE1       71.9460    3.6250   27.7550 C.ar   85  TYR85       0.0417
     73  CE2       72.7450    5.5690   26.5930 C.ar   85  TYR85       0.0417
     74  CZ        72.3470    4.2480   26.5810 C.ar   85  TYR85       0.1957
     75  OH        72.3510    3.5490   25.3930 O.3    85  TYR85      -0.2866
     76  N         74.6580   -6.2430   30.6580 N.3   120  TYR120     -0.1241
     77  CA        75.5910   -5.4060   29.9070 C.3   120  TYR120      0.1605
     78  C         76.3490   -4.3780   30.7450 C.2   120  TYR120      0.2264
     79  O         77.0940   -3.5750   30.1910 O.2   120  TYR120     -0.2867
     80  CB        74.8920   -4.6970   28.7410 C.3   120  TYR120      0.0534
     81  CG        73.6480   -3.9030   29.1200 C.ar  120  TYR120     -0.0201
     82  CD1       73.7480   -2.6610   29.7530 C.ar  120  TYR120     -0.0009
     83  CD2       72.3780   -4.3880   28.8300 C.ar  120  TYR120     -0.0009
     84  CE1       72.6170   -1.9320   30.0850 C.ar  120  TYR120      0.0417
     85  CE2       71.2340   -3.6620   29.1610 C.ar  120  TYR120      0.0417
     86  CZ        71.3600   -2.4390   29.7860 C.ar  120  TYR120      0.1957
     87  OH        70.2280   -1.7150   30.1080 O.3   120  TYR120     -0.2866
     88  N         78.6260   -5.3190   23.5980 N.3   158  TYR158     -0.1241
     89  CA        78.1260   -3.9800   23.3690 C.3   158  TYR158      0.1605
     90  C         79.3530   -3.1820   22.9860 C.2   158  TYR158      0.2264
     91  O         80.3030   -3.0940   23.7680 O.2   158  TYR158     -0.2867
     92  CB        77.5230   -3.4340   24.6670 C.3   158  TYR158      0.0534
     93  CG        76.5810   -2.2640   24.4910 C.ar  158  TYR158     -0.0201
     94  CD1       75.3150   -2.2760   25.0730 C.ar  158  TYR158     -0.0009
     95  CD2       76.9560   -1.1470   23.7540 C.ar  158  TYR158     -0.0009
     96  CE1       74.4430   -1.2050   24.9040 C.ar  158  TYR158      0.0417
     97  CE2       76.1030   -0.0740   23.5860 C.ar  158  TYR158      0.0417
     98  CZ        74.8420   -0.1070   24.1580 C.ar  158  TYR158      0.1957
     99  OH        73.9880    0.9670   23.9840 O.3   158  TYR158     -0.2866
    100  N         73.9130   -6.9770   22.1370 N.3   205  HIS205     -0.1241
    101  CA        72.9270   -6.0500   22.6660 C.3   205  HIS205      0.1621
    102  C         71.8120   -5.7760   21.6680 C.2   205  HIS205      0.2264
    103  O         70.6300   -5.8340   22.0140 O.2   205  HIS205     -0.2867
    104  CB        73.5370   -4.7170   23.0720 C.3   205  HIS205      0.0745
    105  CG        72.5230   -3.7680   23.6260 C.ar  205  HIS205      0.0817
    106  ND1       71.8890   -2.8210   22.8490 N.ar  205  HIS205     -0.2268
    107  CD2       71.9940   -3.6530   24.8710 C.ar  205  HIS205      0.1154
    108  CE1       71.0320   -2.1470   23.5980 C.ar  205  HIS205      0.1986
    109  NE2       71.0790   -2.6290   24.8280 N.ar  205  HIS205     -0.2212
    110  N         72.3080   -2.2600   16.5400 N.3   208  ARG208     -0.1245
    111  CA        72.8720   -0.9140   16.6680 C.3   208  ARG208      0.1563
    112  C         74.2110   -0.9580   17.3980 C.2   208  ARG208      0.2260
    113  O         75.1030   -0.1660   17.1200 O.2   208  ARG208     -0.2867
    114  CB        71.9290   -0.0080   17.4660 C.3   208  ARG208      0.0307
    115  CG        70.5750    0.2650   16.8260 C.3   208  ARG208      0.0489
    116  CD        69.5800    0.7990   17.8680 C.3   208  ARG208      0.2205
    117  NE        68.9120   -0.2640   18.6360 N.pl3 208  ARG208     -0.0865
    118  CZ        68.9620   -0.4060   19.9660 C.cat 208  ARG208      0.5346
    119  NH1       69.6630    0.4370   20.7220 N.pl3 208  ARG208      0.1354
    120  NH2       68.3020   -1.4000   20.5510 N.pl3 208  ARG208      0.1354
    121  N         68.4440   -7.9470   21.3920 N.3   231  HIS231     -0.1241
    122  CA        67.3020   -7.0270   21.2920 C.3   231  HIS231      0.1621
    123  C         67.1210   -6.7530   19.8020 C.2   231  HIS231      0.2264
    124  O         68.0850   -6.3790   19.1280 O.2   231  HIS231     -0.2867
    125  CB        67.5960   -5.6630   21.9270 C.3   231  HIS231      0.0745
    126  CG        67.6210   -5.6440   23.4310 C.ar  231  HIS231      0.0817
    127  ND1       68.7030   -5.1720   24.1450 N.ar  231  HIS231     -0.2268
    128  CD2       66.6700   -5.9430   24.3480 C.ar  231  HIS231      0.1154
    129  CE1       68.4310   -5.2150   25.4390 C.ar  231  HIS231      0.1986
    130  NE2       67.2060   -5.6870   25.5890 N.ar  231  HIS231     -0.2212
    131  N         62.6400   -3.3670   18.3680 N.3   234  GLU234     -0.1245
    132  CA        61.7690   -2.9100   19.4480 C.3   234  GLU234      0.1567
    133  C         61.0300   -1.6110   19.1050 C.2   234  GLU234      0.2260
    134  O         59.8330   -1.4660   19.3760 O.2   234  GLU234     -0.2867
    135  CB        62.5740   -2.7200   20.7410 C.3   234  GLU234      0.0388
    136  CG        61.6950   -2.4420   21.9360 C.3   234  GLU234      0.1160
    137  CD        62.4840   -2.2320   23.2210 C.2   234  GLU234      0.3649
    138  OE1       63.7290   -2.2670   23.1780 O.co2 234  GLU234     -0.2457
    139  OE2       61.8580   -2.0380   24.2780 O.co2 234  GLU234     -0.2457
    140  N         61.8140   -8.8300   22.0700 N.3   268  HIS268     -0.1241
    141  CA        60.8300   -7.8800   21.5470 C.3   268  HIS268      0.1621
    142  C         60.3480   -8.2390   20.1410 C.2   268  HIS268      0.2264
    143  O         59.2020   -8.6480   19.9690 O.2   268  HIS268     -0.2867
    144  CB        61.3020   -6.4250   21.5930 C.3   268  HIS268      0.0745
    145  CG        61.8140   -5.9920   22.9290 C.ar  268  HIS268      0.0817
    146  ND1       61.0320   -5.9900   24.0640 N.ar  268  HIS268     -0.2268
    147  CD2       63.0360   -5.5400   23.3090 C.ar  268  HIS268      0.1154
    148  CE1       61.7490   -5.5590   25.0870 C.ar  268  HIS268      0.1986
    149  NE2       62.9680   -5.2760   24.6550 N.ar  268  HIS268     -0.2212
    150  N         56.7900   -4.1280   29.8610 N.3   293  THR293     -0.1218
    151  CA        57.8250   -3.1470   29.5580 C.3   293  THR293      0.1862
    152  C         57.5570   -2.5180   28.1870 C.2   293  THR293      0.2287
    153  O         57.6690   -1.3020   28.0120 O.2   293  THR293     -0.2866
    154  CB        59.2460   -3.7670   29.6450 C.3   293  THR293      0.1770
    155  OG1       59.5830   -3.9780   31.0250 O.3   293  THR293     -0.2211
    156  CG2       60.2840   -2.8370   29.0240 C.3   293  THR293      0.0375
    157  N         57.0200    1.3680   27.6760 N.3   297  LEU297     -0.1245
    158  CA        57.9090    2.1590   26.8140 C.3   297  LEU297      0.1561
    159  C         57.2490    2.6070   25.5080 C.2   297  LEU297      0.2260
    160  O         57.8810    3.2860   24.6950 O.2   297  LEU297     -0.2867
    161  CB        59.1900    1.3700   26.5040 C.3   297  LEU297      0.0270
    162  CG        60.0580    1.0090   27.7090 C.3   297  LEU297      0.0019
    163  CD1       61.2860    0.2120   27.2640 C.3   297  LEU297      0.0001
    164  CD2       60.4640    2.2660   28.5070 C.3   297  LEU297      0.0001
    165  N         62.0350   -7.8020   31.7120 N.3   319  ASP319     -0.1225
    166  CA        62.8230   -6.7310   31.0860 C.3   319  ASP319      0.1805
    167  C         63.2460   -5.5800   32.0240 C.2   319  ASP319      0.2598
    168  O         64.2210   -5.7070   32.7690 O.2   319  ASP319     -0.2718
    169  CB        62.0790   -6.1920   29.8500 C.3   319  ASP319      0.1424
    170  CG        62.9700   -5.3620   28.9440 C.2   319  ASP319      0.3668
    171  OD1       64.1740   -5.2530   29.2330 O.co2 319  ASP319     -0.2456
    172  OD2       62.4720   -4.8320   27.9320 O.co2 319  ASP319     -0.2456
    173  N         62.5240   -4.4600   31.9760 N.am  320  SER320     -0.1952
    174  CA        62.8090   -3.3100   32.8470 C.3   320  SER320      0.1924
    175  C         62.2460   -3.5010   34.2560 C.2   320  SER320      0.2314
    176  O         62.4980   -2.6950   35.1600 O.2   320  SER320     -0.2863
    177  CB        62.2390   -2.0180   32.2490 C.3   320  SER320      0.2116
    178  OG        60.8270   -1.9630   32.4080 O.3   320  SER320     -0.2180
@<TRIPOS>BOND
     1   110   111    1
     2   111   112    1
     3   111   114    1
     4   115   114    1
     5   115   116    1
     6   113   112    2
     7   116   117    1
     8   131   132    1
     9   117   118    2
    10   133   134    2
    11   133   132    1
    12   124   123    2
    13   132   135    1
    14   123   122    1
    15   118   120    1
    16   118   119    1
    17   143   142    2
    18   142   141    1
    19   135   136    1
    20   122   121    1
    21   122   125    1
    22   141   144    1
    23   141   140    1
    24   144   145    1
    25   102   103    2
    26   102   101    1
    27   125   126    1
    28   136   137    1
    29   100   101    1
    30    55    53    1
    31   101   104    1
    32    54    53    1
    33   106   108   ar
    34   106   105   ar
    35   145   147   ar
    36   145   146   ar
    37    90    89    1
    38    90    91    2
    39   104   105    1
    40   138   137   ar
    41    27    29   ar
    42    27    25   ar
    43    53    52    2
    44   137   139   ar
    45   147   149   ar
    46    29    30   ar
    47    89    88    1
    48    89    92    1
    49    24    25    1
    50    24    21    1
    51   126   127   ar
    52   126   128   ar
    53    25    26   ar
    54    97    95   ar
    55    97    98   ar
    56   108   109   ar
    57   105   107   ar
    58    95    93   ar
    59    30    28   ar
    60    99    98    1
    61   146   148   ar
    62    26    28   ar
    63   127   129   ar
    64    98    96   ar
    65    20    21    1
    66    52    51    1
    67   128   130   ar
    68    93    92    1
    69    93    94   ar
    70    21    22    1
    71   149   148   ar
    72   160   159    2
    73    22    23    2
    74   109   107   ar
    75    96    94   ar
    76    51    50    1
    77    75    74    1
    78   129   130   ar
    79   159   158    1
    80    50    49    1
    81    49    46    1
    82   161   158    1
    83   161   162    1
    84    74    73   ar
    85    74    72   ar
    86    73    71   ar
    87   158   157    1
    88   163   162    1
    89   162   164    1
    90    72    70   ar
    91    71    69   ar
    92    46    45    1
    93    46    47    1
    94   172   170   ar
    95    45    33   am
    96    31    32    1
    97   153   152    2
    98   152   151    1
    99    41    43   ar
   100    41    38   ar
   101    43    44   ar
   102    47    48    2
   103    80    81    1
   104    80    77    1
   105    83    81   ar
   106    83    85   ar
   107    10     9   ar
   108    10     8   ar
   109    35    32    1
   110    35    36    1
   111   170   171   ar
   112   170   169    1
   113     9     7   ar
   114    70    69   ar
   115    69    68    1
   116   156   154    1
   117    32    33    1
   118    33    34    2
   119    81    82   ar
   120    85    86   ar
   121    38    36   ar
   122    38    40   ar
   123    63    62    1
   124    44    42   ar
   125   151   154    1
   126   151   150    1
   127   154   155    1
   128    36    37   ar
   129    82    84   ar
   130    86    84   ar
   131    86    87    1
   132   169   166    1
   133    77    76    1
   134    77    78    1
   135     8     6   ar
   136    79    78    2
   137     7     6   ar
   138    68    65    1
   139    40    42   ar
   140    40    39   ar
   141     6     5    1
   142    37    39   ar
   143   166   165    1
   144   166   167    1
   145    62    61    1
   146    19    17   am
   147    65    64    1
   148    65    66    1
   149    64    58   am
   150    60    61    1
   151    60    57    1
   152   173   167   am
   153   173   174    1
   154    18    17    2
   155   167   168    2
   156    56    57    1
   157   177   178    1
   158   177   174    1
   159    17    16    1
   160     5     2    1
   161    57    58    1
   162    58    59    2
   163    66    67    2
   164   174   175    1
   165     1     2    1
   166     2     3    1
   167    16    15    1
   168   175   176    2
   169     3     4    2
   170    15    12    1
   171    12    11    1
   172    12    13    1
   173    13    14    2
