@<TRIPOS>MOLECULE
tmp/4rdwA00.pdb
 178 173 0 0 0
SMALL
GASTEIGER

@<TRIPOS>ATOM
      1  N         15.1840  -11.8670  -24.8950 N.3    57  HIS57      -0.1241
      2  CA        16.6470  -11.7190  -24.7460 C.3    57  HIS57       0.1621
      3  C         16.8290  -10.8350  -23.5220 C.2    57  HIS57       0.2264
      4  O         16.7750   -9.6030  -23.6160 O.2    57  HIS57      -0.2867
      5  CB        17.3140  -11.0700  -25.9690 C.3    57  HIS57       0.0745
      6  CG        16.8290  -11.6000  -27.2800 C.ar   57  HIS57       0.0817
      7  ND1       16.9480  -12.9280  -27.6430 N.ar   57  HIS57      -0.2268
      8  CD2       16.2040  -10.9820  -28.3100 C.ar   57  HIS57       0.1154
      9  CE1       16.4190  -13.1000  -28.8410 C.ar   57  HIS57       0.1986
     10  NE2       15.9600  -11.9370  -29.2670 N.ar   57  HIS57      -0.2212
     11  N         18.5290   -7.2680  -22.8690 N.3    60  GLN60      -0.1245
     12  CA        18.0410   -6.0850  -23.5740 C.3    60  GLN60       0.1566
     13  C         17.1550   -5.1860  -22.7090 C.2    60  GLN60       0.2260
     14  O         17.0190   -3.9970  -23.0040 O.2    60  GLN60      -0.2867
     15  CB        17.3630   -6.4760  -24.8980 C.3    60  GLN60       0.0367
     16  CG        18.3970   -7.0380  -25.8900 C.3    60  GLN60       0.0905
     17  CD        17.8070   -7.4440  -27.2350 C.2    60  GLN60       0.2608
     18  OE1       16.6630   -7.1030  -27.5610 O.2    60  GLN60      -0.2717
     19  NE2       18.5870   -8.1900  -28.0240 N.am   60  GLN60      -0.0878
     20  N         16.1880   -0.8190  -37.7160 N.3    77  PHE77      -0.1241
     21  CA        16.6070   -1.9860  -36.9580 C.3    77  PHE77       0.1605
     22  C         18.1280   -2.1670  -36.9610 C.2    77  PHE77       0.2264
     23  O         18.7120   -2.6060  -35.9700 O.2    77  PHE77      -0.2867
     24  CB        15.9270   -3.2330  -37.5370 C.3    77  PHE77       0.0534
     25  CG        16.5370   -4.5180  -37.0800 C.ar   77  PHE77      -0.0203
     26  CD1       16.1430   -5.0980  -35.8900 C.ar   77  PHE77      -0.0042
     27  CD2       17.5060   -5.1500  -37.8420 C.ar   77  PHE77      -0.0042
     28  CE1       16.7060   -6.2810  -35.4650 C.ar   77  PHE77      -0.0003
     29  CE2       18.0730   -6.3300  -37.4200 C.ar   77  PHE77      -0.0003
     30  CZ        17.6740   -6.8980  -36.2320 C.ar   77  PHE77      -0.0000
     31  N         19.9040    0.3060  -34.6930 N.3    80  TRP80      -0.1227
     32  CA        19.5710   -0.1340  -33.3390 C.3    80  TRP80       0.1737
     33  C         20.4830   -1.2870  -32.9260 C.2    80  TRP80       0.2595
     34  O         20.9490   -1.3580  -31.7770 O.2    80  TRP80      -0.2718
     35  CB        18.1120   -0.5770  -33.2680 C.3    80  TRP80       0.0564
     36  CG        17.7500   -1.3160  -32.0250 C.ar   80  TRP80       0.0003
     37  CD1       17.2910   -0.7820  -30.8540 C.ar   80  TRP80       0.0946
     38  CD2       17.7950   -2.7320  -31.8290 C.ar   80  TRP80       0.0152
     39  NE1       17.0470   -1.7810  -29.9420 N.ar   80  TRP80      -0.2442
     40  CE2       17.3530   -2.9880  -30.5150 C.ar   80  TRP80       0.0810
     41  CE3       18.1680   -3.8110  -32.6370 C.ar   80  TRP80       0.0012
     42  CZ2       17.2770   -4.2730  -29.9890 C.ar   80  TRP80       0.0191
     43  CZ3       18.0780   -5.0890  -32.1140 C.ar   80  TRP80       0.0001
     44  CH2       17.6440   -5.3080  -30.8000 C.ar   80  TRP80       0.0015
     45  N         20.7300   -2.1870  -33.8750 N.am   81  ARG81      -0.1980
     46  CA        21.4910   -3.3980  -33.5870 C.3    81  ARG81       0.1597
     47  C         22.9120   -3.0560  -33.1730 C.2    81  ARG81       0.2287
     48  O         23.4910   -3.7290  -32.3210 O.2    81  ARG81      -0.2864
     49  CB        21.4960   -4.3610  -34.7820 C.3    81  ARG81       0.0334
     50  CG        22.1100   -5.7240  -34.4580 C.3    81  ARG81       0.0492
     51  CD        22.0470   -6.6870  -35.6390 C.3    81  ARG81       0.2205
     52  NE        23.1030   -6.4550  -36.6170 N.pl3  81  ARG81      -0.0865
     53  CZ        23.5080   -7.3660  -37.4980 C.cat  81  ARG81       0.5346
     54  NH1       22.9390   -8.5660  -37.5240 N.pl3  81  ARG81       0.1354
     55  NH2       24.4790   -7.0820  -38.3560 N.pl3  81  ARG81       0.1354
     56  N         22.8110   -2.1550  -29.5680 N.3    84  MET84      -0.1230
     57  CA        22.6640   -3.3680  -28.7790 C.3    84  MET84       0.1702
     58  C         24.0150   -4.0780  -28.6620 C.2    84  MET84       0.2592
     59  O         24.3950   -4.5330  -27.5850 O.2    84  MET84      -0.2718
     60  CB        21.5910   -4.2710  -29.3960 C.3    84  MET84       0.0401
     61  CG        21.2320   -5.5160  -28.6010 C.3    84  MET84       0.0596
     62  SD        22.3040   -6.9070  -29.0210 S.3    84  MET84      -0.1393
     63  CE        21.5310   -7.5340  -30.5210 C.3    84  MET84       0.0692
     64  N         24.7500   -4.1560  -29.7650 N.am   85  TYR85      -0.1976
     65  CA        26.0760   -4.7680  -29.7230 C.3    85  TYR85       0.1639
     66  C         27.0130   -4.0290  -28.7600 C.2    85  TYR85       0.2290
     67  O         27.8410   -4.6490  -28.0880 O.2    85  TYR85      -0.2864
     68  CB        26.7120   -4.8000  -31.1170 C.3    85  TYR85       0.0560
     69  CG        26.1830   -5.8540  -32.0730 C.ar   85  TYR85      -0.0198
     70  CD1       25.1890   -6.7600  -31.7020 C.ar   85  TYR85      -0.0009
     71  CD2       26.6870   -5.9360  -33.3610 C.ar   85  TYR85      -0.0009
     72  CE1       24.7190   -7.7150  -32.6070 C.ar   85  TYR85       0.0417
     73  CE2       26.2320   -6.8730  -34.2570 C.ar   85  TYR85       0.0417
     74  CZ        25.2560   -7.7610  -33.8860 C.ar   85  TYR85       0.1957
     75  OH        24.8290   -8.6820  -34.8120 O.3    85  TYR85      -0.2866
     76  N         21.8020  -16.0790  -26.5320 N.3   120  TYR120     -0.1241
     77  CA        22.9550  -16.1440  -27.4340 C.3   120  TYR120      0.1605
     78  C         24.2070  -15.4810  -26.8760 C.2   120  TYR120      0.2264
     79  O         25.2350  -15.4460  -27.5510 O.2   120  TYR120     -0.2867
     80  CB        22.6220  -15.5500  -28.8080 C.3   120  TYR120      0.0534
     81  CG        22.0400  -14.1520  -28.7670 C.ar  120  TYR120     -0.0201
     82  CD1       22.8390  -13.0450  -28.5020 C.ar  120  TYR120     -0.0009
     83  CD2       20.6910  -13.9430  -29.0100 C.ar  120  TYR120     -0.0009
     84  CE1       22.2960  -11.7670  -28.4650 C.ar  120  TYR120      0.0417
     85  CE2       20.1450  -12.6840  -28.9770 C.ar  120  TYR120      0.0417
     86  CZ        20.9440  -11.5990  -28.7070 C.ar  120  TYR120      0.1957
     87  OH        20.3780  -10.3450  -28.6850 O.3   120  TYR120     -0.2866
     88  N         24.8460  -19.6350  -33.2080 N.3   158  TYR158     -0.1241
     89  CA        25.1230  -18.3910  -33.9140 C.3   158  TYR158      0.1605
     90  C         26.5450  -18.5530  -34.4190 C.2   158  TYR158      0.2264
     91  O         27.4630  -18.7740  -33.6200 O.2   158  TYR158     -0.2867
     92  CB        25.0300  -17.2040  -32.9490 C.3   158  TYR158      0.0534
     93  CG        24.9120  -15.8500  -33.6140 C.ar  158  TYR158     -0.0201
     94  CD1       23.8400  -15.0120  -33.3360 C.ar  158  TYR158     -0.0009
     95  CD2       25.8750  -15.4010  -34.5140 C.ar  158  TYR158     -0.0009
     96  CE1       23.7280  -13.7680  -33.9400 C.ar  158  TYR158      0.0417
     97  CE2       25.7680  -14.1580  -35.1140 C.ar  158  TYR158      0.0417
     98  CZ        24.6930  -13.3510  -34.8300 C.ar  158  TYR158      0.1957
     99  OH        24.5760  -12.1140  -35.4290 O.3   158  TYR158     -0.2866
    100  N         19.8870  -18.8870  -34.4570 N.3   205  HIS205     -0.1241
    101  CA        19.5810  -17.4650  -34.3310 C.3   205  HIS205      0.1621
    102  C         18.6830  -16.9640  -35.4570 C.2   205  HIS205      0.2264
    103  O         17.6830  -16.2890  -35.2070 O.2   205  HIS205     -0.2867
    104  CB        20.8390  -16.6030  -34.2890 C.3   205  HIS205      0.0745
    105  CG        20.5260  -15.1470  -34.1680 C.ar  205  HIS205      0.0817
    106  ND1       20.3600  -14.3310  -35.2660 N.ar  205  HIS205     -0.2268
    107  CD2       20.2760  -14.3780  -33.0830 C.ar  205  HIS205      0.1154
    108  CE1       20.0630  -13.1090  -34.8610 C.ar  205  HIS205      0.1986
    109  NE2       19.9990  -13.1110  -33.5420 N.ar  205  HIS205     -0.2212
    110  N         20.4270  -15.9970  -41.3340 N.3   208  ARG208     -0.1245
    111  CA        21.6140  -15.1870  -41.5920 C.3   208  ARG208      0.1563
    112  C         22.8130  -15.7110  -40.8150 C.2   208  ARG208      0.2260
    113  O         23.9470  -15.6300  -41.2840 O.2   208  ARG208     -0.2867
    114  CB        21.3690  -13.7300  -41.1790 C.3   208  ARG208      0.0307
    115  CG        20.2880  -13.0070  -41.9860 C.3   208  ARG208      0.0489
    116  CD        19.9320  -11.6430  -41.3670 C.3   208  ARG208      0.2205
    117  NE        18.9190  -11.7260  -40.3060 N.pl3 208  ARG208     -0.0865
    118  CZ        19.1470  -11.4800  -39.0150 C.cat 208  ARG208      0.5346
    119  NH1       20.3600  -11.1370  -38.6000 N.pl3 208  ARG208      0.1354
    120  NH2       18.1580  -11.5720  -38.1330 N.pl3 208  ARG208      0.1354
    121  N         14.6230  -16.9770  -35.3710 N.3   231  HIS231     -0.1241
    122  CA        14.0950  -15.6950  -35.8620 C.3   231  HIS231      0.1621
    123  C         13.9690  -15.8400  -37.3730 C.2   231  HIS231      0.2264
    124  O         14.9240  -16.2780  -38.0320 O.2   231  HIS231     -0.2867
    125  CB        15.0990  -14.5390  -35.6790 C.3   231  HIS231      0.0745
    126  CG        15.3220  -14.0710  -34.2690 C.ar  231  HIS231      0.0817
    127  ND1       16.5770  -14.0860  -33.6920 N.ar  231  HIS231     -0.2268
    128  CD2       14.5080  -13.4550  -33.3730 C.ar  231  HIS231      0.1154
    129  CE1       16.5150  -13.5510  -32.4840 C.ar  231  HIS231      0.1986
    130  NE2       15.2730  -13.1520  -32.2680 N.ar  231  HIS231     -0.2212
    131  N         11.8060  -11.3250  -40.2000 N.3   234  GLU234     -0.1245
    132  CA        11.4360  -10.1520  -39.4090 C.3   234  GLU234      0.1567
    133  C         11.4870   -8.8450  -40.1970 C.2   234  GLU234      0.2260
    134  O         10.5670   -8.0310  -40.1070 O.2   234  GLU234     -0.2867
    135  CB        12.3320  -10.0330  -38.1780 C.3   234  GLU234      0.0388
    136  CG        11.9530   -8.8820  -37.2690 C.3   234  GLU234      0.1160
    137  CD        12.9120   -8.7130  -36.1090 C.2   234  GLU234      0.3649
    138  OE1       13.9510   -9.4020  -36.1060 O.co2 234  GLU234     -0.2457
    139  OE2       12.6340   -7.8970  -35.1940 O.co2 234  GLU234     -0.2457
    140  N          8.7490  -13.8930  -35.0360 N.3   268  HIS268     -0.1241
    141  CA         8.3510  -12.7980  -35.9380 C.3   268  HIS268      0.1621
    142  C          7.5720  -13.2970  -37.1520 C.2   268  HIS268      0.2264
    143  O          6.3550  -13.1130  -37.2230 O.2   268  HIS268     -0.2867
    144  CB         9.5280  -11.8980  -36.3560 C.3   268  HIS268      0.0745
    145  CG        10.3770  -11.4540  -35.2060 C.ar  268  HIS268      0.0817
    146  ND1        9.8690  -10.7570  -34.1300 N.ar  268  HIS268     -0.2268
    147  CD2       11.6990  -11.6190  -34.9590 C.ar  268  HIS268      0.1154
    148  CE1       10.8400  -10.5180  -33.2660 C.ar  268  HIS268      0.1986
    149  NE2       11.9630  -11.0280  -33.7460 N.ar  268  HIS268     -0.2212
    150  N          7.9200   -5.1150  -29.5840 N.3   293  THR293     -0.1218
    151  CA         9.2600   -5.0180  -30.1660 C.3   293  THR293      0.1862
    152  C          9.2150   -4.8190  -31.6790 C.2   293  THR293      0.2287
    153  O          9.9550   -4.0030  -32.2190 O.2   293  THR293     -0.2866
    154  CB        10.1400   -6.2280  -29.8010 C.3   293  THR293      0.1770
    155  OG1       10.4440   -6.1640  -28.4030 O.3   293  THR293     -0.2211
    156  CG2       11.4580   -6.1940  -30.5850 C.3   293  THR293      0.0375
    157  N         10.8520   -1.6810  -33.4410 N.3   297  LEU297     -0.1245
    158  CA        11.9160   -1.8440  -34.4250 C.3   297  LEU297      0.1561
    159  C         11.4790   -1.5380  -35.8580 C.2   297  LEU297      0.2260
    160  O         12.2950   -1.5790  -36.7800 O.2   297  LEU297     -0.2867
    161  CB        12.4970   -3.2570  -34.3270 C.3   297  LEU297      0.0270
    162  CG        13.1850   -3.5810  -33.0000 C.3   297  LEU297      0.0019
    163  CD1       13.7220   -5.0030  -33.0410 C.3   297  LEU297      0.0001
    164  CD2       14.3120   -2.5950  -32.6840 C.3   297  LEU297      0.0001
    165  N         10.5350  -10.1450  -26.1030 N.3   319  ASP319     -0.1225
    166  CA        11.6880   -9.9530  -26.9930 C.3   319  ASP319      0.1805
    167  C         12.7490   -8.9660  -26.4750 C.2   319  ASP319      0.2598
    168  O         13.5870   -9.3570  -25.6580 O.2   319  ASP319     -0.2718
    169  CB        11.2090   -9.5830  -28.3990 C.3   319  ASP319      0.1424
    170  CG        12.2910   -9.7220  -29.4460 C.2   319  ASP319      0.3668
    171  OD1       13.4020  -10.2240  -29.1350 O.co2 319  ASP319     -0.2456
    172  OD2       12.0210   -9.3480  -30.6010 O.co2 319  ASP319     -0.2456
    173  N         12.7220   -7.7170  -26.9500 N.am  320  SER320     -0.1952
    174  CA        13.6770   -6.6980  -26.4970 C.3   320  SER320      0.1924
    175  C         13.2670   -6.0710  -25.1710 C.2   320  SER320      0.2314
    176  O         14.0130   -5.2860  -24.5820 O.2   320  SER320     -0.2863
    177  CB        13.8450   -5.6050  -27.5500 C.3   320  SER320      0.2116
    178  OG        12.7030   -4.7560  -27.5620 O.3   320  SER320     -0.2180
@<TRIPOS>BOND
     1   115   116    1
     2   115   114    1
     3   111   110    1
     4   111   114    1
     5   111   112    1
     6   116   117    1
     7   113   112    2
     8   117   118    2
     9   131   132    1
    10   133   134    2
    11   133   132    1
    12   132   135    1
    13   118   119    1
    14   118   120    1
    15    55    53    1
    16   135   136    1
    17   124   123    2
    18    27    29   ar
    19    27    25   ar
    20    20    21    1
    21    24    25    1
    22    24    21    1
    23    54    53    1
    24    53    52    2
    25    29    30   ar
    26   123   122    1
    27   136   137    1
    28   143   142    2
    29   142   141    1
    30    25    26   ar
    31    22    21    1
    32    22    23    2
    33   160   159    2
    34    52    51    1
    35   144   141    1
    36   144   145    1
    37    30    28   ar
    38   137   138   ar
    39   137   139   ar
    40   141   140    1
    41    26    28   ar
    42   122   125    1
    43   122   121    1
    44   159   158    1
    45   125   126    1
    46    51    50    1
    47   102   103    2
    48   102   101    1
    49    99    98    1
    50   106   108   ar
    51   106   105   ar
    52   145   147   ar
    53   145   146   ar
    54    97    98   ar
    55    97    95   ar
    56   147   149   ar
    57   108   109   ar
    58    98    96   ar
    59    75    74    1
    60    49    50    1
    61    49    46    1
    62    31    32    1
    63    95    93   ar
    64   100   101    1
    65   158   161    1
    66   158   157    1
    67    90    89    1
    68    90    91    2
    69   101   104    1
    70   161   162    1
    71   104   105    1
    72   126   127   ar
    73   126   128   ar
    74    73    74   ar
    75    73    71   ar
    76   105   107   ar
    77   146   148   ar
    78    96    94   ar
    79    89    88    1
    80    89    92    1
    81    74    72   ar
    82    45    46    1
    83    45    33   am
    84   149   148   ar
    85   127   129   ar
    86    93    94   ar
    87    93    92    1
    88    46    47    1
    89   109   107   ar
    90   128   130   ar
    91    71    69   ar
    92    32    35    1
    93    32    33    1
    94    35    36    1
    95    47    48    2
    96   163   162    1
    97   162   164    1
    98    33    34    2
    99    41    43   ar
   100    41    38   ar
   101    72    70   ar
   102   129   130   ar
   103   153   152    2
   104    43    44   ar
   105    69    70   ar
   106    69    68    1
   107    36    38   ar
   108    36    37   ar
   109    38    40   ar
   110   152   151    1
   111    68    65    1
   112    37    39   ar
   113    44    42   ar
   114   172   170   ar
   115   156   154    1
   116    63    62    1
   117    40    42   ar
   118    40    39   ar
   119   151   154    1
   120   151   150    1
   121   154   155    1
   122    64    65    1
   123    64    58   am
   124    65    66    1
   125    56    57    1
   126   170   171   ar
   127   170   169    1
   128    60    57    1
   129    60    61    1
   130    10     9   ar
   131    10     8   ar
   132    62    61    1
   133    83    85   ar
   134    83    81   ar
   135    85    86   ar
   136     9     7   ar
   137    80    81    1
   138    80    77    1
   139    57    58    1
   140    81    82   ar
   141    66    67    2
   142    86    87    1
   143    86    84   ar
   144    58    59    2
   145    82    84   ar
   146   169   166    1
   147     8     6   ar
   148    19    17   am
   149     7     6   ar
   150   178   177    1
   151    18    17    2
   152    79    78    2
   153   177   174    1
   154    77    78    1
   155    77    76    1
   156     6     5    1
   157    17    16    1
   158   166   167    1
   159   166   165    1
   160   173   174    1
   161   173   167   am
   162   174   175    1
   163   167   168    2
   164     5     2    1
   165    16    15    1
   166   175   176    2
   167    15    12    1
   168     1     2    1
   169     2     3    1
   170     4     3    2
   171    12    11    1
   172    12    13    1
   173    14    13    2
