@<TRIPOS>MOLECULE
tmp/4rdxA00.pdb
 137 131 0 0 0
SMALL
GASTEIGER

@<TRIPOS>ATOM
      1  N         27.3880  151.2170  131.6650 N.3    69  GLU69      -0.1245
      2  CA        28.5050  150.3990  132.1360 C.3    69  GLU69       0.1567
      3  C         29.3220  149.8420  130.9720 C.2    69  GLU69       0.2260
      4  O         28.8600  149.8180  129.8330 O.2    69  GLU69      -0.2867
      5  CB        27.9990  149.2500  133.0110 C.3    69  GLU69       0.0388
      6  CG        26.9130  148.4050  132.3630 C.3    69  GLU69       0.1160
      7  CD        27.2650  146.9300  132.3170 C.2    69  GLU69       0.3649
      8  OE1       26.3360  146.0930  132.2970 O.co2  69  GLU69      -0.2457
      9  OE2       28.4710  146.6060  132.2980 O.co2  69  GLU69      -0.2457
     10  N         24.8550  157.8180  133.7060 N.3   100  ARG100     -0.1245
     11  CA        23.8540  157.3490  134.6640 C.3   100  ARG100      0.1563
     12  C         22.9600  158.4980  135.1260 C.2   100  ARG100      0.2260
     13  O         23.3320  159.6640  135.0160 O.2   100  ARG100     -0.2867
     14  CB        24.5260  156.6430  135.8490 C.3   100  ARG100      0.0307
     15  CG        25.1700  155.3210  135.4570 C.3   100  ARG100      0.0489
     16  CD        26.0210  154.7100  136.5560 C.3   100  ARG100      0.2205
     17  NE        26.7560  153.5550  136.0440 N.pl3 100  ARG100     -0.0865
     18  CZ        27.4850  152.7310  136.7900 C.cat 100  ARG100      0.5346
     19  NH1       27.5810  152.9210  138.0990 N.pl3 100  ARG100      0.1354
     20  NH2       28.1160  151.7100  136.2230 N.pl3 100  ARG100      0.1354
     21  N         21.4320  159.1620  138.2170 N.3   102  GLU102     -0.1245
     22  CA        21.2570  159.4190  139.6420 C.3   102  GLU102      0.1567
     23  C         21.7710  160.7970  140.0410 C.2   102  GLU102      0.2260
     24  O         22.6670  161.3490  139.4010 O.2   102  GLU102     -0.2867
     25  CB        21.9210  158.3270  140.4870 C.3   102  GLU102      0.0388
     26  CG        21.1000  157.0520  140.5970 C.3   102  GLU102      0.1160
     27  CD        21.5440  155.9800  139.6220 C.2   102  GLU102      0.3649
     28  OE1       22.6950  156.0510  139.1410 O.co2 102  GLU102     -0.2457
     29  OE2       20.7420  155.0640  139.3390 O.co2 102  GLU102     -0.2457
     30  N         32.2170  163.1600  143.5880 N.3   107  GLY107     -0.1210
     31  CA        32.6970  161.9710  142.9060 C.3   107  GLY107      0.1956
     32  C         31.6280  161.1570  142.2020 C.2   107  GLY107      0.2612
     33  O         31.8630  160.0070  141.8320 O.2   107  GLY107     -0.2717
     34  N         30.4510  161.7470  142.0180 N.am  108  ARG108     -0.1965
     35  CA        29.3440  161.0540  141.3660 C.3   108  ARG108      0.1729
     36  C         28.6270  161.9870  140.3970 C.2   108  ARG108      0.2616
     37  O         27.9580  162.9360  140.8060 O.2   108  ARG108     -0.2715
     38  CB        28.3600  160.5050  142.4020 C.3   108  ARG108      0.0348
     39  CG        27.2640  159.6300  141.8210 C.3   108  ARG108      0.0492
     40  CD        26.2770  159.2050  142.8930 C.3   108  ARG108      0.2205
     41  NE        25.4870  158.0530  142.4730 N.pl3 108  ARG108     -0.0865
     42  CZ        24.6520  157.3880  143.2640 C.cat 108  ARG108      0.5346
     43  NH1       24.4890  157.7610  144.5260 N.pl3 108  ARG108      0.1354
     44  NH2       23.9790  156.3470  142.7920 N.pl3 108  ARG108      0.1354
     45  N         28.7680  161.7040  139.1080 N.am  109  TYR109     -0.1974
     46  CA        28.2250  162.5740  138.0760 C.3   109  TYR109      0.1639
     47  C         27.2850  161.8110  137.1490 C.2   109  TYR109      0.2290
     48  O         27.0960  160.6020  137.3070 O.2   109  TYR109     -0.2864
     49  CB        29.3710  163.2200  137.2950 C.3   109  TYR109      0.0560
     50  CG        30.5160  163.6600  138.1820 C.ar  109  TYR109     -0.0198
     51  CD1       30.4270  164.8160  138.9380 C.ar  109  TYR109     -0.0009
     52  CD2       31.6820  162.9150  138.2680 C.ar  109  TYR109     -0.0009
     53  CE1       31.4660  165.2200  139.7530 C.ar  109  TYR109      0.0417
     54  CE2       32.7250  163.3130  139.0820 C.ar  109  TYR109      0.0417
     55  CZ        32.6100  164.4670  139.8210 C.ar  109  TYR109      0.1957
     56  OH        33.6440  164.8690  140.6310 O.3   109  TYR109     -0.2866
     57  N         30.3890  160.4600  133.3870 N.3   112  PHE112     -0.1241
     58  CA        31.6820  160.2840  134.0340 C.3   112  PHE112      0.1605
     59  C         32.5660  159.4260  133.1440 C.2   112  PHE112      0.2264
     60  O         32.1260  158.9870  132.0930 O.2   112  PHE112     -0.2867
     61  CB        31.5140  159.6840  135.4350 C.3   112  PHE112      0.0534
     62  CG        30.8980  158.3130  135.4470 C.ar  112  PHE112     -0.0203
     63  CD1       29.5250  158.1460  135.3670 C.ar  112  PHE112     -0.0042
     64  CD2       31.6940  157.1910  135.5600 C.ar  112  PHE112     -0.0042
     65  CE1       28.9630  156.8820  135.3790 C.ar  112  PHE112     -0.0003
     66  CE2       31.1360  155.9270  135.5760 C.ar  112  PHE112     -0.0003
     67  CZ        29.7690  155.7730  135.4880 C.ar  112  PHE112     -0.0000
     68  N         35.2760  156.0670  132.7140 N.3   114  GLN114     -0.1245
     69  CA        35.6640  154.8040  133.3190 C.3   114  GLN114      0.1566
     70  C         36.7990  154.1320  132.5680 C.2   114  GLN114      0.2260
     71  O         36.9530  154.3050  131.3530 O.2   114  GLN114     -0.2867
     72  CB        34.4650  153.8550  133.3740 C.3   114  GLN114      0.0367
     73  CG        33.9490  153.5610  134.7680 C.3   114  GLN114      0.0905
     74  CD        32.7340  152.6540  134.7450 C.2   114  GLN114      0.2608
     75  OE1       32.4460  152.0110  133.7340 O.2   114  GLN114     -0.2717
     76  NE2       32.0090  152.6020  135.8580 N.am  114  GLN114     -0.0878
     77  N         34.5410  154.5060  146.8040 N.3   269  ALA269     -0.1231
     78  CA        34.9770  153.4440  145.9020 C.3   269  ALA269      0.1694
     79  C         35.6350  154.0130  144.6460 C.2   269  ALA269      0.2592
     80  O         34.9710  154.6070  143.8000 O.2   269  ALA269     -0.2718
     81  CB        33.8140  152.5350  145.5350 C.3   269  ALA269      0.0304
     82  N         36.9480  153.8350  144.5490 N.am  270  LEU270     -0.1966
     83  CA        37.7240  154.2450  143.3850 C.3   270  LEU270      0.1728
     84  C         37.3860  153.3630  142.1860 C.2   270  LEU270      0.2617
     85  O         37.2360  153.8390  141.0510 O.2   270  LEU270     -0.2715
     86  CB        39.2120  154.1210  143.7040 C.3   270  LEU270      0.0311
     87  CG        40.0680  155.3860  143.7220 C.3   270  LEU270      0.0022
     88  CD1       39.3300  156.5470  144.3650 C.3   270  LEU270      0.0001
     89  CD2       41.3730  155.1090  144.4550 C.3   270  LEU270      0.0001
     90  N         37.2740  152.0680  142.4560 N.am  271  GLY271     -0.1940
     91  CA        36.9770  151.0860  141.4360 C.3   271  GLY271      0.2014
     92  C         36.5930  149.7590  142.0530 C.2   271  GLY271      0.2639
     93  O         36.8270  149.5220  143.2390 O.2   271  GLY271     -0.2714
     94  N         35.9970  148.8910  141.2470 N.am  272  GLY272     -0.1954
     95  CA        35.5640  147.5970  141.7290 C.3   272  GLY272      0.1869
     96  C         35.2870  146.6590  140.5780 C.2   272  GLY272      0.2309
     97  O         35.2290  147.0730  139.4210 O.2   272  GLY272     -0.2863
     98  N         36.2240  147.8910  136.8450 N.3   294  ALA294     -0.1231
     99  CA        36.0840  149.2360  136.3120 C.3   294  ALA294      0.1694
    100  C         36.4310  150.2380  137.4000 C.2   294  ALA294      0.2592
    101  O         36.1230  150.0130  138.5680 O.2   294  ALA294     -0.2718
    102  CB        34.6700  149.4680  135.8070 C.3   294  ALA294      0.0304
    103  N         37.1050  151.3240  137.0270 N.am  295  PHE295     -0.1962
    104  CA        37.3430  152.4100  137.9750 C.3   295  PHE295      0.1771
    105  C         37.0480  153.7920  137.3910 C.2   295  PHE295      0.2620
    106  O         37.0370  153.9700  136.1620 O.2   295  PHE295     -0.2715
    107  CB        38.7350  152.3320  138.6290 C.3   295  PHE295      0.0574
    108  CG        39.8800  152.7260  137.7360 C.ar  295  PHE295     -0.0200
    109  CD1       40.1300  154.0600  137.4330 C.ar  295  PHE295     -0.0042
    110  CD2       40.7550  151.7640  137.2610 C.ar  295  PHE295     -0.0042
    111  CE1       41.2020  154.4170  136.6330 C.ar  295  PHE295     -0.0003
    112  CE2       41.8310  152.1130  136.4670 C.ar  295  PHE295     -0.0003
    113  CZ        42.0550  153.4400  136.1520 C.ar  295  PHE295     -0.0000
    114  N         36.8020  154.7550  138.2790 N.am  296  GLY296     -0.1954
    115  CA        36.4270  156.0970  137.8670 C.3   296  GLY296      0.1869
    116  C         37.5900  157.0650  137.8210 C.2   296  GLY296      0.2309
    117  O         38.2070  157.3500  138.8490 O.2   296  GLY296     -0.2863
    118  N         37.6450  160.2540  137.4600 N.3   298  GLU298     -0.1231
    119  CA        37.3890  161.4060  138.3200 C.3   298  GLU298      0.1699
    120  C         37.7940  161.1490  139.7730 C.2   298  GLU298      0.2592
    121  O         38.5360  161.9380  140.3690 O.2   298  GLU298     -0.2718
    122  CB        35.9160  161.8230  138.2620 C.3   298  GLU298      0.0402
    123  CG        35.4910  162.5020  136.9730 C.3   298  GLU298      0.1161
    124  CD        35.1830  161.5110  135.8650 C.2   298  GLU298      0.3649
    125  OE1       35.1560  160.2930  136.1490 O.co2 298  GLU298     -0.2457
    126  OE2       34.9620  161.9510  134.7150 O.co2 298  GLU298     -0.2457
    127  N         37.3000  160.0510  140.3430 N.am  299  ARG299     -0.1980
    128  CA        37.5750  159.7320  141.7420 C.3   299  ARG299      0.1597
    129  C         39.0630  159.4770  141.9710 C.2   299  ARG299      0.2287
    130  O         39.6050  159.7920  143.0270 O.2   299  ARG299     -0.2864
    131  CB        36.7560  158.5250  142.1940 C.3   299  ARG299      0.0334
    132  CG        35.2550  158.7110  142.0260 C.3   299  ARG299      0.0492
    133  CD        34.4630  157.6610  142.7960 C.3   299  ARG299      0.2205
    134  NE        33.0240  157.8820  142.6700 N.pl3 299  ARG299     -0.0865
    135  CZ        32.0910  157.0450  143.1100 C.cat 299  ARG299      0.5346
    136  NH1       32.4380  155.9140  143.7120 N.pl3 299  ARG299      0.1354
    137  NH2       30.8070  157.3410  142.9430 N.pl3 299  ARG299      0.1354
@<TRIPOS>BOND
     1     4     3    2
     2     3     2    1
     3    71    70    2
     4     1     2    1
     5    60    59    2
     6     2     5    1
     7     8     7   ar
     8     9     7   ar
     9     7     6    1
    10     6     5    1
    11    70    69    1
    12    68    69    1
    13    59    58    1
    14    69    72    1
    15    72    73    1
    16    57    58    1
    17    10    11    1
    18    75    74    2
    19    58    61    1
    20    11    12    1
    21    11    14    1
    22   126   124   ar
    23    74    73    1
    24    74    76   am
    25    13    12    2
    26    63    65   ar
    27    63    62   ar
    28    65    67   ar
    29    61    62    1
    30    62    64   ar
    31    15    14    1
    32    15    16    1
    33    67    66   ar
    34    64    66   ar
    35   102    99    1
    36   124   125   ar
    37   124   123    1
    38    17    16    1
    39    17    18    2
    40   113   112   ar
    41   113   111   ar
    42   106   105    2
    43    20    18    1
    44    99    98    1
    45    99   100    1
    46   112   110   ar
    47   111   109   ar
    48    18    19    1
    49   123   122    1
    50   103   100   am
    51   103   104    1
    52    47    48    2
    53    47    46    1
    54   110   108   ar
    55    49    46    1
    56    49    50    1
    57   105   104    1
    58   105   114   am
    59   100   101    2
    60   109   108   ar
    61   118   119    1
    62   108   107    1
    63   116   115    1
    64   116   117    2
    65   115   114    1
    66   104   107    1
    67    46    45    1
    68    50    52   ar
    69    50    51   ar
    70    21    22    1
    71   122   119    1
    72    52    54   ar
    73   119   120    1
    74    51    53   ar
    75    54    55   ar
    76    45    36   am
    77    28    27   ar
    78    29    27   ar
    79    24    23    2
    80    97    96    2
    81    27    26    1
    82    22    23    1
    83    22    25    1
    84    53    55   ar
    85   120   127   am
    86   120   121    2
    87    55    56    1
    88   127   128    1
    89    36    37    2
    90    36    35    1
    91    25    26    1
    92    96    95    1
    93    85    84    2
    94    94    95    1
    95    94    92   am
    96    35    34    1
    97    35    38    1
    98    91    92    1
    99    91    90    1
   100   128   129    1
   101   128   131    1
   102    39    38    1
   103    39    40    1
   104    33    32    2
   105   129   130    2
   106    34    32   am
   107   132   131    1
   108   132   133    1
   109    92    93    2
   110    84    90   am
   111    84    83    1
   112    32    31    1
   113    41    40    1
   114    41    42    2
   115   134   133    1
   116   134   135    2
   117    44    42    1
   118    31    30    1
   119   137   135    1
   120   135   136    1
   121    42    43    1
   122    83    86    1
   123    83    82    1
   124    86    87    1
   125    87    88    1
   126    87    89    1
   127    80    79    2
   128    82    79   am
   129    79    78    1
   130    81    78    1
   131    78    77    1
