@<TRIPOS>MOLECULE
tmp/4rdyB00.pdb
 201 196 0 0 0
SMALL
GASTEIGER

@<TRIPOS>ATOM
      1  N       -103.4730   88.7710  -21.9270 N.3    23  HIS23      -0.1241
      2  CA      -102.2100   88.3360  -21.3260 C.3    23  HIS23       0.1621
      3  C       -101.0160   88.8830  -22.1150 C.2    23  HIS23       0.2264
      4  O       -100.6190   88.3040  -23.1570 O.2    23  HIS23      -0.2867
      5  CB      -102.1530   86.7860  -21.2520 C.3    23  HIS23       0.0745
      6  CG      -100.9630   86.2680  -20.4930 C.ar   23  HIS23       0.0817
      7  ND1     -101.0320   85.1760  -19.6360 N.ar   23  HIS23      -0.2268
      8  CD2      -99.6690   86.6900  -20.4490 C.ar   23  HIS23       0.1154
      9  CE1      -99.8480   84.9470  -19.1100 C.ar   23  HIS23       0.1986
     10  NE2      -99.0070   85.8440  -19.5820 N.ar   23  HIS23      -0.2212
     11  N        -97.2360   91.6260  -21.3820 N.3    25  HIS25      -0.1241
     12  CA       -96.3290   92.1970  -20.4150 C.3    25  HIS25       0.1621
     13  C        -95.8950   93.5550  -20.9540 C.2    25  HIS25       0.2264
     14  O        -95.9520   93.7940  -22.1880 O.2    25  HIS25      -0.2867
     15  CB       -95.1300   91.2550  -20.1730 C.3    25  HIS25       0.0745
     16  CG       -95.5540   89.9540  -19.5890 C.ar   25  HIS25       0.0817
     17  ND1      -95.8380   89.8260  -18.2570 N.ar   25  HIS25      -0.2268
     18  CD2      -95.8890   88.7750  -20.1610 C.ar   25  HIS25       0.1154
     19  CE1      -96.2420   88.5970  -18.0100 C.ar   25  HIS25       0.1986
     20  NE2      -96.3380   87.9500  -19.1530 N.ar   25  HIS25      -0.2212
     21  N        -90.7430   92.6230  -18.3110 N.3    28  LEU28      -0.1245
     22  CA       -90.5720   91.3890  -17.5480 C.3    28  LEU28       0.1561
     23  C        -89.1290   91.3610  -17.0700 C.2    28  LEU28       0.2260
     24  O        -88.1810   91.1550  -17.8460 O.2    28  LEU28      -0.2867
     25  CB       -90.9730   90.1680  -18.3380 C.3    28  LEU28       0.0270
     26  CG       -91.2830   88.9240  -17.4410 C.3    28  LEU28       0.0019
     27  CD1      -91.9190   87.8190  -18.2600 C.3    28  LEU28       0.0001
     28  CD2      -90.0010   88.3500  -16.8480 C.3    28  LEU28       0.0001
     29  N        -95.2090   84.7470   -8.7620 N.3    98  TYR98      -0.1241
     30  CA       -94.7180   83.9970   -9.8810 C.3    98  TYR98       0.1605
     31  C        -93.4870   83.1770   -9.4760 C.2    98  TYR98       0.2264
     32  O        -92.4300   83.6930   -9.2260 O.2    98  TYR98      -0.2867
     33  CB       -94.3260   84.9410  -11.0210 C.3    98  TYR98       0.0534
     34  CG       -94.0870   84.2280  -12.3310 C.ar   98  TYR98      -0.0201
     35  CD1      -92.9030   83.5840  -12.5640 C.ar   98  TYR98      -0.0009
     36  CD2      -95.0300   84.3000  -13.3790 C.ar   98  TYR98      -0.0009
     37  CE1      -92.6380   82.9420  -13.7610 C.ar   98  TYR98       0.0417
     38  CE2      -94.7930   83.6810  -14.5940 C.ar   98  TYR98       0.0417
     39  CZ       -93.5960   83.0270  -14.8060 C.ar   98  TYR98       0.1957
     40  OH       -93.3450   82.3650  -16.0050 O.3    98  TYR98      -0.2866
     41  N        -91.9190   78.8480  -10.2340 N.3   100  TYR100     -0.1241
     42  CA       -92.0180   77.4160  -10.6410 C.3   100  TYR100      0.1605
     43  C        -91.6280   76.3990   -9.5570 C.2   100  TYR100      0.2264
     44  O        -91.9210   75.1910   -9.7050 O.2   100  TYR100     -0.2867
     45  CB       -91.0930   77.1660  -11.8450 C.3   100  TYR100      0.0534
     46  CG       -91.3410   78.0150  -13.0940 C.ar  100  TYR100     -0.0201
     47  CD1      -92.4830   78.8180  -13.2590 C.ar  100  TYR100     -0.0009
     48  CD2      -90.4450   77.9840  -14.1490 C.ar  100  TYR100     -0.0009
     49  CE1      -92.7190   79.5690  -14.4370 C.ar  100  TYR100      0.0417
     50  CE2      -90.6610   78.7540  -15.2950 C.ar  100  TYR100      0.0417
     51  CZ       -91.7960   79.5250  -15.4590 C.ar  100  TYR100      0.1957
     52  OH       -91.9230   80.2270  -16.6330 O.3   100  TYR100     -0.2866
     53  N       -100.7860   80.7270  -15.2120 N.3   170  HIS170     -0.1241
     54  CA       -99.7180   80.2060  -16.0110 C.3   170  HIS170      0.1621
     55  C        -99.6700   78.6970  -15.7470 C.2   170  HIS170      0.2264
     56  O        -99.5290   78.2880  -14.5780 O.2   170  HIS170     -0.2867
     57  CB       -98.4120   80.8550  -15.5830 C.3   170  HIS170      0.0745
     58  CG       -97.1840   80.2410  -16.1630 C.ar  170  HIS170      0.0817
     59  ND1      -96.3680   80.9070  -17.0600 N.ar  170  HIS170     -0.2268
     60  CD2      -96.5970   79.0220  -15.9720 C.ar  170  HIS170      0.1154
     61  CE1      -95.3420   80.1390  -17.3960 C.ar  170  HIS170      0.1986
     62  NE2      -95.4370   79.0070  -16.7270 N.ar  170  HIS170     -0.2212
     63  N       -101.6680   79.1480  -21.0010 N.3   199  HIS199     -0.1241
     64  CA      -100.7230   78.5150  -21.8950 C.3   199  HIS199      0.1621
     65  C       -101.1770   77.2050  -22.4500 C.2   199  HIS199      0.2264
     66  O       -100.3810   76.4060  -22.9490 O.2   199  HIS199     -0.2867
     67  CB       -99.3270   78.4210  -21.2120 C.3   199  HIS199      0.0745
     68  CG       -98.8720   79.7240  -20.6930 C.ar  199  HIS199      0.0817
     69  ND1      -99.1380   80.9120  -21.3330 N.ar  199  HIS199     -0.2268
     70  CD2      -98.1780   80.0450  -19.5690 C.ar  199  HIS199      0.1154
     71  CE1      -98.6400   81.9070  -20.6280 C.ar  199  HIS199      0.1986
     72  NE2      -98.0130   81.3940  -19.5780 N.ar  199  HIS199     -0.2212
     73  N        -99.9740   82.6280  -26.4390 N.3   223  ARG223     -0.1245
     74  CA       -98.5870   82.7520  -26.7950 C.3   223  ARG223      0.1563
     75  C        -98.4070   82.7680  -28.3020 C.2   223  ARG223      0.2260
     76  O        -97.4170   82.2540  -28.8370 O.2   223  ARG223     -0.2867
     77  CB       -97.7370   81.6500  -26.1150 C.3   223  ARG223      0.0307
     78  CG       -97.5110   81.8580  -24.6120 C.3   223  ARG223      0.0489
     79  CD       -96.6810   80.7190  -23.9580 C.3   223  ARG223      0.2205
     80  NE       -95.9750   81.2180  -22.7080 N.pl3 223  ARG223     -0.0865
     81  CZ       -95.4220   80.4570  -21.7860 C.cat 223  ARG223      0.5346
     82  NH1      -94.7750   80.9930  -20.7220 N.pl3 223  ARG223      0.1354
     83  NH2      -95.4920   79.1880  -21.9100 N.pl3 223  ARG223      0.1354
     84  N        -94.8290   82.7190  -30.2320 N.3   226  LEU226     -0.1245
     85  CA       -93.7650   81.9520  -29.5880 C.3   226  LEU226      0.1561
     86  C        -93.7590   80.5640  -30.1640 C.2   226  LEU226      0.2260
     87  O        -94.2850   79.5830  -29.5850 O.2   226  LEU226     -0.2867
     88  CB       -94.0030   81.9220  -28.0590 C.3   226  LEU226      0.0270
     89  CG       -93.7420   83.2360  -27.3710 C.3   226  LEU226      0.0019
     90  CD1      -94.2420   83.1900  -25.9330 C.3   226  LEU226      0.0001
     91  CD2      -92.2340   83.5170  -27.3320 C.3   226  LEU226      0.0001
     92  N        -91.3470   78.5050  -30.5140 N.3   228  ILE228     -0.1231
     93  CA       -90.6840   77.4960  -29.7000 C.3   228  ILE228      0.1692
     94  C        -91.5830   76.7360  -28.7470 C.2   228  ILE228      0.2592
     95  O        -91.2600   75.5990  -28.3600 O.2   228  ILE228     -0.2718
     96  CB       -89.5500   78.0540  -28.8230 C.3   228  ILE228      0.0266
     97  CG1      -89.9300   79.3780  -28.2250 C.3   228  ILE228      0.0019
     98  CG2      -88.2660   78.1590  -29.6190 C.3   228  ILE228      0.0020
     99  CD1      -90.2200   79.2900  -26.7870 C.3   228  ILE228      0.0001
    100  N        -92.6960   77.3290  -28.3220 N.am  229  TYR229     -0.1976
    101  CA       -93.6490   76.5000  -27.6080 C.3   229  TYR229      0.1639
    102  C        -94.5970   75.7510  -28.5690 C.2   229  TYR229      0.2290
    103  O        -94.9190   74.5560  -28.3580 O.2   229  TYR229     -0.2864
    104  CB       -94.4240   77.3880  -26.6580 C.3   229  TYR229      0.0560
    105  CG       -93.6030   77.8730  -25.5100 C.ar  229  TYR229     -0.0198
    106  CD1      -93.3140   77.0670  -24.4320 C.ar  229  TYR229     -0.0009
    107  CD2      -93.1340   79.1460  -25.4960 C.ar  229  TYR229     -0.0009
    108  CE1      -92.5630   77.5530  -23.3510 C.ar  229  TYR229      0.0417
    109  CE2      -92.3770   79.6320  -24.4680 C.ar  229  TYR229      0.0417
    110  CZ       -92.0740   78.8520  -23.4180 C.ar  229  TYR229      0.1957
    111  OH       -91.3150   79.4700  -22.4730 O.3   229  TYR229     -0.2866
    112  N        -98.6420   87.1120  -25.0720 N.3   256  ASP256     -0.1239
    113  CA       -97.6800   87.0390  -23.9470 C.3   256  ASP256      0.1674
    114  C        -96.4160   87.8530  -24.2300 C.2   256  ASP256      0.2266
    115  O        -95.3040   87.5150  -23.7850 O.2   256  ASP256     -0.2867
    116  CB       -97.3310   85.5980  -23.6690 C.3   256  ASP256      0.1410
    117  CG       -96.7230   85.3730  -22.2900 C.2   256  ASP256      0.3668
    118  OD1      -96.8680   86.2220  -21.3800 O.co2 256  ASP256     -0.2456
    119  OD2      -96.1490   84.2240  -22.0530 O.co2 256  ASP256     -0.2456
    120  N        -93.4140   90.3450  -24.4280 N.3   258  CYS258     -0.1235
    121  CA       -92.5580   91.0330  -23.4410 C.3   258  CYS258      0.1677
    122  C        -91.6470   92.0610  -24.1730 C.2   258  CYS258      0.2270
    123  O        -90.6350   91.7010  -24.7780 O.2   258  CYS258     -0.2867
    124  CB       -91.6700   90.0570  -22.7110 C.3   258  CYS258      0.0956
    125  SG       -92.5580   88.8200  -21.7590 S.3   258  CYS258     -0.0801
    126  N        -87.5570   91.3980  -21.6430 N.3   261  ILE261     -0.1245
    127  CA       -87.5750   90.1570  -20.8520 C.3   261  ILE261      0.1561
    128  C        -86.1090   89.8540  -20.4880 C.2   261  ILE261      0.2260
    129  O        -85.2470   89.6580  -21.3760 O.2   261  ILE261     -0.2867
    130  CB       -88.2350   88.9530  -21.5400 C.3   261  ILE261      0.0252
    131  CG1      -88.0880   87.6540  -20.7210 C.3   261  ILE261      0.0019
    132  CG2      -87.7490   88.7750  -22.9550 C.3   261  ILE261      0.0019
    133  CD1      -89.0320   86.5570  -21.1360 C.3   261  ILE261      0.0001
    134  N        -84.6870   87.4340  -18.8640 N.3   263  TRP263     -0.1227
    135  CA       -84.2410   86.0810  -18.8180 C.3   263  TRP263      0.1737
    136  C        -83.2450   85.6810  -19.9000 C.2   263  TRP263      0.2595
    137  O        -82.5610   84.6630  -19.7650 O.2   263  TRP263     -0.2718
    138  CB       -85.4440   85.1200  -18.9390 C.3   263  TRP263      0.0564
    139  CG       -86.4750   85.2010  -17.8130 C.ar  263  TRP263      0.0003
    140  CD1      -86.5080   86.0850  -16.7550 C.ar  263  TRP263      0.0946
    141  CD2      -87.6300   84.4230  -17.7200 C.ar  263  TRP263      0.0152
    142  NE1      -87.6260   85.8320  -15.9640 N.ar  263  TRP263     -0.2442
    143  CE2      -88.3470   84.8440  -16.5520 C.ar  263  TRP263      0.0810
    144  CE3      -88.1770   83.4560  -18.5270 C.ar  263  TRP263      0.0012
    145  CZ2      -89.5340   84.2530  -16.1480 C.ar  263  TRP263      0.0191
    146  CZ3      -89.3590   82.8260  -18.1000 C.ar  263  TRP263      0.0001
    147  CH2      -90.0490   83.2740  -16.9350 C.ar  263  TRP263      0.0015
    148  N        -83.2860   86.3490  -21.0140 N.am  264  TYR264     -0.1976
    149  CA       -82.4530   86.0050  -22.1610 C.3   264  TYR264      0.1639
    150  C        -81.9080   87.2700  -22.7790 C.2   264  TYR264      0.2290
    151  O        -82.5910   88.3170  -22.7540 O.2   264  TYR264     -0.2864
    152  CB       -83.3070   85.3700  -23.2270 C.3   264  TYR264      0.0560
    153  CG       -83.8620   84.0050  -22.8250 C.ar  264  TYR264     -0.0198
    154  CD1      -83.0700   82.9090  -22.8370 C.ar  264  TYR264     -0.0009
    155  CD2      -85.1980   83.8430  -22.5140 C.ar  264  TYR264     -0.0009
    156  CE1      -83.5710   81.6580  -22.4920 C.ar  264  TYR264      0.0417
    157  CE2      -85.7110   82.5870  -22.1430 C.ar  264  TYR264      0.0417
    158  CZ       -84.8740   81.5150  -22.1700 C.ar  264  TYR264      0.1957
    159  OH       -85.3320   80.2650  -21.8130 O.3   264  TYR264     -0.2866
    160  N        -80.7120   86.8730  -28.4550 N.3   268  VAL268     -0.1231
    161  CA       -81.1910   85.4980  -28.3880 C.3   268  VAL268      0.1692
    162  C        -82.7130   85.4350  -28.6850 C.2   268  VAL268      0.2591
    163  O        -83.1460   84.5330  -29.3710 O.2   268  VAL268     -0.2718
    164  CB       -80.7990   84.8330  -27.0560 C.3   268  VAL268      0.0266
    165  CG1      -81.4840   83.4680  -26.8480 C.3   268  VAL268      0.0020
    166  CG2      -79.2570   84.6460  -26.9870 C.3   268  VAL268      0.0020
    167  N        -83.4840   86.3280  -28.1050 N.am  269  VAL269     -0.1980
    168  CA       -84.9450   86.3430  -28.3190 C.3   269  VAL269      0.1595
    169  C        -85.2100   86.5840  -29.8400 C.2   269  VAL269      0.2287
    170  O        -85.9550   85.8450  -30.4710 O.2   269  VAL269     -0.2864
    171  CB       -85.6070   87.4020  -27.4520 C.3   269  VAL269      0.0276
    172  CG1      -87.0850   87.5750  -27.7440 C.3   269  VAL269      0.0022
    173  CG2      -85.4580   87.1190  -25.9590 C.3   269  VAL269      0.0022
    174  N        -84.5270   83.6180  -32.0120 N.3   272  THR272     -0.1203
    175  CA       -85.2410   82.4040  -31.7290 C.3   272  THR272      0.1994
    176  C        -86.7380   82.6030  -32.0560 C.2   272  THR272      0.2617
    177  O        -87.3280   81.6940  -32.5960 O.2   272  THR272     -0.2717
    178  CB       -85.0880   82.0020  -30.2310 C.3   272  THR272      0.1784
    179  OG1      -83.6890   81.9150  -29.9410 O.3   272  THR272     -0.2211
    180  CG2      -85.7430   80.7090  -29.9390 C.3   272  THR272      0.0376
    181  N        -87.3120   83.7710  -31.7230 N.am  273  VAL273     -0.1979
    182  CA       -88.7500   84.0570  -31.9860 C.3   273  VAL273      0.1595
    183  C        -88.9270   85.3980  -32.6620 C.2   273  VAL273      0.2287
    184  O        -89.4160   86.3620  -32.1380 O.2   273  VAL273     -0.2864
    185  CB       -89.5860   83.8510  -30.7130 C.3   273  VAL273      0.0276
    186  CG1      -89.5680   82.3240  -30.3180 C.3   273  VAL273      0.0022
    187  CG2      -88.9860   84.6490  -29.5900 C.3   273  VAL273      0.0022
    188  N        -92.3480   87.3140  -32.8190 N.3   276  TRP276     -0.1241
    189  CA       -93.0960   87.5980  -31.6120 C.3   276  TRP276      0.1605
    190  C        -93.2400   89.0700  -31.4860 C.2   276  TRP276      0.2264
    191  O        -92.2540   89.7350  -31.3700 O.2   276  TRP276     -0.2867
    192  CB       -92.2630   87.0240  -30.4610 C.3   276  TRP276      0.0550
    193  CG       -92.9090   86.9910  -29.0910 C.ar  276  TRP276      0.0003
    194  CD1      -94.2260   86.7610  -28.7720 C.ar  276  TRP276      0.0946
    195  CD2      -92.1970   87.0800  -27.8590 C.ar  276  TRP276      0.0152
    196  NE1      -94.3720   86.7210  -27.4000 N.ar  276  TRP276     -0.2442
    197  CE2      -93.1460   86.9380  -26.8150 C.ar  276  TRP276      0.0810
    198  CE3      -90.8470   87.3680  -27.5290 C.ar  276  TRP276      0.0012
    199  CZ2      -92.7780   86.9620  -25.4700 C.ar  276  TRP276      0.0191
    200  CZ3      -90.4740   87.3630  -26.1850 C.ar  276  TRP276      0.0001
    201  CH2      -91.4520   87.1750  -25.1600 C.ar  276  TRP276      0.0015
@<TRIPOS>BOND
     1   188   189    1
     2   183   184    2
     3   183   182    1
     4   177   176    2
     5   176   175    1
     6   176   181   am
     7   174   175    1
     8   182   181    1
     9   182   185    1
    10   175   178    1
    11   189   190    1
    12   189   192    1
    13   190   191    2
    14   185   186    1
    15   185   187    1
    16    92    93    1
    17   170   169    2
    18   192   193    1
    19    84    85    1
    20   178   179    1
    21   178   180    1
    22    86    85    1
    23    86    87    2
    24   169   168    1
    25    93    96    1
    26    93    94    1
    27    98    96    1
    28    85    88    1
    29   163   162    2
    30   193   194   ar
    31   193   195   ar
    32    76    75    2
    33    96    97    1
    34   194   196   ar
    35    94    95    2
    36    94   100   am
    37   162   161    1
    38   162   167   am
    39   102   103    2
    40   102   101    1
    41   160   161    1
    42   161   164    1
    43   100   101    1
    44   168   167    1
    45   168   171    1
    46    75    74    1
    47    97    99    1
    48    88    89    1
    49   195   198   ar
    50   195   197   ar
    51   172   171    1
    52   101   104    1
    53   198   200   ar
    54   171   173    1
    55   196   197   ar
    56    89    91    1
    57    89    90    1
    58   164   166    1
    59   164   165    1
    60   197   199   ar
    61    74    73    1
    62    74    77    1
    63   104   105    1
    64   200   201   ar
    65    77    78    1
    66   105   107   ar
    67   105   106   ar
    68   107   109   ar
    69   199   201   ar
    70   112   113    1
    71   123   122    2
    72    78    79    1
    73   109   110   ar
    74   106   108   ar
    75   120   121    1
    76   114   113    1
    77   114   115    2
    78   122   121    1
    79    79    80    1
    80   113   116    1
    81   116   117    1
    82   121   124    1
    83   110   108   ar
    84   110   111    1
    85   152   153    1
    86   152   149    1
    87     4     3    2
    88   132   130    1
    89    66    65    2
    90   154   153   ar
    91   154   156   ar
    92   153   155   ar
    93   150   151    2
    94   150   149    1
    95   124   125    1
    96    80    81    2
    97   155   157   ar
    98   156   158   ar
    99    65    64    1
   100   117   119   ar
   101   117   118   ar
   102    14    13    2
   103   158   157   ar
   104   158   159    1
   105   149   148    1
   106     3     2    1
   107     1     2    1
   108    83    81    1
   109    64    67    1
   110    64    63    1
   111    81    82    1
   112   126   127    1
   113   130   127    1
   114   130   131    1
   115    11    12    1
   116   129   128    2
   117    69    68   ar
   118    69    71   ar
   119     2     5    1
   120     5     6    1
   121    67    68    1
   122   133   131    1
   123   148   136   am
   124    13    12    1
   125   127   128    1
   126    68    70   ar
   127    71    72   ar
   128     6     8   ar
   129     6     7   ar
   130     8    10   ar
   131    12    15    1
   132    15    16    1
   133    18    16   ar
   134    18    20   ar
   135   136   137    2
   136   136   135    1
   137     7     9   ar
   138    16    17   ar
   139    10     9   ar
   140    72    70   ar
   141    20    19   ar
   142   138   135    1
   143   138   139    1
   144   134   135    1
   145   144   146   ar
   146   144   141   ar
   147    25    22    1
   148    25    26    1
   149    21    22    1
   150    27    26    1
   151    17    19   ar
   152   146   147   ar
   153    24    23    2
   154   139   141   ar
   155   139   140   ar
   156   141   143   ar
   157    22    23    1
   158    26    28    1
   159    61    59   ar
   160    61    62   ar
   161    59    58   ar
   162   147   145   ar
   163   140   142   ar
   164    62    60   ar
   165    52    51    1
   166   143   145   ar
   167   143   142   ar
   168    58    60   ar
   169    58    57    1
   170    54    55    1
   171    54    57    1
   172    54    53    1
   173    40    39    1
   174    55    56    2
   175    51    50   ar
   176    51    49   ar
   177    50    48   ar
   178    39    38   ar
   179    39    37   ar
   180    38    36   ar
   181    49    47   ar
   182    48    46   ar
   183    37    35   ar
   184    36    34   ar
   185    47    46   ar
   186    46    45    1
   187    35    34   ar
   188    34    33    1
   189    45    42    1
   190    33    30    1
   191    42    41    1
   192    42    43    1
   193    30    31    1
   194    30    29    1
   195    44    43    2
   196    31    32    2
