@<TRIPOS>MOLECULE
tmp/4rdzB00.pdb
 201 196 0 0 0
SMALL
GASTEIGER

@<TRIPOS>ATOM
      1  N        281.3620   89.6870   24.4690 N.3    24  HIS24      -0.1241
      2  CA       280.1300   89.1080   23.8260 C.3    24  HIS24       0.1621
      3  C        278.8920   89.5710   24.6130 C.2    24  HIS24       0.2264
      4  O        278.4920   88.9330   25.5900 O.2    24  HIS24      -0.2867
      5  CB       280.2100   87.6430   23.6910 C.3    24  HIS24       0.0745
      6  CG       279.0530   87.0450   22.9350 C.ar   24  HIS24       0.0817
      7  ND1      279.1880   85.9610   22.0760 N.ar   24  HIS24      -0.2268
      8  CD2      277.7400   87.4240   22.8490 C.ar   24  HIS24       0.1154
      9  CE1      278.0190   85.7050   21.5210 C.ar   24  HIS24       0.1986
     10  NE2      277.1400   86.5550   21.9740 N.ar   24  HIS24      -0.2212
     11  N        274.9720   92.0830   23.9010 N.3    26  HIS26      -0.1241
     12  CA       274.0440   92.6250   22.9310 C.3    26  HIS26       0.1621
     13  C        273.4600   93.9450   23.4890 C.2    26  HIS26       0.2264
     14  O        273.4780   94.1830   24.6810 O.2    26  HIS26      -0.2867
     15  CB       272.9420   91.6150   22.6460 C.3    26  HIS26       0.0745
     16  CG       273.4320   90.3480   22.0340 C.ar   26  HIS26       0.0817
     17  ND1      273.6040   90.1940   20.6710 N.ar   26  HIS26      -0.2268
     18  CD2      273.8010   89.1840   22.5920 C.ar   26  HIS26       0.1154
     19  CE1      274.1260   89.0040   20.4260 C.ar   26  HIS26       0.1986
     20  NE2      274.2500   88.3700   21.5780 N.ar   26  HIS26      -0.2212
     21  N        268.2980   92.7550   20.8080 N.3    29  LEU29      -0.1245
     22  CA       268.2440   91.5530   19.9860 C.3    29  LEU29       0.1561
     23  C        266.7720   91.4890   19.4630 C.2    29  LEU29       0.2260
     24  O        265.8330   91.2470   20.2440 O.2    29  LEU29      -0.2867
     25  CB       268.5610   90.3730   20.8190 C.3    29  LEU29       0.0270
     26  CG       269.0240   89.2110   19.8710 C.3    29  LEU29       0.0019
     27  CD1      269.8750   88.1530   20.5000 C.3    29  LEU29       0.0001
     28  CD2      267.8500   88.5070   19.2040 C.3    29  LEU29       0.0001
     29  N        273.2240   85.3600   11.1730 N.3    99  TYR99      -0.1241
     30  CA       272.8750   84.5410   12.2910 C.3    99  TYR99       0.1605
     31  C        271.6760   83.6500   11.8750 C.2    99  TYR99       0.2264
     32  O        270.6090   84.1590   11.5800 O.2    99  TYR99      -0.2867
     33  CB       272.4430   85.3810   13.4630 C.3    99  TYR99       0.0534
     34  CG       272.2210   84.6910   14.7830 C.ar   99  TYR99      -0.0201
     35  CD1      271.1480   83.9380   15.0140 C.ar   99  TYR99      -0.0009
     36  CD2      273.1550   84.8300   15.8070 C.ar   99  TYR99      -0.0009
     37  CE1      270.9340   83.3110   16.2400 C.ar   99  TYR99       0.0417
     38  CE2      272.9980   84.2030   17.0020 C.ar   99  TYR99       0.0417
     39  CZ       271.8890   83.4290   17.2420 C.ar   99  TYR99       0.1957
     40  OH       271.6630   82.8430   18.4140 O.3    99  TYR99      -0.2866
     41  N        270.2660   79.2560   12.5010 N.3   101  TYR101     -0.1241
     42  CA       270.5340   77.8840   12.9040 C.3   101  TYR101      0.1605
     43  C        270.1600   76.8600   11.8540 C.2   101  TYR101      0.2264
     44  O        270.4220   75.6820   12.0480 O.2   101  TYR101     -0.2867
     45  CB       269.7350   77.5550   14.1560 C.3   101  TYR101      0.0534
     46  CG       269.9430   78.4100   15.3990 C.ar  101  TYR101     -0.0201
     47  CD1      271.0360   79.2460   15.5810 C.ar  101  TYR101     -0.0009
     48  CD2      269.0360   78.3090   16.4540 C.ar  101  TYR101     -0.0009
     49  CE1      271.1610   79.9820   16.7370 C.ar  101  TYR101      0.0417
     50  CE2      269.1840   79.0160   17.6750 C.ar  101  TYR101      0.0417
     51  CZ       270.2200   79.8870   17.7880 C.ar  101  TYR101      0.1957
     52  OH       270.3630   80.6160   18.9380 O.3   101  TYR101     -0.2866
     53  N        279.1110   81.4840   17.5440 N.3   171  HIS171     -0.1241
     54  CA       278.0670   80.9140   18.3710 C.3   171  HIS171      0.1621
     55  C        277.9950   79.4150   18.0470 C.2   171  HIS171      0.2264
     56  O        278.0100   79.0430   16.8740 O.2   171  HIS171     -0.2867
     57  CB       276.7130   81.5430   17.9600 C.3   171  HIS171      0.0745
     58  CG       275.5280   80.8680   18.5470 C.ar  171  HIS171      0.0817
     59  ND1      274.6660   81.5060   19.4020 N.ar  171  HIS171     -0.2268
     60  CD2      274.9760   79.6580   18.3090 C.ar  171  HIS171      0.1154
     61  CE1      273.6740   80.7000   19.7410 C.ar  171  HIS171      0.1986
     62  NE2      273.8340   79.5620   19.0790 N.ar  171  HIS171     -0.2212
     63  N        280.1550   79.8910   23.3190 N.3   200  HIS200     -0.1241
     64  CA       279.1940   79.1620   24.1560 C.3   200  HIS200      0.1621
     65  C        279.7280   77.8710   24.7130 C.2   200  HIS200      0.2264
     66  O        278.9900   77.0140   25.2120 O.2   200  HIS200     -0.2867
     67  CB       277.8320   79.0300   23.4600 C.3   200  HIS200      0.0745
     68  CG       277.3460   80.3420   22.9050 C.ar  200  HIS200      0.0817
     69  ND1      277.5780   81.5440   23.5260 N.ar  200  HIS200     -0.2268
     70  CD2      276.5820   80.6410   21.8100 C.ar  200  HIS200      0.1154
     71  CE1      276.9910   82.5330   22.8590 C.ar  200  HIS200      0.1986
     72  NE2      276.4060   82.0070   21.7980 N.ar  200  HIS200     -0.2212
     73  N        278.2970   83.1290   28.7210 N.3   224  ARG224     -0.1245
     74  CA       276.8580   83.1970   29.1020 C.3   224  ARG224      0.1563
     75  C        276.6870   83.1560   30.6100 C.2   224  ARG224      0.2260
     76  O        275.7350   82.6050   31.1430 O.2   224  ARG224     -0.2867
     77  CB       276.0760   82.1160   28.4000 C.3   224  ARG224      0.0307
     78  CG       275.8140   82.4300   26.9720 C.3   224  ARG224      0.0489
     79  CD       275.1140   81.2660   26.2360 C.3   224  ARG224      0.2205
     80  NE       274.3960   81.7500   25.0680 N.pl3 224  ARG224     -0.0865
     81  CZ       273.8640   80.9140   24.1740 C.cat 224  ARG224      0.5346
     82  NH1      273.2090   81.4340   23.1100 N.pl3 224  ARG224      0.1354
     83  NH2      273.9710   79.6000   24.3060 N.pl3 224  ARG224      0.1354
     84  N        273.1040   82.8650   32.5190 N.3   227  LEU227     -0.1245
     85  CA       272.1100   82.0620   31.8490 C.3   227  LEU227      0.1561
     86  C        272.1400   80.6380   32.4310 C.2   227  LEU227      0.2260
     87  O        272.7120   79.7290   31.8700 O.2   227  LEU227     -0.2867
     88  CB       272.3300   82.0620   30.3490 C.3   227  LEU227      0.0270
     89  CG       271.9410   83.2890   29.6020 C.3   227  LEU227      0.0019
     90  CD1      272.3370   83.2950   28.1790 C.3   227  LEU227      0.0001
     91  CD2      270.4200   83.5690   29.7000 C.3   227  LEU227      0.0001
     92  N        269.9140   78.4890   32.7350 N.3   229  ILE229     -0.1231
     93  CA       269.2160   77.5540   31.8570 C.3   229  ILE229      0.1692
     94  C        270.1440   76.7860   30.9130 C.2   229  ILE229      0.2592
     95  O        269.8320   75.7010   30.4810 O.2   229  ILE229     -0.2718
     96  CB       268.0800   78.2270   31.0340 C.3   229  ILE229      0.0266
     97  CG1      268.5470   79.4430   30.2550 C.3   229  ILE229      0.0019
     98  CG2      266.9690   78.6430   31.9720 C.3   229  ILE229      0.0020
     99  CD1      267.8590   79.6300   28.9280 C.3   229  ILE229      0.0001
    100  N        271.2860   77.3700   30.5770 N.am  230  TYR230     -0.1976
    101  CA       272.3060   76.6850   29.8260 C.3   230  TYR230      0.1639
    102  C        273.2910   75.9850   30.7530 C.2   230  TYR230      0.2290
    103  O        273.6040   74.8530   30.5370 O.2   230  TYR230     -0.2864
    104  CB       273.0060   77.6710   28.9250 C.3   230  TYR230      0.0560
    105  CG       272.2240   78.0240   27.6750 C.ar  230  TYR230     -0.0198
    106  CD1      272.1440   77.0770   26.6600 C.ar  230  TYR230     -0.0009
    107  CD2      271.6500   79.2870   27.4810 C.ar  230  TYR230     -0.0009
    108  CE1      271.4620   77.3420   25.4940 C.ar  230  TYR230      0.0417
    109  CE2      270.8770   79.5430   26.3260 C.ar  230  TYR230      0.0417
    110  CZ       270.8540   78.5720   25.3290 C.ar  230  TYR230      0.1957
    111  OH       270.1990   78.7180   24.1020 O.3   230  TYR230     -0.2866
    112  N        276.5850   87.5610   27.4920 N.3   257  ASP257     -0.1239
    113  CA       275.6340   87.4450   26.3630 C.3   257  ASP257      0.1674
    114  C        274.3720   88.2150   26.6820 C.2   257  ASP257      0.2266
    115  O        273.2650   87.8300   26.1820 O.2   257  ASP257     -0.2867
    116  CB       275.2790   85.9970   26.1010 C.3   257  ASP257      0.1410
    117  CG       274.8310   85.7130   24.6800 C.2   257  ASP257      0.3668
    118  OD1      274.8490   86.5830   23.7920 O.co2 257  ASP257     -0.2456
    119  OD2      274.3910   84.5560   24.4370 O.co2 257  ASP257     -0.2456
    120  N        271.1540   90.4540   26.8480 N.3   259  CYS259     -0.1235
    121  CA       270.2740   91.1660   25.9140 C.3   259  CYS259      0.1677
    122  C        269.3450   92.0700   26.6880 C.2   259  CYS259      0.2270
    123  O        268.3730   91.5650   27.3010 O.2   259  CYS259     -0.2867
    124  CB       269.4220   90.0990   25.2350 C.3   259  CYS259      0.0956
    125  SG       270.3950   88.9720   24.1420 S.3   259  CYS259     -0.0801
    126  N        265.2130   91.3380   24.2280 N.3   262  ILE262     -0.1245
    127  CA       265.3030   90.1880   23.3250 C.3   262  ILE262      0.1561
    128  C        263.8600   89.8020   22.8750 C.2   262  ILE262      0.2260
    129  O        262.9880   89.4580   23.7180 O.2   262  ILE262     -0.2867
    130  CB       266.0140   88.9900   23.9550 C.3   262  ILE262      0.0252
    131  CG1      265.9700   87.7470   23.0540 C.3   262  ILE262      0.0019
    132  CG2      265.4910   88.6850   25.3640 C.3   262  ILE262      0.0019
    133  CD1      266.9560   86.6660   23.3980 C.3   262  ILE262      0.0001
    134  N        262.6360   87.2930   21.2300 N.3   264  TRP264     -0.1227
    135  CA       262.3640   85.8690   21.1200 C.3   264  TRP264      0.1737
    136  C        261.3860   85.4620   22.2100 C.2   264  TRP264      0.2595
    137  O        260.6470   84.5280   22.0350 O.2   264  TRP264     -0.2718
    138  CB       263.6020   85.0460   21.1860 C.3   264  TRP264      0.0564
    139  CG       264.6100   85.2450   20.1470 C.ar  264  TRP264      0.0003
    140  CD1      264.5660   86.0430   19.0830 C.ar  264  TRP264      0.0946
    141  CD2      265.7940   84.4450   19.9920 C.ar  264  TRP264      0.0152
    142  NE1      265.6900   85.8470   18.2730 N.ar  264  TRP264     -0.2442
    143  CE2      266.4560   84.8910   18.8580 C.ar  264  TRP264      0.0810
    144  CE3      266.4070   83.4640   20.7880 C.ar  264  TRP264      0.0012
    145  CZ2      267.6480   84.3540   18.4340 C.ar  264  TRP264      0.0191
    146  CZ3      267.5960   82.9480   20.4120 C.ar  264  TRP264      0.0001
    147  CH2      268.2290   83.3930   19.2460 C.ar  264  TRP264      0.0015
    148  N        261.4220   86.1640   23.3450 N.am  265  TYR265     -0.1976
    149  CA       260.5700   85.8040   24.5150 C.3   265  TYR265      0.1639
    150  C        259.9410   87.0010   25.1300 C.2   265  TYR265      0.2290
    151  O        260.5030   88.0600   25.1480 O.2   265  TYR265     -0.2864
    152  CB       261.4020   85.0940   25.6610 C.3   265  TYR265      0.0560
    153  CG       261.9660   83.7800   25.2380 C.ar  265  TYR265     -0.0198
    154  CD1      261.1750   82.6670   25.2660 C.ar  265  TYR265     -0.0009
    155  CD2      263.2490   83.6690   24.7710 C.ar  265  TYR265     -0.0009
    156  CE1      261.6530   81.4230   24.8890 C.ar  265  TYR265      0.0417
    157  CE2      263.7430   82.4390   24.3600 C.ar  265  TYR265      0.0417
    158  CZ       262.9280   81.3560   24.3940 C.ar  265  TYR265      0.1957
    159  OH       263.3580   80.0900   24.0690 O.3   265  TYR265     -0.2866
    160  N        258.7510   86.3760   30.9510 N.3   269  VAL269     -0.1231
    161  CA       259.2720   85.0740   30.9330 C.3   269  VAL269      0.1692
    162  C        260.8340   85.0630   31.2000 C.2   269  VAL269      0.2591
    163  O        261.3230   84.1560   31.9440 O.2   269  VAL269     -0.2718
    164  CB       258.9600   84.4530   29.5830 C.3   269  VAL269      0.0266
    165  CG1      259.6820   83.1320   29.4000 C.3   269  VAL269      0.0020
    166  CG2      257.4220   84.3370   29.4650 C.3   269  VAL269      0.0020
    167  N        261.4910   86.0250   30.5860 N.am  270  VAL270     -0.1980
    168  CA       262.9550   86.1870   30.8020 C.3   270  VAL270      0.1595
    169  C        263.2200   86.4610   32.3120 C.2   270  VAL270      0.2287
    170  O        264.0050   85.7780   32.8990 O.2   270  VAL270     -0.2864
    171  CB       263.5670   87.2630   29.9440 C.3   270  VAL270      0.0276
    172  CG1      265.0360   87.4630   30.3500 C.3   270  VAL270      0.0022
    173  CG2      263.4730   86.9100   28.4400 C.3   270  VAL270      0.0022
    174  N        262.6740   83.4040   34.4680 N.3   273  THR273     -0.1203
    175  CA       263.4320   82.2280   34.2410 C.3   273  THR273      0.1994
    176  C        264.9170   82.4470   34.5970 C.2   273  THR273      0.2617
    177  O        265.5330   81.5200   35.1170 O.2   273  THR273     -0.2717
    178  CB       263.3080   81.8300   32.7220 C.3   273  THR273      0.1784
    179  OG1      261.8970   81.7430   32.3820 O.3   273  THR273     -0.2211
    180  CG2      263.9970   80.5870   32.3760 C.3   273  THR273      0.0376
    181  N        265.4620   83.6140   34.2740 N.am  274  VAL274     -0.1979
    182  CA       266.9090   83.9370   34.4980 C.3   274  VAL274      0.1595
    183  C        266.9830   85.2950   35.1180 C.2   274  VAL274      0.2287
    184  O        267.5220   86.2530   34.5970 O.2   274  VAL274     -0.2864
    185  CB       267.7550   83.8260   33.1800 C.3   274  VAL274      0.0276
    186  CG1      267.9030   82.3940   32.7590 C.3   274  VAL274      0.0022
    187  CG2      267.1500   84.6780   32.0380 C.3   274  VAL274      0.0022
    188  N        270.4070   87.2600   35.2490 N.3   277  TRP277     -0.1241
    189  CA       271.1330   87.6490   34.0030 C.3   277  TRP277      0.1605
    190  C        271.1680   89.1500   33.9030 C.2   277  TRP277      0.2264
    191  O        270.1000   89.8200   33.8580 O.2   277  TRP277     -0.2867
    192  CB       270.3890   87.0180   32.8580 C.3   277  TRP277      0.0550
    193  CG       271.0150   87.0470   31.4920 C.ar  277  TRP277      0.0003
    194  CD1      272.3240   86.8930   31.1620 C.ar  277  TRP277      0.0946
    195  CD2      270.2750   87.1320   30.2740 C.ar  277  TRP277      0.0152
    196  NE1      272.4540   86.9220   29.7590 N.ar  277  TRP277     -0.2442
    197  CE2      271.2010   87.0430   29.2090 C.ar  277  TRP277      0.0810
    198  CE3      268.9140   87.3190   29.9900 C.ar  277  TRP277      0.0012
    199  CZ2      270.7950   87.0840   27.8660 C.ar  277  TRP277      0.0191
    200  CZ3      268.4950   87.3210   28.6610 C.ar  277  TRP277      0.0001
    201  CH2      269.4450   87.1610   27.6060 C.ar  277  TRP277      0.0015
@<TRIPOS>BOND
     1    29    30    1
     2    32    31    2
     3    43    44    2
     4    43    42    1
     5    31    30    1
     6    30    33    1
     7    41    42    1
     8    42    45    1
     9    33    34    1
    10    45    46    1
    11    34    35   ar
    12    34    36   ar
    13    35    37   ar
    14    46    47   ar
    15    46    48   ar
    16    47    49   ar
    17    36    38   ar
    18    37    39   ar
    19    48    50   ar
    20    49    51   ar
    21    56    55    2
    22    38    39   ar
    23    39    40    1
    24    53    54    1
    25    50    51   ar
    26    51    52    1
    27    57    54    1
    28    57    58    1
    29    55    54    1
    30   142   143   ar
    31   142   140   ar
    32    60    58   ar
    33    60    62   ar
    34   145   143   ar
    35   145   147   ar
    36    58    59   ar
    37   143   141   ar
    38    62    61   ar
    39   140   139   ar
    40    28    26    1
    41   147   146   ar
    42    59    61   ar
    43    23    22    1
    44    23    24    2
    45    26    27    1
    46    26    25    1
    47    22    21    1
    48    22    25    1
    49   141   139   ar
    50   141   144   ar
    51   139   138    1
    52   146   144   ar
    53    19    17   ar
    54    19    20   ar
    55    17    16   ar
    56   135   138    1
    57   135   134    1
    58   135   136    1
    59     9    10   ar
    60     9     7   ar
    61    20    18   ar
    62    72    70   ar
    63    72    71   ar
    64    70    68   ar
    65    10     8   ar
    66    16    18   ar
    67    16    15    1
    68   137   136    2
    69     7     6   ar
    70   136   148   am
    71    15    12    1
    72     8     6   ar
    73    71    69   ar
    74   128   127    1
    75   128   129    2
    76    68    67    1
    77    68    69   ar
    78    12    13    1
    79    12    11    1
    80     6     5    1
    81   131   133    1
    82   131   130    1
    83    82    81    1
    84    63    64    1
    85   127   130    1
    86   127   126    1
    87   148   149    1
    88    67    64    1
    89    13    14    2
    90     5     2    1
    91   118   117   ar
    92     2     1    1
    93     2     3    1
    94   130   132    1
    95   159   158    1
    96   111   110    1
    97   125   124    1
    98    64    65    1
    99    81    83    1
   100    81    80    2
   101   157   158   ar
   102   157   155   ar
   103   158   156   ar
   104   119   117   ar
   105   149   150    1
   106   149   152    1
   107     3     4    2
   108   117   116    1
   109    65    66    2
   110   155   153   ar
   111   156   154   ar
   112    80    79    1
   113   150   151    2
   114   124   121    1
   115   153   154   ar
   116   153   152    1
   117   110   108   ar
   118   110   109   ar
   119   108   106   ar
   120   121   122    1
   121   121   120    1
   122   116   113    1
   123   115   114    2
   124    79    78    1
   125   109   107   ar
   126   113   114    1
   127   113   112    1
   128   106   105   ar
   129   122   123    2
   130    78    77    1
   131   107   105   ar
   132   201   199   ar
   133   201   200   ar
   134   105   104    1
   135   199   197   ar
   136    90    89    1
   137    77    74    1
   138   173   171    1
   139   200   198   ar
   140    73    74    1
   141   104   101    1
   142    99    97    1
   143    74    75    1
   144   197   196   ar
   145   197   195   ar
   146   165   164    1
   147   166   164    1
   148   164   161    1
   149    89    91    1
   150    89    88    1
   151   196   194   ar
   152   101   100    1
   153   101   102    1
   154   171   172    1
   155   171   168    1
   156   198   195   ar
   157    97    96    1
   158   195   193   ar
   159    88    85    1
   160    95    94    2
   161   103   102    2
   162   100    94   am
   163   167   168    1
   164   167   162   am
   165    75    76    2
   166   168   169    1
   167    94    93    1
   168   161   160    1
   169   161   162    1
   170    96    93    1
   171    96    98    1
   172   194   193   ar
   173   162   163    2
   174   193   192    1
   175    85    86    1
   176    85    84    1
   177    93    92    1
   178    87    86    2
   179   187   185    1
   180   169   170    2
   181   180   178    1
   182   179   178    1
   183   178   175    1
   184   186   185    1
   185   192   189    1
   186   185   182    1
   187   191   190    2
   188   190   189    1
   189   189   188    1
   190   175   174    1
   191   175   176    1
   192   181   182    1
   193   181   176   am
   194   182   183    1
   195   176   177    2
   196   184   183    2
