@<TRIPOS>MOLECULE
tmp/4re2A00.pdb
 139 139 0 0 0
SMALL
GASTEIGER

@<TRIPOS>ATOM
      1  N          9.8570    2.1450    9.5500 N.3    36  GLN36      -0.1245
      2  CA        10.5690    3.0610    8.6730 C.3    36  GLN36       0.1566
      3  C         11.9410    2.5250    8.2650 C.2    36  GLN36       0.2260
      4  O         12.4630    2.9210    7.2250 O.2    36  GLN36      -0.2867
      5  CB        10.6670    4.4470    9.3100 C.3    36  GLN36       0.0367
      6  CG         9.3260    5.1780    9.3690 C.3    36  GLN36       0.0905
      7  CD         9.4430    6.5110   10.0630 C.2    36  GLN36       0.2608
      8  OE1        9.4080    6.5900   11.2940 O.2    36  GLN36      -0.2717
      9  NE2        9.5810    7.5680    9.2800 N.am   36  GLN36      -0.0878
     10  N          5.0720    3.0450   17.1290 N.3   137  HIS137     -0.1226
     11  CA         5.3010    4.1280   16.1750 C.3   137  HIS137      0.1752
     12  C          4.4150    3.8890   14.9460 C.2   137  HIS137      0.2596
     13  O          4.8970    3.5320   13.8630 O.2   137  HIS137     -0.2718
     14  CB         6.7970    4.2130   15.8110 C.3   137  HIS137      0.0759
     15  CG         7.2360    5.5490   15.2710 C.ar  137  HIS137      0.0818
     16  ND1        8.3660    6.1980   15.7270 N.ar  137  HIS137     -0.2268
     17  CD2        6.7090    6.3500   14.3100 C.ar  137  HIS137      0.1154
     18  CE1        8.5310    7.3230   15.0520 C.ar  137  HIS137      0.1986
     19  NE2        7.5280    7.4470   14.1970 N.ar  137  HIS137     -0.2212
     20  N          3.1050    4.0460   15.1560 N.am  138  TYR138     -0.1976
     21  CA         2.0830    4.0780   14.0970 C.3   138  TYR138      0.1639
     22  C          1.6500    2.7120   13.5600 C.2   138  TYR138      0.2290
     23  O          0.7740    2.6380   12.6970 O.2   138  TYR138     -0.2864
     24  CB         2.4820    5.0000   12.9270 C.3   138  TYR138      0.0560
     25  CG         2.9090    6.4150   13.3060 C.ar  138  TYR138     -0.0198
     26  CD1        3.5140    7.2440   12.3620 C.ar  138  TYR138     -0.0009
     27  CD2        2.7150    6.9220   14.5970 C.ar  138  TYR138     -0.0009
     28  CE1        3.9080    8.5350   12.6800 C.ar  138  TYR138      0.0417
     29  CE2        3.1150    8.2090   14.9290 C.ar  138  TYR138      0.0417
     30  CZ         3.7090    9.0060   13.9750 C.ar  138  TYR138      0.1957
     31  OH         4.1000   10.2840   14.3060 O.3   138  TYR138     -0.2866
     32  N          5.2220    6.9440   20.3230 N.3   182  ASN182     -0.1225
     33  CA         5.6960    8.0840   19.5340 C.3   182  ASN182      0.1785
     34  C          4.5210    8.9140   19.0240 C.2   182  ASN182      0.2597
     35  O          3.7270    8.4450   18.1990 O.2   182  ASN182     -0.2718
     36  CB         6.5480    7.6350   18.3360 C.3   182  ASN182      0.1169
     37  CG         7.1140    8.8150   17.5540 C.2   182  ASN182      0.2627
     38  OD1        8.1530    9.3480   17.8990 O.2   182  ASN182     -0.2716
     39  ND2        6.4090    9.2320   16.4980 N.am  182  ASN182     -0.0877
     40  N          4.4200   10.1470   19.5160 N.am  183  GLU183     -0.1979
     41  CA         3.4550   11.1330   19.0040 C.3   183  GLU183      0.1602
     42  C          1.9950   10.6720   18.9410 C.2   183  GLU183      0.2287
     43  O          1.4000   10.6000   17.8530 O.2   183  GLU183     -0.2864
     44  CB         3.9300   11.6650   17.6530 C.3   183  GLU183      0.0415
     45  CG         5.3270   12.2620   17.7780 C.3   183  GLU183      0.1163
     46  CD         5.8480   12.8660   16.5010 C.2   183  GLU183      0.3649
     47  OE1        5.1330   12.8220   15.4750 O.co2 183  GLU183     -0.2457
     48  OE2        6.9810   13.3880   16.5410 O.co2 183  GLU183     -0.2457
     49  N          5.1710   15.2180   20.2820 N.3   250  ASP250     -0.1239
     50  CA         5.5560   16.2570   19.3610 C.3   250  ASP250      0.1674
     51  C          5.0920   17.6030   19.8940 C.2   250  ASP250      0.2266
     52  O          4.0280   17.7200   20.5110 O.2   250  ASP250     -0.2867
     53  CB         5.0100   16.0080   17.9530 C.3   250  ASP250      0.1410
     54  CG         3.5090   15.7690   17.9310 C.2   250  ASP250      0.3668
     55  OD1        3.0300   14.7700   18.5310 O.co2 250  ASP250     -0.2456
     56  OD2        2.8030   16.5800   17.2820 O.co2 250  ASP250     -0.2456
     57  N         10.8530   20.1590   16.0000 N.3   322  TYR322     -0.1241
     58  CA        11.4210   20.4300   14.6850 C.3   322  TYR322      0.1605
     59  C         11.2320   21.8660   14.2380 C.2   322  TYR322      0.2264
     60  O         12.0910   22.3940   13.5510 O.2   322  TYR322     -0.2867
     61  CB        10.7470   19.5570   13.6220 C.3   322  TYR322      0.0534
     62  CG        11.0400   18.0760   13.7080 C.ar  322  TYR322     -0.0201
     63  CD1       10.3400   17.2560   14.5930 C.ar  322  TYR322     -0.0009
     64  CD2       11.9960   17.4920   12.8660 C.ar  322  TYR322     -0.0009
     65  CE1       10.6080   15.8870   14.6550 C.ar  322  TYR322      0.0417
     66  CE2       12.2600   16.1270   12.9050 C.ar  322  TYR322      0.0417
     67  CZ        11.5740   15.3350   13.7990 C.ar  322  TYR322      0.1957
     68  OH        11.8410   13.9910   13.8310 O.3   322  TYR322     -0.2866
     69  N          5.6660   21.1020    6.0910 N.3   365  TRP365     -0.1241
     70  CA         5.3820   21.5800    7.4420 C.3   365  TRP365      0.1605
     71  C          6.6190   22.1350    8.1550 C.2   365  TRP365      0.2264
     72  O          6.4960   22.7670    9.2100 O.2   365  TRP365     -0.2867
     73  CB         4.7390   20.4620    8.2810 C.3   365  TRP365      0.0550
     74  CG         5.5720   19.2150    8.3570 C.ar  365  TRP365      0.0003
     75  CD1        5.4920   18.1340    7.5350 C.ar  365  TRP365      0.0946
     76  CD2        6.6210   18.9270    9.2990 C.ar  365  TRP365      0.0152
     77  NE1        6.4280   17.1920    7.8960 N.ar  365  TRP365     -0.2442
     78  CE2        7.1370   17.6560    8.9720 C.ar  365  TRP365      0.0810
     79  CE3        7.1790   19.6270   10.3800 C.ar  365  TRP365      0.0012
     80  CZ2        8.1740   17.0540    9.6980 C.ar  365  TRP365      0.0191
     81  CZ3        8.2150   19.0390   11.0940 C.ar  365  TRP365      0.0001
     82  CH2        8.7020   17.7620   10.7500 C.ar  365  TRP365      0.0015
     83  N         13.6320   14.0280   19.4120 N.3   393  GLU393     -0.1245
     84  CA        13.7870   14.0930   17.9520 C.3   393  GLU393      0.1567
     85  C         14.0650   15.5150   17.5340 C.2   393  GLU393      0.2260
     86  O         13.4820   16.4420   18.0810 O.2   393  GLU393     -0.2867
     87  CB        12.5250   13.6590   17.2030 C.3   393  GLU393      0.0388
     88  CG        12.2530   12.1810   17.1550 C.3   393  GLU393      0.1160
     89  CD        11.0120   11.8540   16.3560 C.2   393  GLU393      0.3649
     90  OE1       10.5690   12.7070   15.5330 O.co2 393  GLU393     -0.2457
     91  OE2       10.4870   10.7460   16.5490 O.co2 393  GLU393     -0.2457
     92  N         16.7370   13.0300   14.5550 N.3   440  TRP440     -0.1241
     93  CA        16.0240   12.2450   13.5480 C.3   440  TRP440      0.1605
     94  C         16.6660   12.5360   12.1900 C.2   440  TRP440      0.2264
     95  O         16.5840   13.6640   11.7220 O.2   440  TRP440     -0.2867
     96  CB        14.5260   12.6120   13.4940 C.3   440  TRP440      0.0550
     97  CG        13.7880   11.6670   12.5520 C.ar  440  TRP440      0.0003
     98  CD1       13.6760   11.7670   11.1750 C.ar  440  TRP440      0.0946
     99  CD2       13.1330   10.4650   12.9210 C.ar  440  TRP440      0.0152
    100  NE1       12.9820   10.6870   10.6800 N.ar  440  TRP440     -0.2442
    101  CE2       12.6330    9.8740   11.7330 C.ar  440  TRP440      0.0810
    102  CE3       12.9110    9.8190   14.1530 C.ar  440  TRP440      0.0012
    103  CZ2       11.9220    8.6720   11.7410 C.ar  440  TRP440      0.0191
    104  CZ3       12.1920    8.6200   14.1580 C.ar  440  TRP440      0.0001
    105  CH2       11.7150    8.0600   12.9610 C.ar  440  TRP440      0.0015
    106  N          9.5480    7.6990    4.6930 N.3   447  GLU447     -0.1231
    107  CA         8.9440    8.8670    5.3520 C.3   447  GLU447      0.1699
    108  C          7.4110    8.8880    5.2500 C.2   447  GLU447      0.2592
    109  O          6.8080    9.8420    4.7480 O.2   447  GLU447     -0.2718
    110  CB         9.5880   10.1580    4.8210 C.3   447  GLU447      0.0402
    111  CG         9.0720   11.4920    5.3870 C.3   447  GLU447      0.1161
    112  CD         9.0310   11.5800    6.9080 C.2   447  GLU447      0.3649
    113  OE1        9.7690   10.8470    7.5970 O.co2 447  GLU447     -0.2457
    114  OE2        8.2540   12.4220    7.4140 O.co2 447  GLU447     -0.2457
    115  N          6.8010    7.8180    5.7470 N.am  448  TRP448     -0.1976
    116  CA         5.3490    7.6700    5.8030 C.3   448  TRP448      0.1640
    117  C          4.6900    8.0810    4.4770 C.2   448  TRP448      0.2290
    118  O          5.0220    7.4970    3.4410 O.2   448  TRP448     -0.2864
    119  CB         4.7830    8.3930    7.0460 C.3   448  TRP448      0.0576
    120  CG         5.3700    7.8390    8.3400 C.ar  448  TRP448      0.0006
    121  CD1        6.2060    8.4890    9.2190 C.ar  448  TRP448      0.0946
    122  CD2        5.1990    6.5120    8.8610 C.ar  448  TRP448      0.0152
    123  NE1        6.5360    7.6530   10.2680 N.ar  448  TRP448     -0.2442
    124  CE2        5.9430    6.4320   10.0640 C.ar  448  TRP448      0.0810
    125  CE3        4.4890    5.3780    8.4260 C.ar  448  TRP448      0.0012
    126  CZ2        5.9860    5.2750   10.8400 C.ar  448  TRP448      0.0191
    127  CZ3        4.5320    4.2300    9.1870 C.ar  448  TRP448      0.0001
    128  CH2        5.2830    4.1800   10.3900 C.ar  448  TRP448      0.0015
    129  N         15.6920   12.4310    5.5830 N.3   456  PHE456     -0.1241
    130  CA        15.9480   13.0070    6.9230 C.3   456  PHE456      0.1605
    131  C         17.2860   12.5760    7.5510 C.2   456  PHE456      0.2264
    132  O         17.6520   13.0330    8.6470 O.2   456  PHE456     -0.2867
    133  CB        14.8060   12.6360    7.8970 C.3   456  PHE456      0.0534
    134  CG        13.6530   13.6040    7.9060 C.ar  456  PHE456     -0.0203
    135  CD1       13.6630   14.7160    8.7560 C.ar  456  PHE456     -0.0042
    136  CD2       12.5410   13.4000    7.0790 C.ar  456  PHE456     -0.0042
    137  CE1       12.5950   15.6200    8.7710 C.ar  456  PHE456     -0.0003
    138  CE2       11.4590   14.2870    7.0850 C.ar  456  PHE456     -0.0003
    139  CZ        11.4800   15.4080    7.9350 C.ar  456  PHE456     -0.0000
@<TRIPOS>BOND
     1   118   117    2
     2   117   116    1
     3   106   107    1
     4   109   108    2
     5   110   107    1
     6   110   111    1
     7   108   107    1
     8   108   115   am
     9   111   112    1
    10   129   130    1
    11   115   116    1
    12   116   119    1
    13    69    70    1
    14   112   114   ar
    15   112   113   ar
    16   130   131    1
    17   130   133    1
    18   119   120    1
    19   136   138   ar
    20   136   134   ar
    21   138   139   ar
    22     4     3    2
    23    70    71    1
    24    70    73    1
    25    75    77   ar
    26    75    74   ar
    27   131   132    2
    28    77    78   ar
    29   133   134    1
    30   134   135   ar
    31   139   137   ar
    32    71    72    2
    33     3     2    1
    34    73    74    1
    35   120   122   ar
    36   120   121   ar
    37    74    76   ar
    38   125   122   ar
    39   125   127   ar
    40     2     5    1
    41     2     1    1
    42   135   137   ar
    43   122   124   ar
    44    78    76   ar
    45    78    80   ar
    46   127   128   ar
    47   121   123   ar
    48     9     7   am
    49    76    79   ar
    50     5     6    1
    51     6     7    1
    52    80    82   ar
    53     7     8    2
    54   124   123   ar
    55   124   126   ar
    56    79    81   ar
    57   128   126   ar
    58   100    98   ar
    59   100   101   ar
    60    82    81   ar
    61    98    97   ar
    62    95    94    2
    63   101   103   ar
    64   101    99   ar
    65   103   105   ar
    66    94    93    1
    67    26    28   ar
    68    26    25   ar
    69    97    99   ar
    70    97    96    1
    71    28    30   ar
    72    23    22    2
    73    64    66   ar
    74    64    62   ar
    75    66    67   ar
    76    99   102   ar
    77    24    25    1
    78    24    21    1
    79   105   104   ar
    80    25    27   ar
    81    96    93    1
    82    93    92    1
    83    60    59    2
    84    22    21    1
    85    61    62    1
    86    61    58    1
    87    62    63   ar
    88    67    68    1
    89    67    65   ar
    90    13    12    2
    91    30    31    1
    92    30    29   ar
    93    21    20    1
    94   102   104   ar
    95    19    17   ar
    96    19    18   ar
    97    59    58    1
    98    17    15   ar
    99    63    65   ar
   100    27    29   ar
   101    58    57    1
   102    12    20   am
   103    12    11    1
   104    18    16   ar
   105    15    16   ar
   106    15    14    1
   107    47    46   ar
   108    90    89   ar
   109    14    11    1
   110    11    10    1
   111    89    91   ar
   112    89    88    1
   113    39    37   am
   114    46    48   ar
   115    46    45    1
   116    88    87    1
   117    87    84    1
   118    56    54   ar
   119    85    84    1
   120    85    86    2
   121    37    38    2
   122    37    36    1
   123    44    45    1
   124    44    41    1
   125    43    42    2
   126    54    53    1
   127    54    55   ar
   128    84    83    1
   129    53    50    1
   130    35    34    2
   131    36    33    1
   132    42    41    1
   133    41    40    1
   134    34    40   am
   135    34    33    1
   136    50    51    1
   137    50    49    1
   138    33    32    1
   139    51    52    2
