@<TRIPOS>MOLECULE
tmp/4re4A00.pdb
 131 132 0 0 0
SMALL
GASTEIGER

@<TRIPOS>ATOM
      1  N         10.0240    2.3430    9.4490 N.3    37  GLN37      -0.1245
      2  CA        10.7720    3.1790    8.5330 C.3    37  GLN37       0.1566
      3  C         12.1140    2.5790    8.1290 C.2    37  GLN37       0.2260
      4  O         12.6090    2.8630    7.0390 O.2    37  GLN37      -0.2867
      5  CB        10.9200    4.5920    9.0940 C.3    37  GLN37       0.0367
      6  CG         9.5920    5.3350    9.1330 C.3    37  GLN37       0.0905
      7  CD         9.7160    6.6710    9.8120 C.2    37  GLN37       0.2608
      8  OE1        9.6580    6.7590   11.0390 O.2    37  GLN37      -0.2717
      9  NE2        9.8830    7.7280    9.0180 N.am   37  GLN37      -0.0878
     10  N          5.1120    3.1590   17.1580 N.3   138  HIS138     -0.1226
     11  CA         5.4060    4.2330   16.2160 C.3   138  HIS138      0.1752
     12  C          4.5840    4.0470   14.9460 C.2   138  HIS138      0.2596
     13  O          5.0900    3.6010   13.9260 O.2   138  HIS138     -0.2718
     14  CB         6.9080    4.2740   15.9260 C.3   138  HIS138      0.0759
     15  CG         7.3770    5.5510   15.2980 C.ar  138  HIS138      0.0818
     16  ND1        8.5410    6.1870   15.6900 N.ar  138  HIS138     -0.2268
     17  CD2        6.8600    6.2970   14.2860 C.ar  138  HIS138      0.1154
     18  CE1        8.7230    7.2610   14.9370 C.ar  138  HIS138      0.1986
     19  NE2        7.7070    7.3620   14.0930 N.ar  138  HIS138     -0.2212
     20  N          3.2970    4.3680   15.0510 N.am  139  TYR139     -0.1976
     21  CA         2.3040    4.3740   13.9460 C.3   139  TYR139      0.1639
     22  C          1.8720    3.0190   13.3940 C.2   139  TYR139      0.2290
     23  O          1.1540    2.9720   12.4020 O.2   139  TYR139     -0.2864
     24  CB         2.7260    5.2320   12.7450 C.3   139  TYR139      0.0560
     25  CG         3.1590    6.6560   13.0070 C.ar  139  TYR139     -0.0198
     26  CD1        3.0200    7.2570   14.2670 C.ar  139  TYR139     -0.0009
     27  CD2        3.7290    7.3970   11.9810 C.ar  139  TYR139     -0.0009
     28  CE1        3.4310    8.5500   14.4870 C.ar  139  TYR139      0.0417
     29  CE2        4.1400    8.6880   12.1820 C.ar  139  TYR139      0.0417
     30  CZ         3.9880    9.2640   13.4320 C.ar  139  TYR139      0.1957
     31  OH         4.4190   10.5510   13.6120 O.3   139  TYR139     -0.2866
     32  N          5.2780    7.2260   20.2650 N.3   183  ASN183     -0.1225
     33  CA         5.8690    8.3380   19.5500 C.3   183  ASN183      0.1785
     34  C          4.7630    9.2010   18.9520 C.2   183  ASN183      0.2597
     35  O          3.9960    8.7370   18.1140 O.2   183  ASN183     -0.2718
     36  CB         6.7980    7.8520   18.4460 C.3   183  ASN183      0.1169
     37  CG         7.3820    8.9930   17.6580 C.2   183  ASN183      0.2627
     38  OD1        8.3050    9.6580   18.1150 O.2   183  ASN183     -0.2716
     39  ND2        6.8080    9.2600   16.4750 N.am  183  ASN183     -0.0877
     40  N          4.6730   10.4470   19.4130 N.am  184  GLU184     -0.1979
     41  CA         3.7600   11.4290   18.8360 C.3   184  GLU184      0.1602
     42  C          2.3020   10.9460   18.7460 C.2   184  GLU184      0.2287
     43  O          1.7350   10.8620   17.6580 O.2   184  GLU184     -0.2864
     44  CB         4.2870   11.9120   17.4740 C.3   184  GLU184      0.0415
     45  CG         5.7410   12.4220   17.5500 C.3   184  GLU184      0.1163
     46  CD         6.3500   12.7430   16.1830 C.2   184  GLU184      0.3649
     47  OE1        5.8120   12.2430   15.1740 O.co2 184  GLU184     -0.2457
     48  OE2        7.3670   13.4870   16.1180 O.co2 184  GLU184     -0.2457
     49  N         11.0400   20.3140   15.8380 N.3   323  TYR323     -0.1241
     50  CA        11.6430   20.5830   14.5400 C.3   323  TYR323      0.1605
     51  C         11.5090   22.0160   14.1150 C.2   323  TYR323      0.2264
     52  O         12.4000   22.5420   13.4620 O.2   323  TYR323     -0.2867
     53  CB        10.9600   19.7450   13.4470 C.3   323  TYR323      0.0534
     54  CG        11.2330   18.2660   13.5160 C.ar  323  TYR323     -0.0201
     55  CD1       10.4250   17.4170   14.2900 C.ar  323  TYR323     -0.0009
     56  CD2       12.2800   17.7110   12.7920 C.ar  323  TYR323     -0.0009
     57  CE1       10.6680   16.0620   14.3510 C.ar  323  TYR323      0.0417
     58  CE2       12.5340   16.3430   12.8300 C.ar  323  TYR323      0.0417
     59  CZ        11.7320   15.5290   13.6140 C.ar  323  TYR323      0.1957
     60  OH        11.9880   14.1790   13.6360 O.3   323  TYR323     -0.2866
     61  N          6.0440   21.2340    5.8720 N.3   366  TRP366     -0.1241
     62  CA         5.8060   21.7470    7.2220 C.3   366  TRP366      0.1605
     63  C          7.0810   22.1880    7.9590 C.2   366  TRP366      0.2264
     64  O          7.0030   22.6780    9.0830 O.2   366  TRP366     -0.2867
     65  CB         5.0840   20.6770    8.0620 C.3   366  TRP366      0.0550
     66  CG         5.8510   19.3890    8.1290 C.ar  366  TRP366      0.0003
     67  CD1        5.7220   18.3040    7.3010 C.ar  366  TRP366      0.0946
     68  CD2        6.8970   19.0630    9.0570 C.ar  366  TRP366      0.0152
     69  NE1        6.6190   17.3190    7.6680 N.ar  366  TRP366     -0.2442
     70  CE2        7.3540   17.7650    8.7360 C.ar  366  TRP366      0.0810
     71  CE3        7.4900   19.7440   10.1330 C.ar  366  TRP366      0.0012
     72  CZ2        8.3790   17.1320    9.4500 C.ar  366  TRP366      0.0191
     73  CZ3        8.5120   19.1100   10.8460 C.ar  366  TRP366      0.0001
     74  CH2        8.9440   17.8200   10.4970 C.ar  366  TRP366      0.0015
     75  N         13.7620   14.0670   19.2780 N.3   394  GLU394     -0.1245
     76  CA        13.9010   14.0880   17.8090 C.3   394  GLU394      0.1567
     77  C         14.1830   15.5150   17.3850 C.2   394  GLU394      0.2260
     78  O         13.5520   16.4460   17.8840 O.2   394  GLU394     -0.2867
     79  CB        12.6110   13.6610   17.0920 C.3   394  GLU394      0.0388
     80  CG        12.3800   12.1710   16.9500 C.3   394  GLU394      0.1160
     81  CD        11.1390   11.8270   16.1180 C.2   394  GLU394      0.3649
     82  OE1       10.7660   12.6230   15.1930 O.co2 394  GLU394     -0.2457
     83  OE2       10.5500   10.7380   16.3720 O.co2 394  GLU394     -0.2457
     84  N         17.0220   12.9890   14.5250 N.3   441  TRP441     -0.1241
     85  CA        16.2700   12.2350   13.5360 C.3   441  TRP441      0.1605
     86  C         16.8930   12.5370   12.1600 C.2   441  TRP441      0.2264
     87  O         16.8400   13.6760   11.7100 O.2   441  TRP441     -0.2867
     88  CB        14.7790   12.6100   13.5450 C.3   441  TRP441      0.0550
     89  CG        14.0040   11.7140   12.6080 C.ar  441  TRP441      0.0003
     90  CD1       13.8350   11.8840   11.2560 C.ar  441  TRP441      0.0946
     91  CD2       13.3630   10.4800   12.9400 C.ar  441  TRP441      0.0152
     92  NE1       13.1380   10.8270   10.7310 N.ar  441  TRP441     -0.2442
     93  CE2       12.8330    9.9510   11.7450 C.ar  441  TRP441      0.0810
     94  CE3       13.1890    9.7680   14.1330 C.ar  441  TRP441      0.0012
     95  CZ2       12.1310    8.7450   11.7090 C.ar  441  TRP441      0.0191
     96  CZ3       12.4950    8.5690   14.0950 C.ar  441  TRP441      0.0001
     97  CH2       11.9640    8.0770   12.8950 C.ar  441  TRP441      0.0015
     98  N          9.7400    7.7900    4.5580 N.3   448  GLU448     -0.1231
     99  CA         9.2160    8.9480    5.2450 C.3   448  GLU448      0.1699
    100  C          7.6880    9.0530    5.0880 C.2   448  GLU448      0.2592
    101  O          7.1480   10.0480    4.5870 O.2   448  GLU448     -0.2718
    102  CB        10.0150   10.2010    4.8130 C.3   448  GLU448      0.0402
    103  CG         9.5980   11.5430    5.4170 C.3   448  GLU448      0.1161
    104  CD         9.4440   11.5650    6.9330 C.2   448  GLU448      0.3649
    105  OE1       10.1560   10.8210    7.6490 O.co2 448  GLU448     -0.2457
    106  OE2        8.6090   12.3700    7.4150 O.co2 448  GLU448     -0.2457
    107  N          7.0160    7.9870    5.5320 N.am  449  TRP449     -0.1976
    108  CA         5.5440    7.8430    5.5080 C.3   449  TRP449      0.1640
    109  C          4.9090    8.2460    4.1710 C.2   449  TRP449      0.2290
    110  O          5.2590    7.6620    3.1440 O.2   449  TRP449     -0.2864
    111  CB         4.8950    8.5320    6.7140 C.3   449  TRP449      0.0576
    112  CG         5.5460    8.1130    8.0050 C.ar  449  TRP449      0.0006
    113  CD1        6.3960    8.8600    8.7840 C.ar  449  TRP449      0.0946
    114  CD2        5.4530    6.8290    8.6320 C.ar  449  TRP449      0.0152
    115  NE1        6.8000    8.1340    9.8740 N.ar  449  TRP449     -0.2442
    116  CE2        6.2390    6.8820    9.8080 C.ar  449  TRP449      0.0810
    117  CE3        4.7640    5.6420    8.3270 C.ar  449  TRP449      0.0012
    118  CZ2        6.3680    5.7910   10.6730 C.ar  449  TRP449      0.0191
    119  CZ3        4.8910    4.5600    9.1860 C.ar  449  TRP449      0.0001
    120  CH2        5.6920    4.6410   10.3500 C.ar  449  TRP449      0.0015
    121  N         16.0450   12.4290    5.5790 N.3   457  PHE457     -0.1241
    122  CA        16.2960   12.9800    6.9310 C.3   457  PHE457      0.1605
    123  C         17.6260   12.5430    7.5610 C.2   457  PHE457      0.2264
    124  O         18.0070   13.0320    8.6300 O.2   457  PHE457     -0.2867
    125  CB        15.1460   12.6080    7.8980 C.3   457  PHE457      0.0534
    126  CG        14.0140   13.6100    7.9270 C.ar  457  PHE457     -0.0203
    127  CD1       14.1000   14.7590    8.7230 C.ar  457  PHE457     -0.0042
    128  CD2       12.8570   13.4010    7.1610 C.ar  457  PHE457     -0.0042
    129  CE1       13.0490   15.6960    8.7630 C.ar  457  PHE457     -0.0003
    130  CE2       11.7880   14.3290    7.1860 C.ar  457  PHE457     -0.0003
    131  CZ        11.8870   15.4820    8.0050 C.ar  457  PHE457     -0.0000
@<TRIPOS>BOND
     1   110   109    2
     2   109   108    1
     3    98    99    1
     4   101   100    2
     5   102    99    1
     6   102   103    1
     7   100    99    1
     8   100   107   am
     9   103   104    1
    10   108   107    1
    11   108   111    1
    12   121   122    1
    13    61    62    1
    14   111   112    1
    15   122   123    1
    16   122   125    1
    17   104   106   ar
    18   104   105   ar
    19     4     3    2
    20   128   130   ar
    21   128   126   ar
    22   130   131   ar
    23    62    63    1
    24    62    65    1
    25    67    69   ar
    26    67    66   ar
    27   123   124    2
    28    69    70   ar
    29   125   126    1
    30   126   127   ar
    31    63    64    2
    32   112   114   ar
    33   112   113   ar
    34   131   129   ar
    35    65    66    1
    36    66    68   ar
    37     3     2    1
    38   117   114   ar
    39   117   119   ar
    40     2     5    1
    41     2     1    1
    42   114   116   ar
    43   127   129   ar
    44    70    68   ar
    45    70    72   ar
    46   113   115   ar
    47     9     7   am
    48    68    71   ar
    49     5     6    1
    50     6     7    1
    51   119   120   ar
    52    72    74   ar
    53   116   115   ar
    54   116   118   ar
    55     7     8    2
    56    71    73   ar
    57   120   118   ar
    58    74    73   ar
    59    92    90   ar
    60    92    93   ar
    61    90    89   ar
    62    95    93   ar
    63    95    97   ar
    64    87    86    2
    65    93    91   ar
    66    27    29   ar
    67    27    25   ar
    68    86    85    1
    69    29    30   ar
    70    23    22    2
    71    89    91   ar
    72    89    88    1
    73    24    25    1
    74    24    21    1
    75    56    58   ar
    76    56    54   ar
    77    58    59   ar
    78    97    96   ar
    79    91    94   ar
    80    25    26   ar
    81    22    21    1
    82    30    31    1
    83    30    28   ar
    84    53    54    1
    85    53    50    1
    86    52    51    2
    87    54    55   ar
    88    85    88    1
    89    85    84    1
    90    59    60    1
    91    59    57   ar
    92    13    12    2
    93    21    20    1
    94    19    17   ar
    95    19    18   ar
    96    96    94   ar
    97    51    50    1
    98    26    28   ar
    99    17    15   ar
   100    55    57   ar
   101    50    49    1
   102    18    16   ar
   103    12    20   am
   104    12    11    1
   105    47    46   ar
   106    82    81   ar
   107    15    16   ar
   108    15    14    1
   109    14    11    1
   110    81    83   ar
   111    81    80    1
   112    48    46   ar
   113    46    45    1
   114    11    10    1
   115    39    37   am
   116    80    79    1
   117    79    76    1
   118    77    76    1
   119    77    78    2
   120    44    45    1
   121    44    41    1
   122    43    42    2
   123    37    38    2
   124    37    36    1
   125    76    75    1
   126    35    34    2
   127    36    33    1
   128    42    41    1
   129    41    40    1
   130    34    40   am
   131    34    33    1
   132    33    32    1
