@<TRIPOS>MOLECULE
tmp/4re5B01.pdb
 92 87 0 0 0
SMALL
GASTEIGER

@<TRIPOS>ATOM
      1  N        -11.4820  -20.4810  -17.6190 N.3    58  ASN58      -0.1225
      2  CA       -12.5850  -20.2440  -18.5050 C.3    58  ASN58       0.1785
      3  C        -13.6640  -21.3110  -18.3920 C.2    58  ASN58       0.2598
      4  O        -14.8400  -20.9750  -18.4950 O.2    58  ASN58      -0.2718
      5  CB       -12.0750  -20.1160  -19.9440 C.3    58  ASN58       0.1169
      6  CG       -11.2030  -18.9020  -20.0820 C.2    58  ASN58       0.2627
      7  OD1       -9.9830  -18.9970  -20.0730 O.2    58  ASN58      -0.2716
      8  ND2      -11.8170  -17.7480  -20.0580 N.am   58  ASN58      -0.0877
      9  N        -13.2610  -22.5610  -18.2330 N.am   59  SER59      -0.1938
     10  CA       -14.1710  -23.6760  -18.2020 C.3    59  SER59       0.2055
     11  C        -13.4640  -24.9160  -17.6990 C.2    59  SER59       0.2643
     12  O        -12.2890  -24.8510  -17.3430 O.2    59  SER59      -0.2714
     13  CB       -14.6980  -23.9570  -19.6240 C.3    59  SER59       0.2130
     14  OG       -13.6400  -24.3410  -20.5050 O.3    59  SER59      -0.2179
     15  N        -14.1810  -26.0300  -17.7220 N.am   60  VAL60      -0.1963
     16  CA       -13.6510  -27.3520  -17.3930 C.3    60  VAL60       0.1727
     17  C        -14.0790  -28.2790  -18.4820 C.2    60  VAL60       0.2616
     18  O        -15.0570  -27.9910  -19.1380 O.2    60  VAL60      -0.2715
     19  CB       -14.1550  -27.9100  -16.0470 C.3    60  VAL60       0.0290
     20  CG1      -13.6950  -27.0250  -14.9210 C.3    60  VAL60       0.0023
     21  CG2      -15.6720  -28.0510  -16.0040 C.3    60  VAL60       0.0023
     22  N        -13.3550  -29.3690  -18.6770 N.am   61  LEU61      -0.1977
     23  CA       -13.8060  -30.4000  -19.5920 C.3    61  LEU61       0.1596
     24  C        -14.8850  -31.2470  -18.9400 C.2    61  LEU61       0.2287
     25  O        -14.9950  -31.2710  -17.7200 O.2    61  LEU61      -0.2864
     26  CB       -12.6490  -31.2590  -20.0990 C.3    61  LEU61       0.0297
     27  CG       -11.4930  -30.5020  -20.7270 C.3    61  LEU61       0.0022
     28  CD1      -10.5420  -31.4710  -21.3830 C.3    61  LEU61       0.0001
     29  CD2      -11.9570  -29.4770  -21.7590 C.3    61  LEU61       0.0001
     30  N         -9.6520  -25.5550  -18.1300 N.3    73  VAL73      -0.1245
     31  CA        -9.2800  -24.8500  -19.2990 C.3    73  VAL73       0.1561
     32  C         -9.0370  -23.3890  -18.9540 C.2    73  VAL73       0.2260
     33  O         -9.9500  -22.6810  -18.5170 O.2    73  VAL73      -0.2867
     34  CB       -10.4020  -24.9290  -20.3540 C.3    73  VAL73       0.0252
     35  CG1       -9.9440  -24.2960  -21.6650 C.3    73  VAL73       0.0019
     36  CG2      -10.8300  -26.3520  -20.5630 C.3    73  VAL73       0.0019
     37  N         -7.1680  -16.2360  -26.0210 N.3    81  GLU81      -0.1245
     38  CA        -7.7960  -17.5710  -26.0800 C.3    81  GLU81       0.1567
     39  C         -6.9020  -18.6560  -26.7110 C.2    81  GLU81       0.2260
     40  O         -7.3630  -19.6310  -27.3560 O.2    81  GLU81      -0.2867
     41  CB        -9.1770  -17.4900  -26.8130 C.3    81  GLU81       0.0388
     42  CG       -10.1270  -16.5840  -26.0450 C.3    81  GLU81       0.1160
     43  CD       -11.5220  -16.5300  -26.6990 C.2    81  GLU81       0.3649
     44  OE1      -12.4190  -17.2320  -26.1660 O.co2  81  GLU81      -0.2457
     45  OE2      -11.6450  -15.8090  -27.7410 O.co2  81  GLU81      -0.2457
     46  N         -5.4480  -21.3530  -24.9480 N.3    83  HIS83      -0.1241
     47  CA        -5.6630  -21.9510  -23.6890 C.3    83  HIS83       0.1621
     48  C         -4.6920  -23.1330  -23.4210 C.2    83  HIS83       0.2264
     49  O         -4.2230  -23.8000  -24.3740 O.2    83  HIS83      -0.2867
     50  CB        -7.0780  -22.5750  -23.5970 C.3    83  HIS83       0.0745
     51  CG        -8.2110  -21.6820  -24.0150 C.ar   83  HIS83       0.0817
     52  ND1       -8.9330  -21.8880  -25.1670 N.ar   83  HIS83      -0.2268
     53  CD2       -8.8640  -20.6960  -23.3530 C.ar   83  HIS83       0.1154
     54  CE1       -9.9230  -21.0070  -25.2550 C.ar   83  HIS83       0.1986
     55  NE2       -9.8830  -20.2500  -24.1730 N.ar   83  HIS83      -0.2212
     56  N         -9.0120  -23.9870  -27.2600 N.3   107  ILE107     -0.1231
     57  CA        -9.6600  -25.2410  -26.8940 C.3   107  ILE107      0.1692
     58  C        -11.1650  -24.9600  -27.0780 C.2   107  ILE107      0.2592
     59  O        -11.6930  -24.0400  -26.4620 O.2   107  ILE107     -0.2718
     60  CB        -9.3740  -25.6170  -25.4260 C.3   107  ILE107      0.0266
     61  CG1       -7.8620  -25.8650  -25.2120 C.3   107  ILE107      0.0019
     62  CG2      -10.1980  -26.8140  -24.9750 C.3   107  ILE107      0.0020
     63  CD1       -7.3080  -27.1080  -25.8390 C.3   107  ILE107      0.0001
     64  N        -11.8100  -25.7650  -27.9070 N.am  108  LEU108     -0.1966
     65  CA       -13.2480  -25.6130  -28.2580 C.3   108  LEU108      0.1728
     66  C        -14.1940  -26.4310  -27.3950 C.2   108  LEU108      0.2617
     67  O        -15.3330  -26.0340  -27.2090 O.2   108  LEU108     -0.2715
     68  CB       -13.4590  -26.0160  -29.7200 C.3   108  LEU108      0.0311
     69  CG       -12.6010  -25.2700  -30.7320 C.3   108  LEU108      0.0022
     70  CD1      -12.8470  -25.8410  -32.0920 C.3   108  LEU108      0.0001
     71  CD2      -12.9430  -23.7940  -30.7030 C.3   108  LEU108      0.0001
     72  N        -13.7380  -27.5750  -26.8920 N.am  109  SER109     -0.1936
     73  CA       -14.6000  -28.5030  -26.1850 C.3   109  SER109      0.2055
     74  C        -13.7160  -29.6580  -25.7000 C.2   109  SER109      0.2643
     75  O        -12.6000  -29.8260  -26.1720 O.2   109  SER109     -0.2714
     76  CB       -15.6130  -29.1280  -27.1630 C.3   109  SER109      0.2130
     77  OG       -14.9790  -30.0900  -27.9640 O.3   109  SER109     -0.2179
     78  N        -14.2170  -30.4590  -24.7900 N.am  110  GLY110     -0.1954
     79  CA       -13.6200  -31.7450  -24.5060 C.3   110  GLY110      0.1869
     80  C        -14.3150  -32.5050  -23.4120 C.2   110  GLY110      0.2309
     81  O        -15.1030  -31.9530  -22.6020 O.2   110  GLY110     -0.2863
     82  N        -11.0830  -13.1590  -31.8190 N.3   519  ARG519     -0.1245
     83  CA       -12.2230  -13.4480  -32.6530 C.3   519  ARG519      0.1563
     84  C        -12.5850  -12.2500  -33.4920 C.2   519  ARG519      0.2260
     85  O        -12.7500  -12.3660  -34.7070 O.2   519  ARG519     -0.2867
     86  CB       -13.4240  -13.8560  -31.8400 C.3   519  ARG519      0.0307
     87  CG       -13.1240  -14.9550  -30.8580 C.3   519  ARG519      0.0489
     88  CD       -14.4200  -15.4660  -30.2630 C.3   519  ARG519      0.2205
     89  NE       -14.1750  -16.1420  -28.9930 N.pl3 519  ARG519     -0.0865
     90  CZ       -15.1560  -16.6770  -28.2780 C.cat 519  ARG519      0.5346
     91  NH1      -16.3970  -16.6590  -28.7130 N.pl3 519  ARG519      0.1354
     92  NH2      -14.9350  -17.2070  -27.1230 N.pl3 519  ARG519      0.1354
@<TRIPOS>BOND
     1    85    84    2
     2    84    83    1
     3    83    86    1
     4    83    82    1
     5    70    69    1
     6    86    87    1
     7    87    88    1
     8    69    71    1
     9    69    68    1
    10    88    89    1
    11    68    65    1
    12    89    90    2
    13    91    90    1
    14    90    92    1
    15    65    64    1
    16    65    66    1
    17    77    76    1
    18    64    58   am
    19    45    43   ar
    20    66    67    2
    21    66    72   am
    22    40    39    2
    23    56    57    1
    24    76    73    1
    25    58    57    1
    26    58    59    2
    27    57    60    1
    28    72    73    1
    29    41    38    1
    30    41    42    1
    31    39    38    1
    32    43    44   ar
    33    43    42    1
    34    73    74    1
    35    75    74    2
    36    38    37    1
    37    63    61    1
    38    74    78   am
    39    60    61    1
    40    60    62    1
    41    54    52   ar
    42    54    55   ar
    43    52    51   ar
    44    46    47    1
    45    78    79    1
    46    79    80    1
    47    49    48    2
    48    55    53   ar
    49    51    50    1
    50    51    53   ar
    51    47    50    1
    52    47    48    1
    53    80    81    2
    54    29    27    1
    55    35    34    1
    56    28    27    1
    57    27    26    1
    58    36    34    1
    59    14    13    1
    60    34    31    1
    61    26    23    1
    62     6     7    2
    63     6     8   am
    64     6     5    1
    65     5     2    1
    66    13    10    1
    67    23    24    1
    68    23    22    1
    69    31    32    1
    70    31    30    1
    71    18    17    2
    72    32    33    2
    73    24    25    2
    74    22    17   am
    75     2     3    1
    76     2     1    1
    77     4     3    2
    78    17    16    1
    79     3     9   am
    80     9    10    1
    81    10    11    1
    82    15    11   am
    83    15    16    1
    84    11    12    2
    85    16    19    1
    86    19    21    1
    87    19    20    1
