@<TRIPOS>MOLECULE
tmp/4re6C00.pdb
 174 169 0 0 0
SMALL
GASTEIGER

@<TRIPOS>ATOM
      1  N          5.3270   27.2790  -41.0920 N.3   109  ARG109     -0.1245
      2  CA         4.2500   28.2010  -40.7880 C.3   109  ARG109      0.1563
      3  C          4.7880   29.6120  -40.9590 C.2   109  ARG109      0.2260
      4  O          5.5390   30.1020  -40.1230 O.2   109  ARG109     -0.2867
      5  CB         3.7260   27.9930  -39.3790 C.3   109  ARG109      0.0307
      6  CG         2.5250   28.8570  -39.0520 C.3   109  ARG109      0.0489
      7  CD         2.3060   28.8970  -37.5300 C.3   109  ARG109      0.2205
      8  NE         1.8360   27.6330  -36.9440 N.pl3 109  ARG109     -0.0865
      9  CZ         0.6090   27.1270  -37.0830 C.cat 109  ARG109      0.5346
     10  NH1       -0.3180   27.7370  -37.8180 N.pl3 109  ARG109      0.1354
     11  NH2        0.3050   25.9730  -36.5080 N.pl3 109  ARG109      0.1354
     12  N          4.6450   33.3900  -40.6960 N.3   111  LEU111     -0.1245
     13  CA         3.9860   34.2520  -39.7400 C.3   111  LEU111      0.1561
     14  C          3.8280   35.6650  -40.2590 C.2   111  LEU111      0.2260
     15  O          2.8670   36.3620  -39.9270 O.2   111  LEU111     -0.2867
     16  CB         4.7850   34.2860  -38.4550 C.3   111  LEU111      0.0270
     17  CG         4.9250   32.9300  -37.7690 C.3   111  LEU111      0.0019
     18  CD1        5.8080   33.0280  -36.5260 C.3   111  LEU111      0.0001
     19  CD2        3.5620   32.3700  -37.4040 C.3   111  LEU111      0.0001
     20  N          6.7320   33.6590  -30.9140 N.3   149  PHE149     -0.1241
     21  CA         6.0580   34.1920  -32.1030 C.3   149  PHE149      0.1605
     22  C          6.5910   35.5860  -32.3650 C.2   149  PHE149      0.2264
     23  O          6.6290   36.4010  -31.4370 O.2   149  PHE149     -0.2867
     24  CB         4.5630   34.4310  -31.8360 C.3   149  PHE149      0.0534
     25  CG         3.6120   33.3250  -32.2220 C.ar  149  PHE149     -0.0203
     26  CD1        3.1910   33.1400  -33.5450 C.ar  149  PHE149     -0.0042
     27  CD2        3.0010   32.5680  -31.2170 C.ar  149  PHE149     -0.0042
     28  CE1        2.2590   32.1600  -33.8590 C.ar  149  PHE149     -0.0003
     29  CE2        2.0840   31.5750  -31.5270 C.ar  149  PHE149     -0.0003
     30  CZ         1.7120   31.3720  -32.8510 C.ar  149  PHE149     -0.0000
     31  N          6.9590   38.9000  -35.6050 N.3   151  PHE151     -0.1241
     32  CA         6.4100   39.4290  -36.8310 C.3   151  PHE151      0.1605
     33  C          7.2440   40.6010  -37.3530 C.2   151  PHE151      0.2264
     34  O          7.4860   41.5340  -36.6060 O.2   151  PHE151     -0.2867
     35  CB         4.9760   39.8900  -36.5810 C.3   151  PHE151      0.0534
     36  CG         4.1010   38.8350  -35.9850 C.ar  151  PHE151     -0.0203
     37  CD1        4.0500   38.6690  -34.6200 C.ar  151  PHE151     -0.0042
     38  CD2        3.3270   38.0060  -36.7960 C.ar  151  PHE151     -0.0042
     39  CE1        3.2700   37.6810  -34.0650 C.ar  151  PHE151     -0.0003
     40  CE2        2.5270   37.0280  -36.2460 C.ar  151  PHE151     -0.0003
     41  CZ         2.5040   36.8630  -34.8760 C.ar  151  PHE151     -0.0000
     42  N        -12.4640   34.5800  -30.9750 N.3   364  GLY364     -0.1210
     43  CA       -11.2680   33.7750  -30.8680 C.3   364  GLY364      0.1956
     44  C        -10.0870   34.6010  -30.4340 C.2   364  GLY364      0.2612
     45  O        -10.2470   35.7390  -30.0040 O.2   364  GLY364     -0.2717
     46  N         -8.8990   34.0280  -30.5210 N.am  365  GLY365     -0.1956
     47  CA        -7.6950   34.7190  -30.1500 C.3   365  GLY365      0.1869
     48  C         -6.9650   33.9660  -29.0570 C.2   365  GLY365      0.2309
     49  O         -6.3460   32.9660  -29.3370 O.2   365  GLY365     -0.2863
     50  N        -15.7340   30.1970  -31.8760 N.3   440  TYR440     -0.1227
     51  CA       -14.7410   29.5010  -32.6530 C.3   440  TYR440      0.1736
     52  C        -13.3470   29.7240  -32.0950 C.2   440  TYR440      0.2596
     53  O        -13.0050   30.7870  -31.5750 O.2   440  TYR440     -0.2718
     54  CB       -14.8570   29.9870  -34.0800 C.3   440  TYR440      0.0548
     55  CG       -13.9940   29.3240  -35.1590 C.ar  440  TYR440     -0.0200
     56  CD1      -14.4690   28.2780  -35.9740 C.ar  440  TYR440     -0.0009
     57  CD2      -12.7110   29.8190  -35.4240 C.ar  440  TYR440     -0.0009
     58  CE1      -13.6560   27.7460  -36.9860 C.ar  440  TYR440      0.0417
     59  CE2      -11.9010   29.2810  -36.4270 C.ar  440  TYR440      0.0417
     60  CZ       -12.3740   28.2440  -37.2020 C.ar  440  TYR440      0.1957
     61  OH       -11.5760   27.6940  -38.1830 O.3   440  TYR440     -0.2866
     62  N        -12.5330   28.6860  -32.2050 N.am  441  SER441     -0.1938
     63  CA       -11.1740   28.6900  -31.6800 C.3   441  SER441      0.2055
     64  C        -11.2390   28.9890  -30.1780 C.2   441  SER441      0.2643
     65  O        -11.9280   28.2880  -29.4520 O.2   441  SER441     -0.2714
     66  CB       -10.2840   29.6570  -32.4610 C.3   441  SER441      0.2130
     67  OG        -8.9560   29.5030  -32.0230 O.3   441  SER441     -0.2179
     68  N        -10.5230   29.9840  -29.6870 N.am  442  TYR442     -0.1973
     69  CA       -10.6450   30.2850  -28.2570 C.3   442  TYR442      0.1639
     70  C        -12.1280   30.4480  -27.8730 C.2   442  TYR442      0.2290
     71  O        -12.5140   30.2000  -26.7500 O.2   442  TYR442     -0.2864
     72  CB        -9.8160   31.5160  -27.8270 C.3   442  TYR442      0.0560
     73  CG        -9.5830   31.5430  -26.3290 C.ar  442  TYR442     -0.0198
     74  CD1       -8.5160   30.8370  -25.7540 C.ar  442  TYR442     -0.0009
     75  CD2      -10.4210   32.2310  -25.4750 C.ar  442  TYR442     -0.0009
     76  CE1       -8.2980   30.8540  -24.3930 C.ar  442  TYR442      0.0417
     77  CE2      -10.2020   32.2430  -24.0900 C.ar  442  TYR442      0.0417
     78  CZ        -9.1410   31.5430  -23.5670 C.ar  442  TYR442      0.1957
     79  OH        -8.9160   31.5310  -22.2230 O.3   442  TYR442     -0.2866
     80  N        -10.2970   24.5630  -28.3330 N.3   467  VAL467     -0.1245
     81  CA        -9.3080   24.0280  -27.4130 C.3   467  VAL467      0.1561
     82  C        -10.0820   23.1640  -26.4150 C.2   467  VAL467      0.2260
     83  O        -11.1300   23.5670  -25.9140 O.2   467  VAL467     -0.2867
     84  CB        -8.5720   25.0830  -26.5630 C.3   467  VAL467      0.0252
     85  CG1       -7.4980   24.4030  -25.7100 C.3   467  VAL467      0.0019
     86  CG2       -7.9290   26.1440  -27.4330 C.3   467  VAL467      0.0019
     87  N         -5.3510   21.5510  -22.8870 N.3   470  TRP470     -0.1241
     88  CA        -4.1450   22.3240  -23.0430 C.3   470  TRP470      0.1605
     89  C         -2.8950   21.4160  -23.0630 C.2   470  TRP470      0.2264
     90  O         -1.9030   21.7380  -23.7160 O.2   470  TRP470     -0.2867
     91  CB        -4.0170   23.3550  -21.9080 C.3   470  TRP470      0.0550
     92  CG        -4.9670   24.5240  -21.9450 C.ar  470  TRP470      0.0003
     93  CD1       -5.9760   24.7910  -21.0580 C.ar  470  TRP470      0.0946
     94  CD2       -4.9690   25.6110  -22.8850 C.ar  470  TRP470      0.0152
     95  NE1       -6.6180   25.9560  -21.4050 N.ar  470  TRP470     -0.2442
     96  CE2       -6.0260   26.4740  -22.5250 C.ar  470  TRP470      0.0810
     97  CE3       -4.2110   25.9130  -24.0250 C.ar  470  TRP470      0.0012
     98  CZ2       -6.3370   27.6110  -23.2480 C.ar  470  TRP470      0.0191
     99  CZ3       -4.5290   27.0490  -24.7440 C.ar  470  TRP470      0.0001
    100  CH2       -5.5770   27.8940  -24.3420 C.ar  470  TRP470      0.0015
    101  N         -2.7090   19.4310  -26.2840 N.3   473  MET473     -0.1245
    102  CA        -2.4500   20.4100  -27.3110 C.3   473  MET473      0.1570
    103  C         -1.0100   20.9050  -27.2870 C.2   473  MET473      0.2261
    104  O         -0.4370   21.1930  -28.3330 O.2   473  MET473     -0.2867
    105  CB        -3.3710   21.5950  -27.1520 C.3   473  MET473      0.0387
    106  CG        -3.4460   22.4350  -28.4140 C.3   473  MET473      0.0595
    107  SD        -4.7590   23.6530  -28.3840 S.3   473  MET473     -0.1393
    108  CE        -4.1920   24.7430  -27.0940 C.3   473  MET473      0.0692
    109  N          3.4010   27.8430  -31.1550 N.3   481  PHE481     -0.1241
    110  CA         2.1700   27.5930  -30.4230 C.3   481  PHE481      0.1605
    111  C          2.3970   26.9950  -29.0310 C.2   481  PHE481      0.2264
    112  O          1.6280   27.2190  -28.1090 O.2   481  PHE481     -0.2867
    113  CB         1.2130   26.7840  -31.3240 C.3   481  PHE481      0.0534
    114  CG         0.2570   27.6620  -32.0480 C.ar  481  PHE481     -0.0203
    115  CD1       -0.7060   28.3520  -31.3490 C.ar  481  PHE481     -0.0042
    116  CD2        0.4020   27.9040  -33.4170 C.ar  481  PHE481     -0.0042
    117  CE1       -1.5700   29.2370  -31.9920 C.ar  481  PHE481     -0.0003
    118  CE2       -0.4590   28.7850  -34.0710 C.ar  481  PHE481     -0.0003
    119  CZ        -1.4450   29.4560  -33.3520 C.ar  481  PHE481     -0.0000
    120  N          3.3090   29.9790  -26.9180 N.3   484  PHE484     -0.1227
    121  CA         2.0890   30.7160  -26.6330 C.3   484  PHE484      0.1736
    122  C          1.2190   30.0620  -25.5340 C.2   484  PHE484      0.2595
    123  O          0.7140   30.7490  -24.6290 O.2   484  PHE484     -0.2718
    124  CB         1.3470   30.8810  -27.9510 C.3   484  PHE484      0.0547
    125  CG         0.1450   31.7490  -27.8770 C.ar  484  PHE484     -0.0202
    126  CD1        0.2120   32.9960  -27.2840 C.ar  484  PHE484     -0.0042
    127  CD2       -1.0340   31.3570  -28.4540 C.ar  484  PHE484     -0.0042
    128  CE1       -0.9040   33.8150  -27.2290 C.ar  484  PHE484     -0.0003
    129  CE2       -2.1570   32.1800  -28.4130 C.ar  484  PHE484     -0.0003
    130  CZ        -2.0940   33.4130  -27.8020 C.ar  484  PHE484     -0.0000
    131  N          1.0780   28.7420  -25.5980 N.am  485  ILE485     -0.1980
    132  CA         0.3610   27.9970  -24.5590 C.3   485  ILE485      0.1595
    133  C          1.0260   28.1700  -23.1930 C.2   485  ILE485      0.2287
    134  O          0.3450   28.3190  -22.1810 O.2   485  ILE485     -0.2864
    135  CB         0.2390   26.4960  -24.9090 C.3   485  ILE485      0.0276
    136  CG1       -0.7170   26.3070  -26.1030 C.3   485  ILE485      0.0022
    137  CG2       -0.2790   25.6920  -23.7150 C.3   485  ILE485      0.0022
    138  CD1       -0.5110   25.0210  -26.8710 C.3   485  ILE485      0.0001
    139  N          0.0190   31.8150  -21.9400 N.3   488  LEU488     -0.1245
    140  CA        -1.3880   31.9040  -21.4600 C.3   488  LEU488      0.1561
    141  C         -1.6620   31.2110  -20.1500 C.2   488  LEU488      0.2260
    142  O         -2.5140   31.6580  -19.3430 O.2   488  LEU488     -0.2867
    143  CB        -2.3610   31.3220  -22.4850 C.3   488  LEU488      0.0270
    144  CG        -2.5040   32.0330  -23.7970 C.3   488  LEU488      0.0019
    145  CD1       -3.6050   31.3960  -24.6410 C.3   488  LEU488      0.0001
    146  CD2       -2.7950   33.4980  -23.5800 C.3   488  LEU488      0.0001
    147  N         -3.5370   24.6570  -35.2450 N.3   522  ARG522     -0.1231
    148  CA        -3.6080   25.5100  -34.0640 C.3   522  ARG522      0.1694
    149  C         -4.4590   24.8140  -32.9910 C.2   522  ARG522      0.2592
    150  O         -4.0310   24.6450  -31.8700 O.2   522  ARG522     -0.2718
    151  CB        -4.1800   26.8780  -34.4340 C.3   522  ARG522      0.0321
    152  CG        -3.5720   27.4070  -35.7170 C.3   522  ARG522      0.0489
    153  CD        -3.6260   28.9010  -35.7750 C.3   522  ARG522      0.2205
    154  NE        -3.8620   29.3760  -37.1230 N.pl3 522  ARG522     -0.0865
    155  CZ        -4.2750   30.5990  -37.4110 C.cat 522  ARG522      0.5346
    156  NH1       -4.5080   31.4820  -36.4570 N.pl3 522  ARG522      0.1354
    157  NH2       -4.4490   30.9440  -38.6670 N.pl3 522  ARG522      0.1354
    158  N         -5.6600   24.4050  -33.3840 N.am  523  THR523     -0.1953
    159  CA        -6.5470   23.6190  -32.5290 C.3   523  THR523      0.1897
    160  C         -6.7060   22.2450  -33.1540 C.2   523  THR523      0.2313
    161  O         -7.5560   22.0470  -34.0140 O.2   523  THR523     -0.2863
    162  CB        -7.8990   24.2820  -32.3790 C.3   523  THR523      0.1794
    163  OG1       -8.3250   24.7810  -33.6490 O.3   523  THR523     -0.2208
    164  CG2       -7.7560   25.4190  -31.4120 C.3   523  THR523      0.0378
    165  N         -7.3400   25.6870  -39.4180 N.3   552  HIS552     -0.1241
    166  CA        -7.8140   26.8500  -38.7100 C.3   552  HIS552      0.1621
    167  C         -8.2100   28.0020  -39.6130 C.2   552  HIS552      0.2264
    168  O         -9.1290   28.7660  -39.2750 O.2   552  HIS552     -0.2867
    169  CB        -6.7830   27.3470  -37.7120 C.3   552  HIS552      0.0745
    170  CG        -7.3820   27.9480  -36.4890 C.ar  552  HIS552      0.0817
    171  ND1       -7.8720   27.1860  -35.4510 N.ar  552  HIS552     -0.2268
    172  CD2       -7.5810   29.2330  -36.1320 C.ar  552  HIS552      0.1154
    173  CE1       -8.3280   27.9740  -34.4970 C.ar  552  HIS552      0.1986
    174  NE2       -8.1850   29.2240  -34.8950 N.ar  552  HIS552     -0.2212
@<TRIPOS>BOND
     1     1     2    1
     2     3     2    1
     3     3     4    2
     4     2     5    1
     5    12    13    1
     6    14    15    2
     7    14    13    1
     8    13    16    1
     9   167   168    2
    10   167   166    1
    11   165   166    1
    12     5     6    1
    13     6     7    1
    14   166   169    1
    15   157   155    1
    16    16    17    1
    17    61    60    1
    18    10     9    1
    19    17    19    1
    20    17    18    1
    21   169   170    1
    22     7     8    1
    23   155   154    2
    24   155   156    1
    25    33    32    1
    26    33    34    2
    27    60    58   ar
    28    60    59   ar
    29   154   153    1
    30     9     8    2
    31     9    11    1
    32    58    56   ar
    33    32    35    1
    34    32    31    1
    35    38    40   ar
    36    38    36   ar
    37    35    36    1
    38   170   172   ar
    39   170   171   ar
    40    59    57   ar
    41    40    41   ar
    42   172   174   ar
    43    36    37   ar
    44    56    55   ar
    45   153   152    1
    46   152   151    1
    47   171   173   ar
    48    57    55   ar
    49   147   148    1
    50    55    54    1
    51   174   173   ar
    52    41    39   ar
    53    37    39   ar
    54   151   148    1
    55    54    51    1
    56   118   116   ar
    57   118   119   ar
    58   148   149    1
    59   161   160    2
    60    28    26   ar
    61    28    30   ar
    62   163   162    1
    63    26    25   ar
    64   116   114   ar
    65   158   149   am
    66   158   159    1
    67   119   117   ar
    68   160   159    1
    69   149   150    2
    70    30    29   ar
    71    51    52    1
    72    51    50    1
    73   159   162    1
    74    66    67    1
    75    66    63    1
    76   162   164    1
    77    22    21    1
    78    22    23    2
    79    25    24    1
    80    25    27   ar
    81    62    52   am
    82    62    63    1
    83    21    24    1
    84    21    20    1
    85    52    53    2
    86   114   115   ar
    87   114   113    1
    88   117   115   ar
    89    63    64    1
    90    29    27   ar
    91   113   110    1
    92   109   110    1
    93    42    43    1
    94    43    44    1
    95    46    44   am
    96    46    47    1
    97    44    45    2
    98   110   111    1
    99    64    68   am
   100    64    65    2
   101    47    48    1
   102    68    69    1
   103    49    48    2
   104   111   112    2
   105   127   129   ar
   106   127   125   ar
   107   106   107    1
   108   106   105    1
   109   129   130   ar
   110   107   108    1
   111   104   103    2
   112    80    81    1
   113    69    70    1
   114    69    72    1
   115   124   125    1
   116   124   121    1
   117   125   126   ar
   118    70    71    2
   119    72    73    1
   120   130   128   ar
   121    86    84    1
   122    81    84    1
   123    81    82    1
   124   102   103    1
   125   102   105    1
   126   102   101    1
   127   126   128   ar
   128   120   121    1
   129   138   136    1
   130   121   122    1
   131    84    85    1
   132    82    83    2
   133    73    74   ar
   134    73    75   ar
   135   136   135    1
   136    74    76   ar
   137   131   122   am
   138   131   132    1
   139   122   123    2
   140    75    77   ar
   141   135   132    1
   142   135   137    1
   143    99   100   ar
   144    99    97   ar
   145   145   144    1
   146   132   133    1
   147    76    78   ar
   148   100    98   ar
   149    77    78   ar
   150    97    94   ar
   151   144   146    1
   152   144   143    1
   153    90    89    2
   154    78    79    1
   155    98    96   ar
   156   133   134    2
   157    89    88    1
   158    88    87    1
   159    88    91    1
   160    94    96   ar
   161    94    92   ar
   162    96    95   ar
   163   143   140    1
   164    92    91    1
   165    92    93   ar
   166   139   140    1
   167   140   141    1
   168    95    93   ar
   169   141   142    2
