@<TRIPOS>MOLECULE
tmp/4re6A00.pdb
 155 152 0 0 0
SMALL
GASTEIGER

@<TRIPOS>ATOM
      1  N        -13.9500  -24.6410  -16.7150 N.3   149  PHE149     -0.1241
      2  CA       -13.4920  -25.0670  -15.3940 C.3   149  PHE149      0.1605
      3  C        -14.1300  -26.3990  -15.0630 C.2   149  PHE149      0.2264
      4  O        -15.3560  -26.5340  -15.1750 O.2   149  PHE149     -0.2867
      5  CB       -14.0320  -24.1390  -14.2740 C.3   149  PHE149      0.0534
      6  CG       -13.1490  -22.9960  -13.8620 C.ar  149  PHE149     -0.0203
      7  CD1      -12.0750  -23.1710  -12.9830 C.ar  149  PHE149     -0.0042
      8  CD2      -13.4730  -21.7060  -14.2640 C.ar  149  PHE149     -0.0042
      9  CE1      -11.3090  -22.0930  -12.5720 C.ar  149  PHE149     -0.0003
     10  CE2      -12.7090  -20.6250  -13.8480 C.ar  149  PHE149     -0.0003
     11  CZ       -11.6250  -20.8200  -13.0010 C.ar  149  PHE149     -0.0000
     12  N        -13.7350  -30.0730  -12.2580 N.3   151  PHE151     -0.1241
     13  CA       -13.1900  -30.5810  -11.0130 C.3   151  PHE151      0.1605
     14  C        -13.4530  -32.0760  -10.8670 C.2   151  PHE151      0.2264
     15  O        -14.5990  -32.5030  -11.0140 O.2   151  PHE151     -0.2867
     16  CB       -13.8620  -29.8560   -9.8380 C.3   151  PHE151      0.0534
     17  CG       -13.7600  -28.3680   -9.9200 C.ar  151  PHE151     -0.0203
     18  CD1      -14.7000  -27.6500  -10.6350 C.ar  151  PHE151     -0.0042
     19  CD2      -12.6810  -27.6830   -9.3190 C.ar  151  PHE151     -0.0042
     20  CE1      -14.5760  -26.2860  -10.7650 C.ar  151  PHE151     -0.0003
     21  CE2      -12.5590  -26.3100   -9.4340 C.ar  151  PHE151     -0.0003
     22  CZ       -13.5140  -25.6170  -10.1530 C.ar  151  PHE151     -0.0000
     23  N        -16.8570  -12.9620   -1.7720 N.3   364  GLY364     -0.1210
     24  CA       -16.2700  -13.1750   -3.0930 C.3   364  GLY364      0.1956
     25  C        -17.0050  -14.2470   -3.8470 C.2   364  GLY364      0.2612
     26  O        -18.0550  -14.7000   -3.4140 O.2   364  GLY364     -0.2717
     27  N        -16.4390  -14.6800   -4.9560 N.am  365  GLY365     -0.1956
     28  CA       -16.9970  -15.7650   -5.7230 C.3   365  GLY365      0.1869
     29  C        -17.2370  -15.3040   -7.1310 C.2   365  GLY365      0.2309
     30  O        -16.3040  -15.2100   -7.8950 O.2   365  GLY365     -0.2863
     31  N        -13.6940   -8.4860   -0.7960 N.3   440  TYR440     -0.1227
     32  CA       -12.5430   -9.0170   -1.4730 C.3   440  TYR440      0.1736
     33  C        -12.9560   -9.8140   -2.7140 C.2   440  TYR440      0.2596
     34  O        -13.9920  -10.4860   -2.7440 O.2   440  TYR440     -0.2718
     35  CB       -11.7700   -9.8600   -0.4600 C.3   440  TYR440      0.0548
     36  CG       -10.4210  -10.4810   -0.8750 C.ar  440  TYR440     -0.0200
     37  CD1      -10.3670  -11.7740   -1.4110 C.ar  440  TYR440     -0.0009
     38  CD2       -9.2040   -9.8190   -0.6650 C.ar  440  TYR440     -0.0009
     39  CE1       -9.1630  -12.3580   -1.7820 C.ar  440  TYR440      0.0417
     40  CE2       -7.9870  -10.4190   -1.0170 C.ar  440  TYR440      0.0417
     41  CZ        -7.9760  -11.6770   -1.5810 C.ar  440  TYR440      0.1957
     42  OH        -6.7760  -12.2550   -1.9480 O.3   440  TYR440     -0.2866
     43  N        -12.1090   -9.7320   -3.7330 N.am  441  SER441     -0.1938
     44  CA       -12.3380  -10.3870   -5.0000 C.3   441  SER441      0.2055
     45  C        -13.6690   -9.8880   -5.5770 C.2   441  SER441      0.2643
     46  O        -13.8660   -8.6950   -5.6900 O.2   441  SER441     -0.2714
     47  CB       -12.2610  -11.9090   -4.8390 C.3   441  SER441      0.2130
     48  OG       -12.3460  -12.4900   -6.1090 O.3   441  SER441     -0.2179
     49  N        -14.6000  -10.7590   -5.9270 N.am  442  TYR442     -0.1973
     50  CA       -15.9120  -10.2680   -6.3830 C.3   442  TYR442      0.1639
     51  C        -16.4990   -9.2740   -5.3620 C.2   442  TYR442      0.2290
     52  O        -17.2080   -8.3590   -5.7310 O.2   442  TYR442     -0.2864
     53  CB       -16.9170  -11.4050   -6.6790 C.3   442  TYR442      0.0560
     54  CG       -18.0400  -10.9500   -7.5850 C.ar  442  TYR442     -0.0198
     55  CD1      -17.8720  -10.9220   -8.9760 C.ar  442  TYR442     -0.0009
     56  CD2      -19.2480  -10.4780   -7.0560 C.ar  442  TYR442     -0.0009
     57  CE1      -18.8790  -10.4630   -9.8060 C.ar  442  TYR442      0.0417
     58  CE2      -20.2670  -10.0220   -7.8740 C.ar  442  TYR442      0.0417
     59  CZ       -20.0810  -10.0160   -9.2470 C.ar  442  TYR442      0.1957
     60  OH       -21.0650   -9.5460  -10.0720 O.3   442  TYR442     -0.2866
     61  N        -12.1460   -6.8600   -9.1030 N.3   467  VAL467     -0.1245
     62  CA       -12.3730   -6.7830  -10.5490 C.3   467  VAL467      0.1561
     63  C        -12.6400   -5.3270  -10.8280 C.2   467  VAL467      0.2260
     64  O        -13.4070   -4.6830  -10.1050 O.2   467  VAL467     -0.2867
     65  CB       -13.6110   -7.5510  -11.0550 C.3   467  VAL467      0.0252
     66  CG1      -13.6910   -7.4520  -12.5810 C.3   467  VAL467      0.0019
     67  CG2      -13.5500   -9.0140  -10.6560 C.3   467  VAL467      0.0019
     68  N        -13.6750   -5.8620  -16.8190 N.3   470  TRP470     -0.1241
     69  CA       -13.9290   -7.1860  -17.3420 C.3   470  TRP470      0.1605
     70  C        -13.2290   -7.4240  -18.6860 C.2   470  TRP470      0.2264
     71  O        -12.7820   -8.5340  -18.9670 O.2   470  TRP470     -0.2867
     72  CB       -15.4310   -7.4190  -17.5280 C.3   470  TRP470      0.0550
     73  CG       -16.2570   -7.5680  -16.2860 C.ar  470  TRP470      0.0003
     74  CD1      -17.2280   -6.7190  -15.8450 C.ar  470  TRP470      0.0946
     75  CD2      -16.2270   -8.6440  -15.3520 C.ar  470  TRP470      0.0152
     76  NE1      -17.7880   -7.1820  -14.6940 N.ar  470  TRP470     -0.2442
     77  CE2      -17.1990   -8.3630  -14.3660 C.ar  470  TRP470      0.0810
     78  CE3      -15.4550   -9.8040  -15.2300 C.ar  470  TRP470      0.0012
     79  CZ2      -17.4200   -9.1850  -13.2740 C.ar  470  TRP470      0.0191
     80  CZ3      -15.6890  -10.6330  -14.1480 C.ar  470  TRP470      0.0001
     81  CH2      -16.6570  -10.3210  -13.1840 C.ar  470  TRP470      0.0015
     82  N         -9.4190   -7.6710  -18.0920 N.3   473  MET473     -0.1245
     83  CA        -9.2400   -8.9020  -17.3410 C.3   473  MET473      0.1570
     84  C         -9.4040  -10.1280  -18.2230 C.2   473  MET473      0.2261
     85  O         -8.7370  -11.1370  -18.0280 O.2   473  MET473     -0.2867
     86  CB       -10.2540   -8.9820  -16.2300 C.3   473  MET473      0.0387
     87  CG        -9.8710  -10.0020  -15.1970 C.3   473  MET473      0.0595
     88  SD       -10.8490   -9.8810  -13.7080 S.3   473  MET473     -0.1393
     89  CE       -12.4310  -10.4080  -14.2730 C.3   473  MET473      0.0692
     90  N        -10.4540  -18.9780  -16.6510 N.3   481  PHE481     -0.1241
     91  CA       -10.9780  -17.7040  -16.1840 C.3   481  PHE481      0.1605
     92  C        -11.6100  -16.8750  -17.3110 C.2   481  PHE481      0.2264
     93  O        -12.5630  -16.1430  -17.0850 O.2   481  PHE481     -0.2867
     94  CB        -9.8970  -16.9800  -15.3830 C.3   481  PHE481      0.0534
     95  CG       -10.0280  -17.2410  -13.9230 C.ar  481  PHE481     -0.0203
     96  CD1      -11.1090  -16.7350  -13.2290 C.ar  481  PHE481     -0.0042
     97  CD2       -9.1450  -18.0780  -13.2680 C.ar  481  PHE481     -0.0042
     98  CE1      -11.2940  -17.0150  -11.8920 C.ar  481  PHE481     -0.0003
     99  CE2       -9.3180  -18.3630  -11.9210 C.ar  481  PHE481     -0.0003
    100  CZ       -10.3970  -17.8310  -11.2320 C.ar  481  PHE481     -0.0000
    101  N        -15.0340  -18.4650  -17.7030 N.3   484  PHE484     -0.1227
    102  CA       -15.8660  -18.0150  -16.5890 C.3   484  PHE484      0.1736
    103  C        -16.3640  -16.5790  -16.7640 C.2   484  PHE484      0.2595
    104  O        -17.5480  -16.2860  -16.5230 O.2   484  PHE484     -0.2718
    105  CB       -15.0570  -18.1880  -15.3170 C.3   484  PHE484      0.0547
    106  CG       -15.8140  -17.9470  -14.0670 C.ar  484  PHE484     -0.0202
    107  CD1      -17.0580  -18.5160  -13.8670 C.ar  484  PHE484     -0.0042
    108  CD2      -15.2500  -17.2180  -13.0430 C.ar  484  PHE484     -0.0042
    109  CE1      -17.7410  -18.3220  -12.6800 C.ar  484  PHE484     -0.0003
    110  CE2      -15.9370  -17.0160  -11.8500 C.ar  484  PHE484     -0.0003
    111  CZ       -17.1830  -17.5750  -11.6720 C.ar  484  PHE484     -0.0000
    112  N        -15.4870  -15.6960  -17.2380 N.am  485  ILE485     -0.1980
    113  CA       -15.8770  -14.3050  -17.5190 C.3   485  ILE485      0.1595
    114  C        -16.9460  -14.2600  -18.6080 C.2   485  ILE485      0.2287
    115  O        -17.8890  -13.4750  -18.5180 O.2   485  ILE485     -0.2864
    116  CB       -14.6580  -13.4160  -17.9070 C.3   485  ILE485      0.0276
    117  CG1      -13.7470  -13.1880  -16.6840 C.3   485  ILE485      0.0022
    118  CG2      -15.1080  -12.0650  -18.4440 C.3   485  ILE485      0.0022
    119  CD1      -12.3130  -12.8470  -17.0360 C.3   485  ILE485      0.0001
    120  N        -20.3320  -15.3470  -16.8370 N.3   488  LEU488     -0.1245
    121  CA       -20.9260  -14.3030  -15.9620 C.3   488  LEU488      0.1561
    122  C        -21.5090  -13.1150  -16.7070 C.2   488  LEU488      0.2260
    123  O        -22.5220  -12.5070  -16.2650 O.2   488  LEU488     -0.2867
    124  CB       -19.8980  -13.7470  -14.9860 C.3   488  LEU488      0.0270
    125  CG       -19.3960  -14.6690  -13.9150 C.3   488  LEU488      0.0019
    126  CD1      -18.4800  -13.9270  -12.9560 C.3   488  LEU488      0.0001
    127  CD2      -20.5440  -15.3110  -13.1650 C.3   488  LEU488      0.0001
    128  N         -6.1820  -14.2900  -10.7990 N.3   522  ARG522     -0.1231
    129  CA        -7.6400  -14.2880  -10.9380 C.3   522  ARG522      0.1694
    130  C         -8.1190  -12.8580  -11.1160 C.2   522  ARG522      0.2592
    131  O         -8.8370  -12.5400  -12.0580 O.2   522  ARG522     -0.2718
    132  CB        -8.2790  -14.9380   -9.7330 C.3   522  ARG522      0.0321
    133  CG        -7.5670  -16.2230   -9.3570 C.3   522  ARG522      0.0489
    134  CD        -8.4750  -17.1800   -8.6220 C.3   522  ARG522      0.2205
    135  NE        -7.7650  -17.9260   -7.5900 N.pl3 522  ARG522     -0.0865
    136  CZ        -8.3640  -18.5330   -6.5730 C.cat 522  ARG522      0.5346
    137  NH1       -9.6790  -18.4830   -6.4340 N.pl3 522  ARG522      0.1354
    138  NH2       -7.6520  -19.1740   -5.6740 N.pl3 522  ARG522      0.1354
    139  N         -7.6770  -11.9860  -10.2140 N.am  523  THR523     -0.1953
    140  CA        -7.9370  -10.5450  -10.3100 C.3   523  THR523      0.1897
    141  C         -6.6460   -9.8040  -10.4840 C.2   523  THR523      0.2313
    142  O         -5.9590   -9.5160   -9.5060 O.2   523  THR523     -0.2863
    143  CB        -8.6410  -10.0310   -9.0590 C.3   523  THR523      0.1794
    144  OG1       -8.0430  -10.6040   -7.8980 O.3   523  THR523     -0.2208
    145  CG2      -10.0770  -10.4360   -9.1440 C.3   523  THR523      0.0378
    146  N         -4.0550  -14.3270   -5.4520 N.3   552  HIS552     -0.1241
    147  CA        -5.4230  -14.4050   -4.9230 C.3   552  HIS552      0.1621
    148  C         -5.5540  -15.2440   -3.6580 C.2   552  HIS552      0.2264
    149  O         -6.3950  -14.9760   -2.8120 O.2   552  HIS552     -0.2867
    150  CB        -6.3750  -14.9650   -5.9800 C.3   552  HIS552      0.0745
    151  CG        -7.7610  -14.4370   -5.8630 C.ar  552  HIS552      0.0817
    152  ND1       -8.1180  -13.1910   -6.3350 N.ar  552  HIS552     -0.2268
    153  CD2       -8.8700  -14.9640   -5.3050 C.ar  552  HIS552      0.1154
    154  CE1       -9.3930  -12.9840   -6.0930 C.ar  552  HIS552      0.1986
    155  NE2       -9.8770  -14.0470   -5.4720 N.ar  552  HIS552     -0.2212
@<TRIPOS>BOND
     1    71    70    2
     2    70    69    1
     3   114   115    2
     4   114   113    1
     5   118   116    1
     6    84    85    2
     7    84    83    1
     8    82    83    1
     9   116   113    1
    10   116   117    1
    11   101   102    1
    12    72    69    1
    13    72    73    1
    14   113   112    1
    15    69    68    1
    16    83    86    1
    17    92    93    2
    18    92    91    1
    19   112   103   am
    20   119   117    1
    21   120   121    1
    22   103   102    1
    23   103   104    2
    24     1     2    1
    25   122   123    2
    26   122   121    1
    27    90    91    1
    28   102   105    1
    29    73    74   ar
    30    73    75   ar
    31    86    87    1
    32    91    94    1
    33   121   124    1
    34    74    76   ar
    35     2     3    1
    36     2     5    1
    37    94    95    1
    38    75    78   ar
    39    75    77   ar
    40   105   106    1
    41    78    80   ar
    42    87    88    1
    43     4     3    2
    44   124   125    1
    45    76    77   ar
    46    77    79   ar
    47     5     6    1
    48    89    88    1
    49     8     6   ar
    50     8    10   ar
    51    80    81   ar
    52   106   107   ar
    53   106   108   ar
    54    95    97   ar
    55    95    96   ar
    56   125   127    1
    57   125   126    1
    58   107   109   ar
    59     6     7   ar
    60    10    11   ar
    61    79    81   ar
    62    97    99   ar
    63    96    98   ar
    64   108   110   ar
    65    11     9   ar
    66     7     9   ar
    67   109   111   ar
    68    66    65    1
    69    12    13    1
    70   131   130    2
    71    99   100   ar
    72    98   100   ar
    73   110   111   ar
    74   130   129    1
    75   130   139   am
    76    65    67    1
    77    65    62    1
    78    15    14    2
    79    13    14    1
    80    13    16    1
    81   129   128    1
    82   129   132    1
    83    63    62    1
    84    63    64    2
    85    20    18   ar
    86    20    22   ar
    87    18    17   ar
    88    62    61    1
    89   141   140    1
    90   141   142    2
    91   140   139    1
    92   140   143    1
    93    22    21   ar
    94    60    59    1
    95    17    16    1
    96    17    19   ar
    97    57    59   ar
    98    57    55   ar
    99   132   133    1
   100    21    19   ar
   101   133   134    1
   102    59    58   ar
   103   145   143    1
   104   143   144    1
   105    55    54   ar
   106   134   135    1
   107    30    29    2
   108    58    56   ar
   109   135   136    2
   110    54    56   ar
   111    54    53    1
   112    29    28    1
   113    53    50    1
   114   136   137    1
   115   136   138    1
   116    50    49    1
   117    50    51    1
   118   152   154   ar
   119   152   151   ar
   120    48    47    1
   121   154   155   ar
   122   150   151    1
   123   150   147    1
   124    49    45   am
   125   151   153   ar
   126    52    51    2
   127    28    27    1
   128    46    45    2
   129    45    44    1
   130   155   153   ar
   131   146   147    1
   132    44    47    1
   133    44    43    1
   134    27    25   am
   135   147   148    1
   136    25    26    2
   137    25    24    1
   138    43    33   am
   139   148   149    2
   140    24    23    1
   141    34    33    2
   142    33    32    1
   143    42    41    1
   144    39    41   ar
   145    39    37   ar
   146    41    40   ar
   147    32    31    1
   148    32    35    1
   149    37    36   ar
   150    40    38   ar
   151    36    38   ar
   152    36    35    1
