@<TRIPOS>MOLECULE
tmp/4re9A04.pdb
 128 118 0 0 0
SMALL
GASTEIGER

@<TRIPOS>ATOM
      1  N         76.6000  123.4460   72.6900 N.3   156  ALA156     -0.1245
      2  CA        75.5930  124.4760   72.9530 C.3   156  ALA156      0.1562
      3  C         74.8140  124.8420   71.6920 C.2   156  ALA156      0.2260
      4  O         73.5860  124.9370   71.7100 O.2   156  ALA156     -0.2867
      5  CB        76.2410  125.7110   73.5350 C.3   156  ALA156      0.0290
      6  N         72.6180  121.7980   70.3520 N.3   159  LEU159     -0.1231
      7  CA        71.3670  121.6610   71.0860 C.3   159  LEU159      0.1693
      8  C         70.4350  122.8150   70.7820 C.2   159  LEU159      0.2592
      9  O         69.2200  122.6360   70.6930 O.2   159  LEU159     -0.2718
     10  CB        71.6270  121.5850   72.5880 C.3   159  LEU159      0.0284
     11  CG        72.3310  120.3130   73.0460 C.3   159  LEU159      0.0019
     12  CD1       72.5470  120.3390   74.5500 C.3   159  LEU159      0.0001
     13  CD2       71.4950  119.1170   72.6320 C.3   159  LEU159      0.0001
     14  N         71.0220  123.9980   70.6310 N.am  160  PHE160     -0.1976
     15  CA        70.2830  125.2060   70.2880 C.3   160  PHE160      0.1639
     16  C         69.4600  124.9740   69.0350 C.2   160  PHE160      0.2290
     17  O         68.2520  125.2230   69.0200 O.2   160  PHE160     -0.2864
     18  CB        71.2530  126.3780   70.0980 C.3   160  PHE160      0.0560
     19  CG        70.6140  127.6360   69.5680 C.ar  160  PHE160     -0.0200
     20  CD1       69.8410  128.4360   70.3840 C.ar  160  PHE160     -0.0042
     21  CD2       70.8180  128.0330   68.2570 C.ar  160  PHE160     -0.0042
     22  CE1       69.2730  129.5960   69.8960 C.ar  160  PHE160     -0.0003
     23  CE2       70.2460  129.1910   67.7730 C.ar  160  PHE160     -0.0003
     24  CZ        69.4810  129.9700   68.5900 C.ar  160  PHE160     -0.0000
     25  N         68.9730  122.0130   67.6070 N.3   162  LEU162     -0.1231
     26  CA        68.2110  120.7790   67.7240 C.3   162  LEU162      0.1693
     27  C         66.8080  121.0320   68.2750 C.2   162  LEU162      0.2591
     28  O         65.8430  120.3900   67.8570 O.2   162  LEU162     -0.2718
     29  CB        68.9410  119.7730   68.6060 C.3   162  LEU162      0.0284
     30  CG        68.1630  118.4630   68.7750 C.3   162  LEU162      0.0019
     31  CD1       67.9690  117.7880   67.4210 C.3   162  LEU162      0.0001
     32  CD2       68.8150  117.5290   69.7840 C.3   162  LEU162      0.0001
     33  N         66.6980  121.9580   69.2230 N.am  163  GLU163     -0.1979
     34  CA        65.3980  122.3080   69.7840 C.3   163  GLU163      0.1602
     35  C         64.5070  122.8350   68.6660 C.2   163  GLU163      0.2287
     36  O         63.3510  122.4240   68.5290 O.2   163  GLU163     -0.2864
     37  CB        65.5440  123.3470   70.8980 C.3   163  GLU163      0.0415
     38  CG        64.2840  123.5630   71.7320 C.3   163  GLU163      0.1163
     39  CD        64.4370  124.6910   72.7520 C.2   163  GLU163      0.3649
     40  OE1       65.2560  125.6010   72.5160 O.co2 163  GLU163     -0.2457
     41  OE2       63.7450  124.6670   73.7950 O.co2 163  GLU163     -0.2457
     42  N         62.9710  120.2710   66.3810 N.3   166  THR166     -0.1218
     43  CA        62.0480  119.2830   66.9310 C.3   166  THR166      0.1862
     44  C         60.6560  119.8610   67.1740 C.2   166  THR166      0.2287
     45  O         59.7770  119.1920   67.7280 O.2   166  THR166     -0.2866
     46  CB        62.5800  118.6990   68.2450 C.3   166  THR166      0.1770
     47  OG1       62.6550  119.7350   69.2310 O.3   166  THR166     -0.2211
     48  CG2       63.9540  118.0970   68.0300 C.3   166  THR166      0.0375
     49  N         63.7320  113.1990   74.2420 N.3   260  TYR260     -0.1241
     50  CA        64.8230  113.2040   73.2720 C.3   260  TYR260      0.1605
     51  C         66.1360  112.7410   73.8990 C.2   260  TYR260      0.2264
     52  O         66.5410  113.2280   74.9530 O.2   260  TYR260     -0.2867
     53  CB        64.9950  114.5970   72.6660 C.3   260  TYR260      0.0534
     54  CG        63.7560  115.1330   71.9780 C.ar  260  TYR260     -0.0201
     55  CD1       62.7320  115.7200   72.7070 C.ar  260  TYR260     -0.0009
     56  CD2       63.6160  115.0620   70.5950 C.ar  260  TYR260     -0.0009
     57  CE1       61.5960  116.2140   72.0800 C.ar  260  TYR260      0.0417
     58  CE2       62.4870  115.5580   69.9580 C.ar  260  TYR260      0.0417
     59  CZ        61.4760  116.1320   70.7070 C.ar  260  TYR260      0.1957
     60  OH        60.3460  116.6240   70.0810 O.3   260  TYR260     -0.2866
     61  N         70.1720  112.4370   73.2020 N.3   262  ILE262     -0.1245
     62  CA        71.0970  113.1560   72.3420 C.3   262  ILE262      0.1561
     63  C         72.5560  112.8230   72.6300 C.2   262  ILE262      0.2260
     64  O         72.9680  112.7480   73.7850 O.2   262  ILE262     -0.2867
     65  CB        70.8900  114.6780   72.4880 C.3   262  ILE262      0.0252
     66  CG1       69.4290  115.0360   72.2250 C.3   262  ILE262      0.0019
     67  CG2       71.8310  115.4460   71.5680 C.3   262  ILE262      0.0019
     68  CD1       68.9950  116.2980   72.9000 C.3   262  ILE262      0.0001
     69  N         67.4200  118.3210   80.2090 N.3   272  TYR272     -0.1241
     70  CA        66.6940  119.5380   79.9100 C.3   272  TYR272      0.1605
     71  C         65.2040  119.2880   80.0070 C.2   272  TYR272      0.2264
     72  O         64.6620  118.4530   79.2850 O.2   272  TYR272     -0.2867
     73  CB        67.0450  120.0590   78.5130 C.3   272  TYR272      0.0534
     74  CG        68.5080  120.3750   78.3250 C.ar  272  TYR272     -0.0201
     75  CD1       69.4240  119.3790   78.0090 C.ar  272  TYR272     -0.0009
     76  CD2       68.9820  121.6740   78.4800 C.ar  272  TYR272     -0.0009
     77  CE1       70.7800  119.6720   77.8410 C.ar  272  TYR272      0.0417
     78  CE2       70.3270  121.9780   78.3150 C.ar  272  TYR272      0.0417
     79  CZ        71.2220  120.9750   77.9970 C.ar  272  TYR272      0.1957
     80  OH        72.5590  121.2770   77.8400 O.3   272  TYR272     -0.2866
     81  N         61.5770  121.2990   79.5760 N.3   274  THR274     -0.1218
     82  CA        61.0810  122.5160   78.9440 C.3   274  THR274      0.1862
     83  C         59.5550  122.5580   78.9440 C.2   274  THR274      0.2287
     84  O         58.9010  121.5890   78.5620 O.2   274  THR274     -0.2866
     85  CB        61.6010  122.6370   77.4950 C.3   274  THR274      0.1770
     86  OG1       63.0260  122.4740   77.4750 O.3   274  THR274     -0.2211
     87  CG2       61.2570  123.9830   76.9120 C.3   274  THR274      0.0375
     88  N         62.5060  131.5750   79.8660 N.3   322  LYS322     -0.1245
     89  CA        63.4910  131.6110   78.7890 C.3   322  LYS322      0.1561
     90  C         62.8940  132.2520   77.5250 C.2   322  LYS322      0.2260
     91  O         61.8610  131.8030   77.0240 O.2   322  LYS322     -0.2867
     92  CB        63.9840  130.1920   78.5010 C.3   322  LYS322      0.0271
     93  CG        64.8290  130.0270   77.2640 C.3   322  LYS322      0.0035
     94  CD        65.0640  128.5530   77.0270 C.3   322  LYS322      0.0206
     95  CE        65.7570  128.2630   75.7090 C.3   322  LYS322      0.1093
     96  NZ        65.6670  126.8010   75.3970 N.3   322  LYS322     -0.1314
     97  N         62.0070  126.6330   81.7200 N.3   332  ILE332     -0.1245
     98  CA        62.9070  125.4950   81.7290 C.3   332  ILE332      0.1561
     99  C         63.4570  125.1450   83.1200 C.2   332  ILE332      0.2260
    100  O         63.5250  125.9770   84.0330 O.2   332  ILE332     -0.2867
    101  CB        64.0740  125.7180   80.7460 C.3   332  ILE332      0.0252
    102  CG1       64.8480  126.9970   81.0810 C.3   332  ILE332      0.0019
    103  CG2       63.5360  125.8060   79.3360 C.3   332  ILE332      0.0019
    104  CD1       65.9680  126.8200   82.0890 C.3   332  ILE332      0.0001
    105  N         66.8840  122.9860   84.0080 N.3   334  ASN334     -0.1240
    106  CA        68.0240  122.2170   83.5270 C.3   334  ASN334      0.1653
    107  C         68.9300  121.8150   84.6680 C.2   334  ASN334      0.2266
    108  O         69.2740  122.6330   85.5160 O.2   334  ASN334     -0.2867
    109  CB        68.8350  123.0010   82.4940 C.3   334  ASN334      0.1155
    110  CG        67.9920  123.5170   81.3460 C.2   334  ASN334      0.2627
    111  OD1       66.9390  122.9640   81.0200 O.2   334  ASN334     -0.2716
    112  ND2       68.4630  124.5800   80.7140 N.am  334  ASN334     -0.0877
    113  N         58.4730  118.6950   77.7910 N.3   435  ARG435     -0.1245
    114  CA        59.4210  118.1310   76.8380 C.3   435  ARG435      0.1563
    115  C         60.7090  117.8120   77.5930 C.2   435  ARG435      0.2260
    116  O         61.2030  118.6320   78.3750 O.2   435  ARG435     -0.2867
    117  CB        59.6790  119.0960   75.6820 C.3   435  ARG435      0.0307
    118  CG        58.5470  119.1540   74.6750 C.3   435  ARG435      0.0489
    119  CD        58.6650  120.3680   73.7860 C.3   435  ARG435      0.2205
    120  NE        60.0180  120.5310   73.2740 N.pl3 435  ARG435     -0.0865
    121  CZ        60.4750  119.9700   72.1630 C.cat 435  ARG435      0.5346
    122  NH1       59.6870  119.1920   71.4340 N.pl3 435  ARG435      0.1354
    123  NH2       61.7280  120.1880   71.7870 N.pl3 435  ARG435      0.1354
    124  N         64.7470  116.2670   77.4190 N.3   437  ALA437     -0.1245
    125  CA        65.9050  115.9210   76.6070 C.3   437  ALA437      0.1562
    126  C         67.0560  115.4750   77.5010 C.2   437  ALA437      0.2260
    127  O         67.3540  116.1120   78.5130 O.2   437  ALA437     -0.2867
    128  CB        66.3220  117.0960   75.7350 C.3   437  ALA437      0.0290
@<TRIPOS>BOND
     1    42    43    1
     2    43    44    1
     3    43    46    1
     4    44    45    2
     5    31    30    1
     6    25    26    1
     7    26    27    1
     8    26    29    1
     9    23    21   ar
    10    23    24   ar
    11    28    27    2
    12    48    46    1
    13    46    47    1
    14    21    19   ar
    15    27    33   am
    16    36    35    2
    17    24    22   ar
    18    29    30    1
    19    35    34    1
    20    30    32    1
    21    17    16    2
    22    16    15    1
    23    33    34    1
    24    19    18    1
    25    19    20   ar
    26    34    37    1
    27    22    20   ar
    28    58    56   ar
    29    58    59   ar
    30    60    59    1
    31    18    15    1
    32    15    14    1
    33     6     7    1
    34    56    54   ar
    35    14     8   am
    36     9     8    2
    37    59    57   ar
    38     8     7    1
    39    37    38    1
    40     7    10    1
    41   122   121    1
    42    67    65    1
    43     3     4    2
    44     3     2    1
    45    38    39    1
    46   123   121    1
    47    54    53    1
    48    54    55   ar
    49    57    55   ar
    50   121   120    2
    51    66    65    1
    52    66    68    1
    53    62    65    1
    54    62    63    1
    55    62    61    1
    56    40    39   ar
    57    10    11    1
    58    63    64    2
    59    13    11    1
    60    53    50    1
    61     1     2    1
    62    39    41   ar
    63     2     5    1
    64    11    12    1
    65    50    51    1
    66    50    49    1
    67   120   119    1
    68   119   118    1
    69    51    52    2
    70   118   117    1
    71    96    95    1
    72   117   114    1
    73    95    94    1
    74   128   125    1
    75   125   124    1
    76   125   126    1
    77   114   115    1
    78   114   113    1
    79    87    85    1
    80    91    90    2
    81    94    93    1
    82    93    92    1
    83    86    85    1
    84    85    82    1
    85   126   127    2
    86    90    89    1
    87   115   116    2
    88    80    79    1
    89    77    79   ar
    90    77    75   ar
    91    79    78   ar
    92    75    74   ar
    93    78    76   ar
    94    74    76   ar
    95    74    73    1
    96    92    89    1
    97    73    70    1
    98    84    83    2
    99    89    88    1
   100    83    82    1
   101    82    81    1
   102    72    71    2
   103   103   101    1
   104    70    71    1
   105    70    69    1
   106   112   110   am
   107   101   102    1
   108   101    98    1
   109   111   110    2
   110   102   104    1
   111   110   109    1
   112    97    98    1
   113    98    99    1
   114   109   106    1
   115    99   100    2
   116   106   105    1
   117   106   107    1
   118   107   108    2
