@<TRIPOS>MOLECULE
tmp/4re9A00.pdb
 216 212 0 0 0
SMALL
GASTEIGER

@<TRIPOS>ATOM
      1  N         71.8650  137.9720   59.3290 N.3    66  HIS66      -0.1241
      2  CA        73.2000  137.9010   59.9140 C.3    66  HIS66       0.1621
      3  C         74.2460  138.3450   58.8900 C.2    66  HIS66       0.2264
      4  O         75.1670  139.1070   59.2060 O.2    66  HIS66      -0.2867
      5  CB        73.4890  136.4790   60.4090 C.3    66  HIS66       0.0745
      6  CG        74.8930  136.2710   60.8970 C.ar   66  HIS66       0.0817
      7  ND1       75.5360  135.0560   60.8100 N.ar   66  HIS66      -0.2268
      8  CD2       75.7680  137.1180   61.4920 C.ar   66  HIS66       0.1154
      9  CE1       76.7520  135.1660   61.3170 C.ar   66  HIS66       0.1986
     10  NE2       76.9170  136.4060   61.7400 N.ar   66  HIS66      -0.2212
     11  N         74.3280  141.9970   58.3070 N.3    69  GLU69      -0.1231
     12  CA        74.9690  142.6350   59.4490 C.3    69  GLU69       0.1699
     13  C         76.4800  142.7490   59.2680 C.2    69  GLU69       0.2592
     14  O         77.0750  143.7690   59.6230 O.2    69  GLU69      -0.2718
     15  CB        74.6390  141.8750   60.7250 C.3    69  GLU69       0.0402
     16  CG        75.3400  142.4110   61.9430 C.3    69  GLU69       0.1161
     17  CD        76.0450  141.3230   62.7190 C.2    69  GLU69       0.3649
     18  OE1       75.3500  140.4280   63.2480 O.co2  69  GLU69      -0.2457
     19  OE2       77.2930  141.3540   62.7840 O.co2  69  GLU69      -0.2457
     20  N         77.1120  141.6900   58.7640 N.am   70  HIS70      -0.1976
     21  CA        78.5290  141.7740   58.4010 C.3    70  HIS70       0.1656
     22  C         78.7720  142.8420   57.3550 C.2    70  HIS70       0.2291
     23  O         79.7020  143.6360   57.4800 O.2    70  HIS70      -0.2864
     24  CB        79.0690  140.4440   57.8790 C.3    70  HIS70       0.0771
     25  CG        79.4180  139.4590   58.9540 C.ar   70  HIS70       0.0820
     26  ND1       80.7000  138.9830   59.1350 N.ar   70  HIS70      -0.2267
     27  CD2       78.6530  138.8330   59.8800 C.ar   70  HIS70       0.1154
     28  CE1       80.7110  138.1230   60.1370 C.ar   70  HIS70       0.1986
     29  NE2       79.4820  138.0140   60.6070 N.ar   70  HIS70      -0.2212
     30  N         79.4140  146.9330   57.4930 N.3    73  PHE73      -0.1227
     31  CA        80.7000  147.4670   57.9310 C.3    73  PHE73       0.1736
     32  C         81.6160  147.7590   56.7550 C.2    73  PHE73       0.2595
     33  O         82.5960  148.4870   56.8880 O.2    73  PHE73      -0.2718
     34  CB        81.3770  146.4930   58.8960 C.3    73  PHE73       0.0547
     35  CG        80.6800  146.3670   60.2160 C.ar   73  PHE73      -0.0202
     36  CD1       79.6490  145.4510   60.3870 C.ar   73  PHE73      -0.0042
     37  CD2       81.0620  147.1590   61.2940 C.ar   73  PHE73      -0.0042
     38  CE1       79.0040  145.3370   61.6040 C.ar   73  PHE73      -0.0003
     39  CE2       80.4220  147.0510   62.5210 C.ar   73  PHE73      -0.0003
     40  CZ        79.3930  146.1390   62.6780 C.ar   73  PHE73      -0.0000
     41  N         81.2700  147.2160   55.5950 N.am   74  LEU74      -0.1980
     42  CA        82.1990  147.1750   54.4800 C.3    74  LEU74       0.1596
     43  C         81.9780  148.2570   53.4230 C.2    74  LEU74       0.2287
     44  O         82.4170  148.1030   52.2880 O.2    74  LEU74      -0.2864
     45  CB        82.1360  145.7960   53.8240 C.3    74  LEU74       0.0297
     46  CG        82.5040  144.6450   54.7610 C.3    74  LEU74       0.0022
     47  CD1       82.4230  143.3070   54.0470 C.3    74  LEU74       0.0001
     48  CD2       83.8830  144.8760   55.3570 C.3    74  LEU74       0.0001
     49  N         85.2750  152.7170   58.0300 N.3    85  TYR85      -0.1227
     50  CA        84.6380  152.7330   59.3380 C.3    85  TYR85       0.1736
     51  C         85.5910  152.1870   60.3970 C.2    85  TYR85       0.2596
     52  O         85.8860  152.8550   61.3910 O.2    85  TYR85      -0.2718
     53  CB        83.3510  151.9130   59.3030 C.3    85  TYR85       0.0548
     54  CG        82.6040  151.8210   60.6150 C.ar   85  TYR85      -0.0200
     55  CD1       81.7970  152.8600   61.0530 C.ar   85  TYR85      -0.0009
     56  CD2       82.6910  150.6890   61.4120 C.ar   85  TYR85      -0.0009
     57  CE1       81.0980  152.7720   62.2440 C.ar   85  TYR85       0.0417
     58  CE2       82.0020  150.5970   62.6090 C.ar   85  TYR85       0.0417
     59  CZ        81.2050  151.6400   63.0180 C.ar   85  TYR85       0.1957
     60  OH        80.5080  151.5540   64.2030 O.3    85  TYR85      -0.2866
     61  N         86.1020  150.9820   60.1510 N.am   86  SER86      -0.1952
     62  CA        86.9880  150.3090   61.0870 C.3    86  SER86       0.1924
     63  C         88.2900  151.0620   61.2770 C.2    86  SER86       0.2314
     64  O         88.8310  151.1190   62.3850 O.2    86  SER86      -0.2863
     65  CB        87.2760  148.8960   60.6090 C.3    86  SER86       0.2116
     66  OG        86.0590  148.2160   60.3930 O.3    86  SER86      -0.2180
     67  N         87.7710  154.2770   63.4610 N.3    89  LEU89      -0.1231
     68  CA        87.6250  153.9410   64.8710 C.3    89  LEU89       0.1693
     69  C         88.9910  153.5890   65.4440 C.2    89  LEU89       0.2592
     70  O         89.3520  154.0360   66.5320 O.2    89  LEU89      -0.2718
     71  CB        86.6300  152.7900   65.0500 C.3    89  LEU89       0.0284
     72  CG        85.1720  153.1840   64.8090 C.3    89  LEU89       0.0019
     73  CD1       84.2220  152.0050   64.9480 C.3    89  LEU89       0.0001
     74  CD2       84.7740  154.3130   65.7560 C.3    89  LEU89       0.0001
     75  N         89.7580  152.8120   64.6840 N.am   90  SER90      -0.1952
     76  CA        91.0800  152.3900   65.1130 C.3    90  SER90       0.1924
     77  C         92.0040  153.5680   65.3380 C.2    90  SER90       0.2314
     78  O         92.7720  153.5740   66.2960 O.2    90  SER90      -0.2863
     79  CB        91.7070  151.4500   64.0990 C.3    90  SER90       0.2116
     80  OG        92.9220  150.9330   64.6190 O.3    90  SER90      -0.2180
     81  N         86.3000  151.2620   68.7710 N.3    95  SER95      -0.1202
     82  CA        86.0910  149.8730   68.4170 C.3    95  SER95       0.2020
     83  C         84.6150  149.6870   68.1420 C.2    95  SER95       0.2619
     84  O         83.8000  150.5220   68.5310 O.2    95  SER95      -0.2717
     85  CB        86.5620  148.9440   69.5340 C.3    95  SER95       0.2103
     86  OG        85.7930  149.1390   70.7050 O.3    95  SER95      -0.2182
     87  N         84.2680  148.5990   67.4710 N.am   96  SER96      -0.1937
     88  CA        82.8930  148.4000   67.0420 C.3    96  SER96       0.2055
     89  C         82.5400  146.9310   66.9220 C.2    96  SER96       0.2643
     90  O         83.4030  146.0930   66.6610 O.2    96  SER96      -0.2714
     91  CB        82.6540  149.0950   65.7040 C.3    96  SER96       0.2130
     92  OG        81.2970  148.9910   65.3250 O.3    96  SER96      -0.2179
     93  N         81.2620  146.6270   67.1130 N.am   97  ASN97      -0.1957
     94  CA        80.7640  145.2760   66.9190 C.3    97  ASN97       0.1819
     95  C         79.2680  145.2690   66.6320 C.2    97  ASN97       0.2621
     96  O         78.6280  146.3160   66.6340 O.2    97  ASN97      -0.2715
     97  CB        81.0670  144.4250   68.1500 C.3    97  ASN97       0.1195
     98  CG        81.5740  143.0540   67.7910 C.2    97  ASN97       0.2630
     99  OD1       81.3910  142.5920   66.6700 O.2    97  ASN97      -0.2716
    100  ND2       82.2360  142.4020   68.7390 N.am   97  ASN97      -0.0877
    101  N         78.7160  144.0850   66.3840 N.am   98  ALA98      -0.1963
    102  CA        77.2840  143.9370   66.1710 C.3    98  ALA98       0.1728
    103  C         76.8860  142.4870   66.3740 C.2    98  ALA98       0.2616
    104  O         77.7370  141.6090   66.3580 O.2    98  ALA98      -0.2715
    105  CB        76.8930  144.4110   64.7830 C.3    98  ALA98       0.0334
    106  N         75.5960  142.2340   66.5710 N.am   99  PHE99      -0.1960
    107  CA        75.1140  140.8640   66.6670 C.3    99  PHE99       0.1771
    108  C         73.6900  140.7500   66.1390 C.2    99  PHE99       0.2620
    109  O         72.9470  141.7300   66.1100 O.2    99  PHE99      -0.2715
    110  CB        75.1930  140.3450   68.1130 C.3    99  PHE99       0.0574
    111  CG        74.2520  141.0240   69.0680 C.ar   99  PHE99      -0.0200
    112  CD1       72.9330  140.6080   69.1810 C.ar   99  PHE99      -0.0042
    113  CD2       74.6910  142.0660   69.8770 C.ar   99  PHE99      -0.0042
    114  CE1       72.0570  141.2360   70.0720 C.ar   99  PHE99      -0.0003
    115  CE2       73.8230  142.6900   70.7740 C.ar   99  PHE99      -0.0003
    116  CZ        72.5070  142.2720   70.8660 C.ar   99  PHE99      -0.0000
    117  N         73.3270  139.5410   65.7230 N.am  100  THR100     -0.1951
    118  CA        72.0070  139.2640   65.1810 C.3   100  THR100      0.1897
    119  C         71.3180  138.1710   65.9840 C.2   100  THR100      0.2313
    120  O         71.8380  137.0590   66.1000 O.2   100  THR100     -0.2863
    121  CB        72.0920  138.8220   63.7100 C.3   100  THR100      0.1794
    122  OG1       72.7820  139.8170   62.9460 O.3   100  THR100     -0.2208
    123  CG2       70.7020  138.5850   63.1300 C.3   100  THR100      0.0378
    124  N         83.2790  138.2870   52.1800 N.3   140  GLU140     -0.1245
    125  CA        82.7940  138.2420   53.5520 C.3   140  GLU140      0.1567
    126  C         81.8730  137.0490   53.8310 C.2   140  GLU140      0.2260
    127  O         81.6260  136.7270   54.9950 O.2   140  GLU140     -0.2867
    128  CB        82.0750  139.5450   53.8980 C.3   140  GLU140      0.0388
    129  CG        81.7270  139.7030   55.3750 C.3   140  GLU140      0.1160
    130  CD        82.9450  139.7880   56.2850 C.2   140  GLU140      0.3649
    131  OE1       84.0750  139.9660   55.7780 O.co2 140  GLU140     -0.2457
    132  OE2       82.7670  139.6850   57.5180 O.co2 140  GLU140     -0.2457
    133  N         82.6320  131.3810   60.7740 N.3   147  GLU147     -0.1245
    134  CA        81.9230  131.5400   62.0300 C.3   147  GLU147      0.1567
    135  C         81.0320  130.3230   62.3100 C.2   147  GLU147      0.2260
    136  O         80.9590  129.8520   63.4430 O.2   147  GLU147     -0.2867
    137  CB        81.1080  132.8370   62.0120 C.3   147  GLU147      0.0388
    138  CG        80.4050  133.1680   63.3120 C.3   147  GLU147      0.1160
    139  CD        79.6200  134.4650   63.2340 C.2   147  GLU147      0.3649
    140  OE1       79.6980  135.1500   62.1900 O.co2 147  GLU147     -0.2457
    141  OE2       78.9260  134.7990   64.2180 O.co2 147  GLU147     -0.2457
    142  N         97.1810  146.9530   64.2360 N.3   774  SER774     -0.1202
    143  CA        95.9510  146.3190   64.7010 C.3   774  SER774      0.2020
    144  C         94.8750  146.2230   63.6220 C.2   774  SER774      0.2618
    145  O         94.4340  145.1280   63.2700 O.2   774  SER774     -0.2717
    146  CB        95.3890  147.0610   65.9080 C.3   774  SER774      0.2103
    147  OG        94.1350  146.5040   66.2700 O.3   774  SER774     -0.2182
    148  N         94.4560  147.3790   63.1100 N.am  775  GLU775     -0.1979
    149  CA        93.3770  147.4410   62.1300 C.3   775  GLU775      0.1602
    150  C         93.7960  146.8060   60.7960 C.2   775  GLU775      0.2287
    151  O         93.0580  145.9970   60.2170 O.2   775  GLU775     -0.2864
    152  CB        92.9320  148.8920   61.9270 C.3   775  GLU775      0.0415
    153  CG        91.6220  149.0310   61.1710 C.3   775  GLU775      0.1163
    154  CD        91.8070  148.9690   59.6600 C.2   775  GLU775      0.3649
    155  OE1       92.7730  149.5800   59.1500 O.co2 775  GLU775     -0.2457
    156  OE2       91.0000  148.2830   58.9860 O.co2 775  GLU775     -0.2457
    157  N         93.7360  142.9920   60.8370 N.3   778  PHE778     -0.1241
    158  CA        92.3930  142.4480   60.7010 C.3   778  PHE778      0.1605
    159  C         91.9170  142.5760   59.2630 C.2   778  PHE778      0.2264
    160  O         91.4290  141.6070   58.6610 O.2   778  PHE778     -0.2867
    161  CB        91.4100  143.1430   61.6520 C.3   778  PHE778      0.0534
    162  CG        90.0260  142.5330   61.6490 C.ar  778  PHE778     -0.0203
    163  CD1       89.0560  142.9740   60.7650 C.ar  778  PHE778     -0.0042
    164  CD2       89.7010  141.5080   62.5200 C.ar  778  PHE778     -0.0042
    165  CE1       87.7910  142.4180   60.7600 C.ar  778  PHE778     -0.0003
    166  CE2       88.4320  140.9440   62.5150 C.ar  778  PHE778     -0.0003
    167  CZ        87.4790  141.4010   61.6320 C.ar  778  PHE778     -0.0000
    168  N         91.8960  138.9230   57.4970 N.3   782  ARG782     -0.1245
    169  CA        90.5180  138.4600   57.4460 C.3   782  ARG782      0.1563
    170  C         89.7290  139.1140   56.3080 C.2   782  ARG782      0.2260
    171  O         89.2000  138.4140   55.4410 O.2   782  ARG782     -0.2867
    172  CB        89.7980  138.7080   58.7720 C.3   782  ARG782      0.0307
    173  CG        88.2900  138.6300   58.6080 C.3   782  ARG782      0.0489
    174  CD        87.5510  138.5420   59.9100 C.3   782  ARG782      0.2205
    175  NE        86.1650  138.9600   59.7360 N.pl3 782  ARG782     -0.0865
    176  CZ        85.2220  138.8150   60.6580 C.cat 782  ARG782      0.5346
    177  NH1       85.5150  138.2520   61.8190 N.pl3 782  ARG782      0.1354
    178  NH2       83.9850  139.2260   60.4190 N.pl3 782  ARG782      0.1354
    179  N         87.3770  133.5390   60.2620 N.3   789  TYR789     -0.1227
    180  CA        86.5830  134.3930   61.1230 C.3   789  TYR789      0.1736
    181  C         87.4100  134.9330   62.2840 C.2   789  TYR789      0.2595
    182  O         87.3520  136.1190   62.6060 O.2   789  TYR789     -0.2718
    183  CB        85.3730  133.6220   61.6470 C.3   789  TYR789      0.0548
    184  CG        84.5100  134.4310   62.5780 C.ar  789  TYR789     -0.0200
    185  CD1       83.7680  135.5060   62.1060 C.ar  789  TYR789     -0.0009
    186  CD2       84.4310  134.1210   63.9320 C.ar  789  TYR789     -0.0009
    187  CE1       82.9800  136.2540   62.9530 C.ar  789  TYR789      0.0417
    188  CE2       83.6410  134.8640   64.7870 C.ar  789  TYR789      0.0417
    189  CZ        82.9160  135.9290   64.2890 C.ar  789  TYR789      0.1957
    190  OH        82.1240  136.6750   65.1240 O.3   789  TYR789     -0.2866
    191  N         88.1600  134.0540   62.9350 N.am  790  ILE790     -0.1966
    192  CA        88.9760  134.4890   64.0500 C.3   790  ILE790      0.1727
    193  C         90.3640  134.9230   63.5940 C.2   790  ILE790      0.2616
    194  O         91.1940  134.1020   63.2180 O.2   790  ILE790     -0.2715
    195  CB        89.1000  133.3930   65.1170 C.3   790  ILE790      0.0290
    196  CG1       87.7230  133.1050   65.7250 C.3   790  ILE790      0.0022
    197  CG2       90.1020  133.8160   66.1960 C.3   790  ILE790      0.0023
    198  CD1       87.6650  131.8560   66.5700 C.3   790  ILE790      0.0001
    199  N         90.5960  136.2280   63.6100 N.am  791  VAL791     -0.1963
    200  CA        91.9180  136.7830   63.3460 C.3   791  VAL791      0.1727
    201  C         92.2550  137.8120   64.4070 C.2   791  VAL791      0.2616
    202  O         91.4920  138.7590   64.6440 O.2   791  VAL791     -0.2715
    203  CB        92.0200  137.4230   61.9610 C.3   791  VAL791      0.0290
    204  CG1       93.2850  138.2680   61.8630 C.3   791  VAL791      0.0023
    205  CG2       91.9580  136.3450   60.8800 C.3   791  VAL791      0.0023
    206  N         93.3900  137.6040   65.0630 N.am  792  PHE792     -0.1974
    207  CA        93.7750  138.4290   66.1980 C.3   792  PHE792      0.1639
    208  C         95.2540  138.7660   66.1600 C.2   792  PHE792      0.2290
    209  O         96.0880  137.9320   65.8170 O.2   792  PHE792     -0.2864
    210  CB        93.4360  137.7140   67.5140 C.3   792  PHE792      0.0560
    211  CG        93.9600  138.4120   68.7420 C.ar  792  PHE792     -0.0200
    212  CD1       93.2200  139.3970   69.3700 C.ar  792  PHE792     -0.0042
    213  CD2       95.2090  138.0900   69.2590 C.ar  792  PHE792     -0.0042
    214  CE1       93.7120  140.0430   70.4970 C.ar  792  PHE792     -0.0003
    215  CE2       95.7050  138.7360   70.3840 C.ar  792  PHE792     -0.0003
    216  CZ        94.9550  139.7110   71.0040 C.ar  792  PHE792     -0.0000
@<TRIPOS>BOND
     1   124   125    1
     2    44    43    2
     3    43    42    1
     4   125   126    1
     5   125   128    1
     6    45    42    1
     7    45    46    1
     8   126   127    2
     9   128   129    1
    10    47    46    1
    11    42    41    1
    12    46    48    1
    13   129   130    1
    14   171   170    2
    15    41    32   am
    16   131   130   ar
    17   130   132   ar
    18   170   169    1
    19    32    33    2
    20    32    31    1
    21    22    23    2
    22    22    21    1
    23   169   168    1
    24   169   172    1
    25    30    31    1
    26    24    21    1
    27    24    25    1
    28    31    34    1
    29    49    50    1
    30    11    12    1
    31    21    20    1
    32   173   172    1
    33   173   174    1
    34   160   159    2
    35    20    13   am
    36     3     4    2
    37     3     2    1
    38    34    35    1
    39    25    26   ar
    40    25    27   ar
    41   156   154   ar
    42    26    28   ar
    43   155   154   ar
    44   159   158    1
    45    13    12    1
    46    13    14    2
    47    53    50    1
    48    53    54    1
    49     1     2    1
    50    50    51    1
    51    12    15    1
    52   154   153    1
    53   175   174    1
    54   175   176    2
    55    27    29   ar
    56     2     5    1
    57    28    29   ar
    58    61    51   am
    59    61    62    1
    60    35    36   ar
    61    35    37   ar
    62   151   150    2
    63   179   180    1
    64    36    38   ar
    65    66    65    1
    66    51    52    2
    67     5     6    1
    68   178   176    1
    69    65    62    1
    70    54    55   ar
    71    54    56   ar
    72   176   177    1
    73   158   157    1
    74   158   161    1
    75    15    16    1
    76   165   163   ar
    77   165   167   ar
    78   163   162   ar
    79   133   134    1
    80   150   149    1
    81     7     6   ar
    82     7     9   ar
    83   205   203    1
    84     6     8   ar
    85    55    57   ar
    86    62    63    1
    87   180   183    1
    88   180   181    1
    89   153   152    1
    90    63    64    2
    91    37    39   ar
    92     9    10   ar
    93    56    58   ar
    94     8    10   ar
    95    38    40   ar
    96   167   166   ar
    97   183   184    1
    98   162   161    1
    99   162   164   ar
   100   204   203    1
   101   152   149    1
   102    16    17    1
   103   203   200    1
   104   137   134    1
   105   137   138    1
   106   134   135    1
   107   185   184   ar
   108   185   187   ar
   109   149   148    1
   110   140   139   ar
   111    57    59   ar
   112   181   182    2
   113   181   191   am
   114   135   136    2
   115   166   164   ar
   116    39    40   ar
   117   184   186   ar
   118    58    59   ar
   119    17    19   ar
   120    17    18   ar
   121   191   192    1
   122   122   121    1
   123   187   189   ar
   124    59    60    1
   125   148   144   am
   126   123   121    1
   127   194   193    2
   128   139   138    1
   129   139   141   ar
   130   145   144    2
   131   200   199    1
   132   200   201    1
   133    67    68    1
   134   193   199   am
   135   193   192    1
   136   144   143    1
   137   121   118    1
   138   186   188   ar
   139   192   195    1
   140    79    80    1
   141    79    76    1
   142   142   143    1
   143   189   188   ar
   144   189   190    1
   145   201   202    2
   146   201   206   am
   147    75    76    1
   148    75    69   am
   149   143   146    1
   150   105   102    1
   151    72    73    1
   152    72    71    1
   153    72    74    1
   154    68    71    1
   155    68    69    1
   156   206   207    1
   157    76    77    1
   158   195   196    1
   159   195   197    1
   160   118   117    1
   161   118   119    1
   162    92    91    1
   163    77    78    2
   164    69    70    2
   165    91    88    1
   166   117   108   am
   167   196   198    1
   168   209   208    2
   169   146   147    1
   170   119   120    2
   171   109   108    2
   172   108   107    1
   173   208   207    1
   174   102   103    1
   175   102   101    1
   176   207   210    1
   177   104   103    2
   178   103   106   am
   179   101    95   am
   180   106   107    1
   181    95    96    2
   182    95    94    1
   183    90    89    2
   184   107   110    1
   185    99    98    2
   186    94    93    1
   187    94    97    1
   188    89    88    1
   189    89    93   am
   190    88    87    1
   191    87    83   am
   192   210   211    1
   193    98    97    1
   194    98   100   am
   195   110   111    1
   196    83    82    1
   197    83    84    2
   198    82    81    1
   199    82    85    1
   200   211   213   ar
   201   211   212   ar
   202   111   112   ar
   203   111   113   ar
   204   112   114   ar
   205   213   215   ar
   206   212   214   ar
   207    85    86    1
   208   113   115   ar
   209   114   116   ar
   210   215   216   ar
   211   214   216   ar
   212   115   116   ar
