@<TRIPOS>MOLECULE
tmp/4re9B04.pdb
 107 102 0 0 0
SMALL
GASTEIGER

@<TRIPOS>ATOM
      1  N        113.5920  117.8560   98.4450 N.3   542  TYR542     -0.1241
      2  CA       114.1810  119.1850   98.5350 C.3   542  TYR542      0.1605
      3  C        113.1990  120.3290   98.2480 C.2   542  TYR542      0.2264
      4  O        113.6190  121.4420   97.9210 O.2   542  TYR542     -0.2867
      5  CB       115.3640  119.2720   97.5700 C.3   542  TYR542      0.0534
      6  CG       116.4210  120.2700   97.9630 C.ar  542  TYR542     -0.0201
      7  CD1      117.1510  120.1080   99.1260 C.ar  542  TYR542     -0.0009
      8  CD2      116.6970  121.3710   97.1650 C.ar  542  TYR542     -0.0009
      9  CE1      118.1260  121.0150   99.4920 C.ar  542  TYR542      0.0417
     10  CE2      117.6710  122.2840   97.5210 C.ar  542  TYR542      0.0417
     11  CZ       118.3860  122.1020   98.6860 C.ar  542  TYR542      0.1957
     12  OH       119.3630  123.0090   99.0480 O.3   542  TYR542     -0.2866
     13  N        113.4830  119.0300  103.4440 N.3   548  SER548     -0.1217
     14  CA       114.8910  118.7270  103.3320 C.3   548  SER548      0.1889
     15  C        115.3620  118.1070  104.6400 C.2   548  SER548      0.2288
     16  O        116.0340  117.0780  104.6520 O.2   548  SER548     -0.2866
     17  CB       115.6800  119.9920  103.0080 C.3   548  SER548      0.2089
     18  OG       116.8520  119.6820  102.2860 O.3   548  SER548     -0.2183
     19  N        116.6670  114.0700  105.4200 N.3   552  TYR552     -0.1241
     20  CA       117.8970  113.7660  106.1320 C.3   552  TYR552      0.1605
     21  C        117.6300  112.8390  107.3240 C.2   552  TYR552      0.2264
     22  O        118.2460  111.7780  107.4460 O.2   552  TYR552     -0.2867
     23  CB       118.5870  115.0500  106.5940 C.3   552  TYR552      0.0534
     24  CG       119.8660  114.7820  107.3420 C.ar  552  TYR552     -0.0201
     25  CD1      121.0490  114.5640  106.6590 C.ar  552  TYR552     -0.0009
     26  CD2      119.8930  114.7350  108.7310 C.ar  552  TYR552     -0.0009
     27  CE1      122.2210  114.3110  107.3320 C.ar  552  TYR552      0.0417
     28  CE2      121.0690  114.4780  109.4140 C.ar  552  TYR552      0.0417
     29  CZ       122.2280  114.2640  108.7030 C.ar  552  TYR552      0.1957
     30  OH       123.4090  114.0070  109.3510 O.3   552  TYR552     -0.2866
     31  N        120.8010  111.6440  101.6220 N.3   580  ASN580     -0.1225
     32  CA       119.8700  112.4740  100.8540 C.3   580  ASN580      0.1785
     33  C        120.5740  113.4970   99.9630 C.2   580  ASN580      0.2598
     34  O        121.6150  114.0370  100.3170 O.2   580  ASN580     -0.2718
     35  CB       118.9200  113.1950  101.8030 C.3   580  ASN580      0.1169
     36  CG       119.6600  113.9330  102.8870 C.2   580  ASN580      0.2627
     37  OD1      120.4690  113.3430  103.6080 O.2   580  ASN580     -0.2716
     38  ND2      119.4340  115.2340  102.9810 N.am  580  ASN580     -0.0877
     39  N        119.9840  113.7670   98.8060 N.am  581  THR581     -0.1939
     40  CA       120.5490  114.7030   97.8450 C.3   581  THR581      0.2028
     41  C        119.5360  115.7880   97.5400 C.2   581  THR581      0.2642
     42  O        118.4250  115.7690   98.0730 O.2   581  THR581     -0.2714
     43  CB       120.9410  114.0040   96.5560 C.3   581  THR581      0.1808
     44  OG1      119.7580  113.5600   95.8850 O.3   581  THR581     -0.2208
     45  CG2      121.8120  112.8030   96.8540 C.3   581  THR581      0.0379
     46  N        119.9010  116.7380   96.6900 N.am  582  ILE582     -0.1977
     47  CA       118.9440  117.7820   96.3520 C.3   582  ILE582      0.1596
     48  C        117.9040  117.2370   95.3700 C.2   582  ILE582      0.2287
     49  O        116.9120  117.9040   95.0690 O.2   582  ILE582     -0.2864
     50  CB       119.6160  119.0500   95.7580 C.3   582  ILE582      0.0276
     51  CG1      120.4300  118.7120   94.5140 C.3   582  ILE582      0.0022
     52  CG2      120.4870  119.7410   96.7860 C.3   582  ILE582      0.0022
     53  CD1      121.0480  119.9380   93.8810 C.3   582  ILE582      0.0001
     54  N        121.5500  116.4870  114.9900 N.3   624  TYR624     -0.1241
     55  CA       121.4660  117.1870  113.7170 C.3   624  TYR624      0.1605
     56  C        121.3680  118.6980  113.9300 C.2   624  TYR624      0.2264
     57  O        121.9590  119.4820  113.1870 O.2   624  TYR624     -0.2867
     58  CB       120.2660  116.6640  112.9160 C.3   624  TYR624      0.0534
     59  CG       120.0130  117.3980  111.6200 C.ar  624  TYR624     -0.0201
     60  CD1      121.0490  117.6620  110.7310 C.ar  624  TYR624     -0.0009
     61  CD2      118.7390  117.8280  111.2870 C.ar  624  TYR624     -0.0009
     62  CE1      120.8210  118.3410  109.5510 C.ar  624  TYR624      0.0417
     63  CE2      118.5020  118.5040  110.1070 C.ar  624  TYR624      0.0417
     64  CZ       119.5470  118.7590  109.2460 C.ar  624  TYR624      0.1957
     65  OH       119.3090  119.4340  108.0790 O.3   624  TYR624     -0.2866
     66  N        124.7380  119.8330  114.6990 N.3   627  SER627     -0.1202
     67  CA       125.4820  119.7280  113.4490 C.3   627  SER627      0.2020
     68  C        125.3130  120.9740  112.5740 C.2   627  SER627      0.2618
     69  O        126.2850  121.4940  112.0090 O.2   627  SER627     -0.2717
     70  CB       125.0480  118.4830  112.6890 C.3   627  SER627      0.2103
     71  OG       125.5380  118.5220  111.3650 O.3   627  SER627     -0.2182
     72  N        124.0790  121.4510  112.4600 N.am  628  LEU628     -0.1979
     73  CA       123.8170  122.6570  111.6910 C.3   628  LEU628      0.1596
     74  C        124.4960  123.8670  112.3340 C.2   628  LEU628      0.2287
     75  O        125.1770  124.6430  111.6640 O.2   628  LEU628     -0.2864
     76  CB       122.3140  122.9020  111.5750 C.3   628  LEU628      0.0297
     77  CG       121.5580  121.9220  110.6900 C.3   628  LEU628      0.0022
     78  CD1      120.0570  122.0970  110.8500 C.3   628  LEU628      0.0001
     79  CD2      121.9940  122.1090  109.2460 C.3   628  LEU628      0.0001
     80  N        128.2780  124.4850  111.9260 N.3   631  PHE631     -0.1241
     81  CA       128.8110  124.9930  110.6770 C.3   631  PHE631      0.1605
     82  C        129.5560  126.3090  110.8940 C.2   631  PHE631      0.2264
     83  O        130.4580  126.6510  110.1300 O.2   631  PHE631     -0.2867
     84  CB       127.7070  125.1860  109.6440 C.3   631  PHE631      0.0534
     85  CG       128.2250  125.5490  108.2860 C.ar  631  PHE631     -0.0203
     86  CD1      128.8880  124.5960  107.5110 C.ar  631  PHE631     -0.0042
     87  CD2      128.0670  126.8330  107.7850 C.ar  631  PHE631     -0.0042
     88  CE1      129.3810  124.9120  106.2630 C.ar  631  PHE631     -0.0003
     89  CE2      128.5560  127.1630  106.5320 C.ar  631  PHE631     -0.0003
     90  CZ       129.2120  126.2010  105.7680 C.ar  631  PHE631     -0.0000
     91  N        121.9360  127.0080  105.9060 N.3   655  LYS655     -0.1245
     92  CA       122.0090  126.3160  107.1940 C.3   655  LYS655      0.1561
     93  C        121.0080  126.9340  108.1580 C.2   655  LYS655      0.2260
     94  O        120.3570  126.2350  108.9320 O.2   655  LYS655     -0.2867
     95  CB       123.4370  126.3440  107.7820 C.3   655  LYS655      0.0271
     96  CG       124.4400  125.5260  106.9680 C.3   655  LYS655      0.0035
     97  CD       124.1580  124.0170  107.0820 C.3   655  LYS655      0.0206
     98  CE       124.8150  123.1830  105.9570 C.3   655  LYS655      0.1093
     99  NZ       126.2960  123.0790  106.0080 N.3   655  LYS655     -0.1314
    100  N        117.5070  125.9000  107.3040 N.3   658  LEU658     -0.1245
    101  CA       117.3400  124.5230  107.7420 C.3   658  LEU658      0.1561
    102  C        117.1300  124.4010  109.2410 C.2   658  LEU658      0.2260
    103  O        116.2390  123.6810  109.6780 O.2   658  LEU658     -0.2867
    104  CB       118.5470  123.6830  107.3250 C.3   658  LEU658      0.0270
    105  CG       118.6310  123.3930  105.8280 C.3   658  LEU658      0.0019
    106  CD1      119.9470  122.7230  105.4830 C.3   658  LEU658      0.0001
    107  CD2      117.4540  122.5300  105.4130 C.3   658  LEU658      0.0001
@<TRIPOS>BOND
     1    53    51    1
     2    51    50    1
     3    49    48    2
     4    48    47    1
     5    50    47    1
     6    50    52    1
     7    44    43    1
     8    47    46    1
     9    43    45    1
    10    43    40    1
    11    46    41   am
    12     8    10   ar
    13     8     6   ar
    14    10    11   ar
    15    41    40    1
    16    41    42    2
    17     5     6    1
    18     5     2    1
    19    40    39    1
    20     4     3    2
    21     6     7   ar
    22     3     2    1
    23     1     2    1
    24    11    12    1
    25    11     9   ar
    26    39    33   am
    27     7     9   ar
    28    33    34    2
    29    33    32    1
    30    32    31    1
    31    32    35    1
    32    35    36    1
    33    18    17    1
    34    36    38   am
    35    36    37    2
    36    17    14    1
    37    14    13    1
    38    14    15    1
    39    15    16    2
    40   107   105    1
    41    19    20    1
    42   106   105    1
    43    90    88   ar
    44    90    89   ar
    45   105   104    1
    46    91    92    1
    47    98    99    1
    48    98    97    1
    49    20    23    1
    50    20    21    1
    51    88    86   ar
    52    89    87   ar
    53    23    24    1
    54    25    27   ar
    55    25    24   ar
    56    96    97    1
    57    96    95    1
    58    92    95    1
    59    92    93    1
    60   100   101    1
    61    21    22    2
    62   104   101    1
    63    27    29   ar
    64    24    26   ar
    65    86    85   ar
    66   101   102    1
    67    87    85   ar
    68    65    64    1
    69    93    94    2
    70    85    84    1
    71    29    30    1
    72    29    28   ar
    73    26    28   ar
    74   102   103    2
    75    64    62   ar
    76    64    63   ar
    77    79    77    1
    78    62    60   ar
    79    84    81    1
    80    63    61   ar
    81    83    82    2
    82    81    82    1
    83    81    80    1
    84    77    78    1
    85    77    76    1
    86    60    59   ar
    87    61    59   ar
    88    71    70    1
    89    76    73    1
    90    59    58    1
    91    75    74    2
    92    73    74    1
    93    73    72    1
    94    69    68    2
    95    72    68   am
    96    68    67    1
    97    70    67    1
    98    58    55    1
    99    57    56    2
   100    67    66    1
   101    55    56    1
   102    55    54    1
