@<TRIPOS>MOLECULE
tmp/4reeB00.pdb
 162 151 0 0 0
SMALL
GASTEIGER

@<TRIPOS>ATOM
      1  N         -7.7460  -13.3670    2.4240 N.3    85  GLU85      -0.1245
      2  CA        -7.6790  -14.4970    1.5320 C.3    85  GLU85       0.1567
      3  C         -6.9000  -14.1690    0.2630 C.2    85  GLU85       0.2260
      4  O         -6.1030  -14.9530   -0.1730 O.2    85  GLU85      -0.2867
      5  CB        -9.0710  -14.8590    1.0690 C.3    85  GLU85       0.0388
      6  CG        -9.6070  -16.2080    1.3660 C.3    85  GLU85       0.1160
      7  CD       -11.1160  -16.3700    0.9720 C.2    85  GLU85       0.3649
      8  OE1      -11.9940  -15.3980    1.1100 O.co2  85  GLU85      -0.2457
      9  OE2      -11.3990  -17.4930    0.5100 O.co2  85  GLU85      -0.2457
     10  N         -3.2940  -15.6530   -0.8540 N.3    89  LEU89      -0.1245
     11  CA        -3.2320  -16.4230   -2.0730 C.3    89  LEU89       0.1561
     12  C         -2.2680  -15.8440   -3.0780 C.2    89  LEU89       0.2260
     13  O         -1.4800  -16.5350   -3.6100 O.2    89  LEU89      -0.2867
     14  CB        -4.6000  -16.4990   -2.6670 C.3    89  LEU89       0.0270
     15  CG        -4.7640  -17.3750   -3.8760 C.3    89  LEU89       0.0019
     16  CD1       -4.6210  -18.8690   -3.5670 C.3    89  LEU89       0.0001
     17  CD2       -6.1190  -17.0630   -4.4500 C.3    89  LEU89       0.0001
     18  N          1.7780  -23.2270    2.3990 N.3   129  PHE129     -0.1241
     19  CA         0.6820  -23.1670    1.4710 C.3   129  PHE129      0.1605
     20  C          1.1770  -22.8320    0.0680 C.2   129  PHE129      0.2264
     21  O          0.6570  -23.3180   -0.8720 O.2   129  PHE129     -0.2867
     22  CB        -0.2970  -22.0990    1.8880 C.3   129  PHE129      0.0534
     23  CG        -1.4820  -21.9720    0.9820 C.ar  129  PHE129     -0.0203
     24  CD1       -2.3960  -22.9990    0.9060 C.ar  129  PHE129     -0.0042
     25  CD2       -1.6480  -20.8980    0.2150 C.ar  129  PHE129     -0.0042
     26  CE1       -3.4900  -22.9150    0.0550 C.ar  129  PHE129     -0.0003
     27  CE2       -2.7630  -20.7680   -0.6230 C.ar  129  PHE129     -0.0003
     28  CZ        -3.6580  -21.8080   -0.7320 C.ar  129  PHE129     -0.0000
     29  N          0.4150  -24.9100   -3.1900 N.3   133  LEU133     -0.1245
     30  CA        -0.1690  -24.2960   -4.3570 C.3   133  LEU133      0.1561
     31  C          0.7150  -24.5600   -5.5850 C.2   133  LEU133      0.2260
     32  O          0.2420  -24.9050   -6.6540 O.2   133  LEU133     -0.2867
     33  CB        -0.2160  -22.7860   -4.1860 C.3   133  LEU133      0.0270
     34  CG        -1.4110  -21.9980   -4.6160 C.3   133  LEU133      0.0019
     35  CD1       -0.9840  -20.5550   -4.7630 C.3   133  LEU133      0.0001
     36  CD2       -2.0700  -22.5150   -5.8640 C.3   133  LEU133      0.0001
     37  N         -9.3110  -17.4580  -10.9410 N.3   146  LEU146     -0.1245
     38  CA        -9.5540  -18.0090   -9.6290 C.3   146  LEU146      0.1561
     39  C         -9.5150  -16.9060   -8.5670 C.2   146  LEU146      0.2260
     40  O        -10.3590  -16.8760   -7.7360 O.2   146  LEU146     -0.2867
     41  CB        -8.5270  -19.0870   -9.3400 C.3   146  LEU146      0.0270
     42  CG        -8.8860  -20.4490   -9.9140 C.3   146  LEU146      0.0019
     43  CD1       -7.6860  -21.3680   -9.9260 C.3   146  LEU146      0.0001
     44  CD2      -10.0730  -21.1310   -9.2560 C.3   146  LEU146      0.0001
     45  N        -12.4890  -14.9540   -8.6430 N.3   149  LEU149     -0.1231
     46  CA       -13.6470  -15.6450   -8.0360 C.3   149  LEU149      0.1693
     47  C        -13.6230  -15.6760   -6.4960 C.2   149  LEU149      0.2591
     48  O        -14.6440  -15.8250   -5.8490 O.2   149  LEU149     -0.2718
     49  CB       -13.7490  -17.0760   -8.5700 C.3   149  LEU149      0.0284
     50  CG       -14.1330  -17.2080  -10.0480 C.3   149  LEU149      0.0019
     51  CD1      -13.7130  -18.5490  -10.5610 C.3   149  LEU149      0.0001
     52  CD2      -15.6340  -17.0240  -10.2480 C.3   149  LEU149      0.0001
     53  N        -12.4570  -15.4660   -5.9070 N.am  150  VAL150     -0.1980
     54  CA       -12.3800  -15.2740   -4.4570 C.3   150  VAL150      0.1595
     55  C        -13.0510  -13.9550   -4.0750 C.2   150  VAL150      0.2287
     56  O        -13.7030  -13.8510   -3.0740 O.2   150  VAL150     -0.2864
     57  CB       -10.9050  -15.3180   -4.0360 C.3   150  VAL150      0.0276
     58  CG1      -10.7250  -14.8670   -2.6320 C.3   150  VAL150      0.0022
     59  CG2      -10.3000  -16.7190   -4.2720 C.3   150  VAL150      0.0022
     60  N        -15.3080  -11.9930   -6.1340 N.3   152  ILE152     -0.1231
     61  CA       -16.6110  -11.8310   -6.6650 C.3   152  ILE152      0.1692
     62  C        -17.4360  -13.0650   -6.2850 C.2   152  ILE152      0.2593
     63  O        -17.4450  -14.0920   -6.9640 O.2   152  ILE152     -0.2718
     64  CB       -16.5600  -11.7320   -8.2020 C.3   152  ILE152      0.0266
     65  CG1      -15.5870  -10.6570   -8.6740 C.3   152  ILE152      0.0019
     66  CG2      -17.9560  -11.4920   -8.7870 C.3   152  ILE152      0.0020
     67  CD1      -16.1150   -9.2930   -8.4630 C.3   152  ILE152      0.0001
     68  N        -18.1290  -12.9650   -5.1740 N.am  153  THR153     -0.1939
     69  CA       -18.7320  -14.1250   -4.6180 C.3   153  THR153      0.2028
     70  C        -19.7720  -13.6430   -3.6710 C.2   153  THR153      0.2642
     71  O        -19.7090  -12.4780   -3.2280 O.2   153  THR153     -0.2714
     72  CB       -17.6480  -15.0060   -3.8820 C.3   153  THR153      0.1808
     73  OG1      -18.2190  -16.2450   -3.4890 O.3   153  THR153     -0.2208
     74  CG2      -17.1100  -14.3600   -2.5880 C.3   153  THR153      0.0379
     75  N        -20.7230  -14.5160   -3.3230 N.am  154  ASP154     -0.1957
     76  CA       -21.7590  -14.1630   -2.3780 C.3   154  ASP154      0.1840
     77  C        -21.1900  -13.7290   -1.0180 C.2   154  ASP154      0.2621
     78  O        -20.2840  -14.3590   -0.5220 O.2   154  ASP154     -0.2715
     79  CB       -22.6880  -15.3760   -2.0920 C.3   154  ASP154      0.1450
     80  CG       -23.6460  -15.7200   -3.2480 C.2   154  ASP154      0.3671
     81  OD1      -23.3800  -16.7450   -3.9950 O.co2 154  ASP154     -0.2456
     82  OD2      -24.6890  -14.9700   -3.3740 O.co2 154  ASP154     -0.2456
     83  N        -21.7410  -12.6710   -0.4170 N.am  155  ARG155     -0.1977
     84  CA       -21.4370  -12.3040    0.9640 C.3   155  ARG155      0.1597
     85  C        -22.6940  -11.7840    1.6130 C.2   155  ARG155      0.2287
     86  O        -23.5010  -11.1240    0.9470 O.2   155  ARG155     -0.2864
     87  CB       -20.4010  -11.1540    1.0320 C.3   155  ARG155      0.0334
     88  CG       -19.1140  -11.4060    0.3430 C.3   155  ARG155      0.0492
     89  CD       -18.2620  -12.3830    1.1170 C.3   155  ARG155      0.2205
     90  NE       -16.9950  -12.6240    0.3700 N.pl3 155  ARG155     -0.0865
     91  CZ       -16.0680  -13.4850    0.7630 C.cat 155  ARG155      0.5346
     92  NH1      -16.2790  -14.1890    1.8570 N.pl3 155  ARG155      0.1354
     93  NH2      -14.9270  -13.6430    0.0870 N.pl3 155  ARG155      0.1354
     94  N        -19.9320  -13.5080  -11.2580 N.3   168  GLN168     -0.1245
     95  CA       -19.3050  -14.7900  -10.8930 C.3   168  GLN168      0.1566
     96  C        -19.6200  -15.8340  -11.9540 C.2   168  GLN168      0.2260
     97  O        -18.7050  -16.5490  -12.3670 O.2   168  GLN168     -0.2867
     98  CB       -19.8600  -15.2780   -9.5200 C.3   168  GLN168      0.0367
     99  CG       -19.3700  -16.6580   -9.0150 C.3   168  GLN168      0.0905
    100  CD       -20.1600  -17.1260   -7.7950 C.2   168  GLN168      0.2608
    101  OE1      -21.3830  -17.1840   -7.8040 O.2   168  GLN168     -0.2717
    102  NE2      -19.4780  -17.3050   -6.6960 N.am  168  GLN168     -0.0878
    103  N         -9.6120  -28.5190  -10.6410 N.3   188  LEU188     -0.1245
    104  CA       -10.4300  -27.6920   -9.8010 C.3   188  LEU188      0.1561
    105  C        -10.9030  -28.4600   -8.5660 C.2   188  LEU188      0.2260
    106  O        -10.8760  -27.9240   -7.4900 O.2   188  LEU188     -0.2867
    107  CB       -11.5960  -27.0860  -10.5880 C.3   188  LEU188      0.0270
    108  CG       -12.5990  -26.4360   -9.6270 C.3   188  LEU188      0.0019
    109  CD1      -12.6330  -24.9180   -9.7690 C.3   188  LEU188      0.0001
    110  CD2      -13.9660  -27.0780   -9.8280 C.3   188  LEU188      0.0001
    111  N         -7.9270  -28.1570   -6.6690 N.3   191  LEU191     -0.1231
    112  CA        -7.7920  -26.8680   -6.0730 C.3   191  LEU191      0.1693
    113  C         -8.6690  -26.6350   -4.8530 C.2   191  LEU191      0.2591
    114  O         -8.2220  -26.0750   -3.8590 O.2   191  LEU191     -0.2718
    115  CB        -8.1260  -25.8050   -7.0860 C.3   191  LEU191      0.0284
    116  CG        -6.8610  -25.0800   -7.4280 C.3   191  LEU191      0.0019
    117  CD1       -7.0270  -24.3910   -8.7710 C.3   191  LEU191      0.0001
    118  CD2       -6.5460  -24.1090   -6.2870 C.3   191  LEU191      0.0001
    119  N         -9.9140  -27.0520   -4.9250 N.am  192  LEU192     -0.1980
    120  CA       -10.8180  -26.9050   -3.8100 C.3   192  LEU192      0.1596
    121  C        -10.3570  -27.6930   -2.6350 C.2   192  LEU192      0.2287
    122  O        -10.6280  -27.3090   -1.5100 O.2   192  LEU192     -0.2864
    123  CB       -12.2340  -27.3500   -4.1970 C.3   192  LEU192      0.0297
    124  CG       -13.1230  -26.2790   -4.8340 C.3   192  LEU192      0.0022
    125  CD1      -12.3610  -25.0880   -5.3800 C.3   192  LEU192      0.0001
    126  CD2      -14.0330  -26.8830   -5.8840 C.3   192  LEU192      0.0001
    127  N         -7.5360  -27.6540   -1.3300 N.3   194  LYS194     -0.1231
    128  CA        -6.6820  -26.7320   -0.5420 C.3   194  LYS194      0.1693
    129  C         -7.4240  -25.5740    0.1510 C.2   194  LYS194      0.2591
    130  O         -6.8360  -24.8380    0.9260 O.2   194  LYS194     -0.2718
    131  CB        -5.7120  -26.0180   -1.4680 C.3   194  LYS194      0.0285
    132  CG        -5.0140  -26.8970   -2.4890 C.3   194  LYS194      0.0035
    133  CD        -3.7090  -27.5100   -2.0500 C.3   194  LYS194      0.0206
    134  CE        -3.6170  -28.9710   -2.4000 C.3   194  LYS194      0.1093
    135  NZ        -2.2550  -29.4780   -2.1310 N.3   194  LYS194     -0.1314
    136  N         -8.6950  -25.3610   -0.1750 N.am  195  LEU195     -0.1980
    137  CA        -9.4760  -24.3290    0.5120 C.3   195  LEU195      0.1596
    138  C         -9.3670  -24.3750    2.0230 C.2   195  LEU195      0.2287
    139  O         -9.2900  -23.3400    2.6240 O.2   195  LEU195     -0.2864
    140  CB       -10.9690  -24.4260    0.1950 C.3   195  LEU195      0.0297
    141  CG       -11.6450  -23.2370   -0.4310 C.3   195  LEU195      0.0022
    142  CD1      -10.6550  -22.2160   -0.9660 C.3   195  LEU195      0.0001
    143  CD2      -12.5440  -23.7290   -1.5300 C.3   195  LEU195      0.0001
    144  N         -6.3840  -22.7470    3.1250 N.3   198  LEU198     -0.1231
    145  CA        -6.5520  -21.3110    2.9380 C.3   198  LEU198      0.1693
    146  C         -7.3780  -20.6700    4.0310 C.2   198  LEU198      0.2591
    147  O         -7.0040  -19.6440    4.5730 O.2   198  LEU198     -0.2718
    148  CB        -7.1890  -20.9890    1.6010 C.3   198  LEU198      0.0284
    149  CG        -7.1650  -19.5140    1.2450 C.3   198  LEU198      0.0019
    150  CD1       -5.7800  -18.8640    1.2800 C.3   198  LEU198      0.0001
    151  CD2       -7.7360  -19.3520   -0.1550 C.3   198  LEU198      0.0001
    152  N         -8.4880  -21.2950    4.3810 N.am  199  ARG199     -0.1980
    153  CA        -9.3770  -20.7860    5.4150 C.3   199  ARG199      0.1597
    154  C         -8.6360  -20.6770    6.7460 C.2   199  ARG199      0.2287
    155  O         -8.7950  -19.7430    7.4830 O.2   199  ARG199     -0.2864
    156  CB       -10.5700  -21.7410    5.6240 C.3   199  ARG199      0.0334
    157  CG       -11.9490  -21.2630    5.1460 C.3   199  ARG199      0.0492
    158  CD       -12.0730  -20.9480    3.6590 C.3   199  ARG199      0.2205
    159  NE       -13.3540  -21.3900    3.0900 N.pl3 199  ARG199     -0.0865
    160  CZ       -13.8860  -20.9150    1.9500 C.cat 199  ARG199      0.5346
    161  NH1      -13.2930  -19.9470    1.2350 N.pl3 199  ARG199      0.1354
    162  NH2      -15.0300  -21.4000    1.5200 N.pl3 199  ARG199      0.1354
@<TRIPOS>BOND
     1    97    96    2
     2    96    95    1
     3    94    95    1
     4    37    38    1
     5    95    98    1
     6   103   104    1
     7   107   104    1
     8   107   108    1
     9    51    50    1
    10    52    50    1
    11    50    49    1
    12    43    42    1
    13    42    41    1
    14    42    44    1
    15   110   108    1
    16   104   105    1
    17   109   108    1
    18    38    41    1
    19    38    39    1
    20    98    99    1
    21    99   100    1
    22    66    64    1
    23   117   116    1
    24    65    67    1
    25    65    64    1
    26    45    46    1
    27    49    46    1
    28    39    40    2
    29   105   106    2
    30    64    61    1
    31    46    47    1
    32   101   100    2
    33   100   102   am
    34   116   115    1
    35   116   118    1
    36   115   112    1
    37    63    62    2
    38   111   112    1
    39    61    62    1
    40    61    60    1
    41    32    31    2
    42    47    53   am
    43    47    48    2
    44    62    68   am
    45   112   113    1
    46    53    54    1
    47   126   124    1
    48    36    34    1
    49    31    30    1
    50   125   124    1
    51    68    69    1
    52   119   113   am
    53   119   120    1
    54   113   114    2
    55   124   123    1
    56    35    34    1
    57    69    72    1
    58    69    70    1
    59    34    33    1
    60    54    55    1
    61    54    57    1
    62    17    15    1
    63    30    33    1
    64    30    29    1
    65    59    57    1
    66   123   120    1
    67    55    56    2
    68    57    58    1
    69    81    80   ar
    70    72    73    1
    71    72    74    1
    72    15    16    1
    73    15    14    1
    74   120   121    1
    75    70    75   am
    76    70    71    2
    77    13    12    2
    78    82    80   ar
    79    75    76    1
    80    80    79    1
    81    12    11    1
    82    14    11    1
    83   121   122    2
    84   132   133    1
    85   132   131    1
    86   134   135    1
    87   134   133    1
    88    76    79    1
    89    76    77    1
    90    11    10    1
    91   143   141    1
    92   131   128    1
    93   127   128    1
    94    77    78    2
    95    77    83   am
    96   142   141    1
    97    21    20    2
    98    28    27   ar
    99    28    26   ar
   100    27    25   ar
   101   128   129    1
   102   141   140    1
   103    83    84    1
   104   136   129   am
   105   136   137    1
   106     4     3    2
   107   151   149    1
   108    26    24   ar
   109    20    19    1
   110    93    91    1
   111   129   130    2
   112   140   137    1
   113    25    23   ar
   114     3     2    1
   115    88    87    1
   116    88    89    1
   117    90    91    2
   118    90    89    1
   119     9     7   ar
   120   137   138    1
   121    91    92    1
   122    24    23   ar
   123    86    85    2
   124    84    87    1
   125    84    85    1
   126     7     8   ar
   127     7     6    1
   128    23    22    1
   129     5     6    1
   130     5     2    1
   131   161   160    1
   132   149   150    1
   133   149   148    1
   134    19    22    1
   135    19    18    1
   136   162   160    1
   137     2     1    1
   138   148   145    1
   139   160   159    2
   140   138   139    2
   141   145   144    1
   142   145   146    1
   143   159   158    1
   144   158   157    1
   145   146   152   am
   146   146   147    2
   147   152   153    1
   148   157   156    1
   149   153   156    1
   150   153   154    1
   151   154   155    2
