@<TRIPOS>MOLECULE
tmp/4refB00.pdb
 141 134 0 0 0
SMALL
GASTEIGER

@<TRIPOS>ATOM
      1  N         -7.5600  -13.1300    2.2950 N.3    84  GLU84      -0.1245
      2  CA        -7.5400  -14.2720    1.3740 C.3    84  GLU84       0.1567
      3  C         -6.8110  -13.9700    0.0940 C.2    84  GLU84       0.2260
      4  O         -5.9750  -14.7410   -0.3260 O.2    84  GLU84      -0.2867
      5  CB        -8.9680  -14.7070    1.0660 C.3    84  GLU84       0.0388
      6  CG        -9.0120  -15.9250    0.2400 C.3    84  GLU84       0.1160
      7  CD       -10.3620  -16.6560    0.2250 C.2    84  GLU84       0.3649
      8  OE1      -11.3850  -16.1270    0.6770 O.co2  84  GLU84      -0.2457
      9  OE2      -10.3520  -17.7900   -0.2810 O.co2  84  GLU84      -0.2457
     10  N         -3.2600  -15.6620   -1.0280 N.3    88  TRP88      -0.1241
     11  CA        -3.2680  -16.2950   -2.3320 C.3    88  TRP88       0.1605
     12  C         -2.2670  -15.7690   -3.3160 C.2    88  TRP88       0.2264
     13  O         -1.4960  -16.4960   -3.8440 O.2    88  TRP88      -0.2867
     14  CB        -4.6960  -16.1340   -2.9310 C.3    88  TRP88       0.0550
     15  CG        -4.9940  -16.6470   -4.2990 C.ar   88  TRP88       0.0003
     16  CD1       -5.4170  -15.8820   -5.3850 C.ar   88  TRP88       0.0946
     17  CD2       -5.1000  -17.9930   -4.7080 C.ar   88  TRP88       0.0152
     18  NE1       -5.7020  -16.6890   -6.4480 N.ar   88  TRP88      -0.2442
     19  CE2       -5.5020  -17.9920   -6.0730 C.ar   88  TRP88       0.0810
     20  CE3       -4.8210  -19.1870   -4.1050 C.ar   88  TRP88       0.0012
     21  CZ2       -5.6320  -19.1540   -6.8240 C.ar   88  TRP88       0.0191
     22  CZ3       -4.9540  -20.3460   -4.8400 C.ar   88  TRP88       0.0001
     23  CH2       -5.3730  -20.3290   -6.1900 C.ar   88  TRP88       0.0015
     24  N          1.8080  -23.3270    2.2690 N.3   128  PHE128     -0.1241
     25  CA         0.7140  -23.2520    1.2800 C.3   128  PHE128      0.1605
     26  C          1.2710  -22.8960   -0.1230 C.2   128  PHE128      0.2264
     27  O          0.7730  -23.3860   -1.1330 O.2   128  PHE128     -0.2867
     28  CB        -0.3230  -22.2050    1.7300 C.3   128  PHE128      0.0534
     29  CG        -1.4430  -22.0170    0.7570 C.ar  128  PHE128     -0.0203
     30  CD1       -2.3430  -23.0130    0.5600 C.ar  128  PHE128     -0.0042
     31  CD2       -1.5260  -20.8970   -0.0140 C.ar  128  PHE128     -0.0042
     32  CE1       -3.3700  -22.8730   -0.3830 C.ar  128  PHE128     -0.0003
     33  CE2       -2.5200  -20.7420   -0.9510 C.ar  128  PHE128     -0.0003
     34  CZ        -3.4390  -21.7570   -1.1550 C.ar  128  PHE128     -0.0000
     35  N         -9.1670  -17.3020  -11.0240 N.3   145  LEU145     -0.1245
     36  CA        -9.4510  -17.7840   -9.6810 C.3   145  LEU145      0.1561
     37  C         -9.3900  -16.6080   -8.7120 C.2   145  LEU145      0.2260
     38  O        -10.2470  -16.5010   -7.8450 O.2   145  LEU145     -0.2867
     39  CB        -8.4570  -18.8890   -9.3120 C.3   145  LEU145      0.0270
     40  CG        -8.7020  -20.2350  -10.0430 C.3   145  LEU145      0.0019
     41  CD1       -7.4950  -21.1290   -9.9430 C.3   145  LEU145      0.0001
     42  CD2       -9.9310  -20.9240   -9.4700 C.3   145  LEU145      0.0001
     43  N        -12.5450  -14.7910   -8.7780 N.3   148  LEU148     -0.1231
     44  CA       -13.5950  -15.5590   -8.1570 C.3   148  LEU148      0.1693
     45  C        -13.5190  -15.5870   -6.6180 C.2   148  LEU148      0.2591
     46  O        -14.5250  -15.7150   -5.9450 O.2   148  LEU148     -0.2718
     47  CB       -13.5470  -17.0140   -8.6490 C.3   148  LEU148      0.0284
     48  CG       -14.0830  -17.1820  -10.0800 C.3   148  LEU148      0.0019
     49  CD1      -13.6970  -18.5540  -10.6150 C.3   148  LEU148      0.0001
     50  CD2      -15.6180  -17.0150  -10.0720 C.3   148  LEU148      0.0001
     51  N        -12.3250  -15.3890   -6.0880 N.am  149  VAL149     -0.1980
     52  CA       -12.1890  -15.1760   -4.6520 C.3   149  VAL149      0.1595
     53  C        -12.8330  -13.8830   -4.2440 C.2   149  VAL149      0.2287
     54  O        -13.4030  -13.8030   -3.2010 O.2   149  VAL149     -0.2864
     55  CB       -10.6850  -15.1530   -4.2560 C.3   149  VAL149      0.0276
     56  CG1      -10.5010  -14.6170   -2.8490 C.3   149  VAL149      0.0022
     57  CG2      -10.0920  -16.5610   -4.4370 C.3   149  VAL149      0.0022
     58  N        -15.1850  -12.0120   -6.1590 N.3   151  ILE151     -0.1231
     59  CA       -16.5750  -11.8060   -6.6580 C.3   151  ILE151      0.1692
     60  C        -17.3660  -13.0340   -6.2620 C.2   151  ILE151      0.2593
     61  O        -17.3620  -14.0680   -6.9240 O.2   151  ILE151     -0.2718
     62  CB       -16.6010  -11.6710   -8.1980 C.3   151  ILE151      0.0266
     63  CG1      -15.6210  -10.6230   -8.6890 C.3   151  ILE151      0.0019
     64  CG2      -18.0150  -11.3880   -8.7060 C.3   151  ILE151      0.0020
     65  CD1      -15.9160   -9.3030   -8.1720 C.3   151  ILE151      0.0001
     66  N        -18.0330  -12.9150   -5.1340 N.am  152  THR152     -0.1939
     67  CA       -18.6430  -14.0810   -4.5670 C.3   152  THR152      0.2028
     68  C        -19.7340  -13.5560   -3.6940 C.2   152  THR152      0.2642
     69  O        -19.7540  -12.3810   -3.3170 O.2   152  THR152     -0.2714
     70  CB       -17.5930  -14.9380   -3.8350 C.3   152  THR152      0.1808
     71  OG1      -18.1310  -16.2160   -3.4970 O.3   152  THR152     -0.2208
     72  CG2      -17.0920  -14.2950   -2.5420 C.3   152  THR152      0.0379
     73  N        -20.6060  -14.4520   -3.2970 N.am  153  ASP153     -0.1971
     74  CA       -21.6170  -14.1040   -2.3410 C.3   153  ASP153      0.1709
     75  C        -21.0000  -13.6760   -1.0220 C.2   153  ASP153      0.2293
     76  O        -20.0280  -14.3150   -0.5530 O.2   153  ASP153     -0.2864
     77  CB       -22.4860  -15.3100   -2.0630 C.3   153  ASP153      0.1436
     78  CG       -23.4980  -15.5590   -3.1600 C.2   153  ASP153      0.3671
     79  OD1      -24.3550  -14.6580   -3.4040 O.co2 153  ASP153     -0.2456
     80  OD2      -23.4630  -16.6580   -3.6830 O.co2 153  ASP153     -0.2456
     81  N        -19.9740  -13.4850  -11.2150 N.3   167  GLN167     -0.1245
     82  CA       -19.3190  -14.7470  -10.8070 C.3   167  GLN167      0.1566
     83  C        -19.5850  -15.7780  -11.8800 C.2   167  GLN167      0.2260
     84  O        -18.6740  -16.4740  -12.2680 O.2   167  GLN167     -0.2867
     85  CB       -19.8820  -15.2680   -9.4590 C.3   167  GLN167      0.0367
     86  CG       -19.3640  -16.6220   -8.9130 C.3   167  GLN167      0.0905
     87  CD       -20.1430  -17.0350   -7.6570 C.2   167  GLN167      0.2608
     88  OE1      -21.3730  -17.1390   -7.6540 O.2   167  GLN167     -0.2717
     89  NE2      -19.4550  -17.1570   -6.5650 N.am  167  GLN167     -0.0878
     90  N         -7.5980  -28.5490   -6.6820 N.3   188  LEU188     -0.1231
     91  CA        -7.3090  -27.2660   -6.1490 C.3   188  LEU188      0.1693
     92  C         -8.1720  -26.9940   -4.9130 C.2   188  LEU188      0.2591
     93  O         -7.6680  -26.4990   -3.8710 O.2   188  LEU188     -0.2718
     94  CB        -7.5450  -26.2230   -7.2110 C.3   188  LEU188      0.0284
     95  CG        -7.3740  -24.8190   -6.6700 C.3   188  LEU188      0.0019
     96  CD1       -6.0290  -24.5420   -5.9850 C.3   188  LEU188      0.0001
     97  CD2       -7.5900  -23.8580   -7.8210 C.3   188  LEU188      0.0001
     98  N         -9.4540  -27.3160   -5.0020 N.am  189  LEU189     -0.1980
     99  CA       -10.3450  -27.1370   -3.8710 C.3   189  LEU189      0.1596
    100  C         -9.9380  -27.9520   -2.6530 C.2   189  LEU189      0.2287
    101  O        -10.2700  -27.5740   -1.5330 O.2   189  LEU189     -0.2864
    102  CB       -11.7730  -27.5160   -4.2350 C.3   189  LEU189      0.0297
    103  CG       -12.4300  -26.5680   -5.2070 C.3   189  LEU189      0.0022
    104  CD1      -13.8180  -27.1360   -5.4820 C.3   189  LEU189      0.0001
    105  CD2      -12.4900  -25.1360   -4.6880 C.3   189  LEU189      0.0001
    106  N         -7.1110  -27.9850   -1.4240 N.3   191  LYS191     -0.1231
    107  CA        -6.1840  -27.1130   -0.6830 C.3   191  LYS191      0.1693
    108  C         -6.8880  -25.9890    0.0470 C.2   191  LYS191      0.2591
    109  O         -6.2830  -25.2760    0.8380 O.2   191  LYS191     -0.2718
    110  CB        -5.2370  -26.4260   -1.6630 C.3   191  LYS191      0.0285
    111  CG        -4.5000  -27.3480   -2.5930 C.3   191  LYS191      0.0035
    112  CD        -3.6940  -28.4050   -1.8740 C.3   191  LYS191      0.0206
    113  CE        -2.9050  -29.2330   -2.9030 C.3   191  LYS191      0.1093
    114  NZ        -2.1590  -30.3370   -2.2690 N.3   191  LYS191     -0.1314
    115  N         -8.1530  -25.7870   -0.2760 N.am  192  LEU192     -0.1980
    116  CA        -8.8870  -24.6330    0.2350 C.3   192  LEU192      0.1596
    117  C         -8.9720  -24.5440    1.7910 C.2   192  LEU192      0.2287
    118  O         -8.9360  -23.4360    2.3270 O.2   192  LEU192     -0.2864
    119  CB       -10.2450  -24.5950   -0.3790 C.3   192  LEU192      0.0297
    120  CG       -11.1340  -23.4250   -0.0630 C.3   192  LEU192      0.0022
    121  CD1      -10.5160  -22.1350   -0.5690 C.3   192  LEU192      0.0001
    122  CD2      -12.4540  -23.7380   -0.7400 C.3   192  LEU192      0.0001
    123  N         -6.0690  -22.8330    2.9910 N.3   195  LEU195     -0.1231
    124  CA        -6.2180  -21.3880    2.8160 C.3   195  LEU195      0.1693
    125  C         -7.0460  -20.7210    3.8570 C.2   195  LEU195      0.2591
    126  O         -6.7290  -19.6260    4.3440 O.2   195  LEU195     -0.2718
    127  CB        -6.7890  -21.0570    1.4480 C.3   195  LEU195      0.0284
    128  CG        -6.8430  -19.5960    1.0190 C.3   195  LEU195      0.0019
    129  CD1       -5.5090  -18.8430    1.0920 C.3   195  LEU195      0.0001
    130  CD2       -7.3120  -19.5330   -0.4210 C.3   195  LEU195      0.0001
    131  N         -8.1480  -21.3300    4.1830 N.am  196  ARG196     -0.1980
    132  CA        -9.0590  -20.7630    5.1590 C.3   196  ARG196      0.1597
    133  C         -8.4170  -20.7210    6.4990 C.2   196  ARG196      0.2287
    134  O         -8.5410  -19.7450    7.2140 O.2   196  ARG196     -0.2864
    135  CB       -10.3460  -21.6320    5.2060 C.3   196  ARG196      0.0334
    136  CG       -11.0990  -21.6080    3.8220 C.3   196  ARG196      0.0492
    137  CD       -12.3500  -20.7060    3.8150 C.3   196  ARG196      0.2205
    138  NE       -12.6840  -20.1810    2.4530 N.pl3 196  ARG196     -0.0865
    139  CZ       -13.5930  -20.7030    1.6060 C.cat 196  ARG196      0.5346
    140  NH1      -14.2850  -21.7840    1.9530 N.pl3 196  ARG196      0.1354
    141  NH2      -13.7910  -20.1600    0.3890 N.pl3 196  ARG196      0.1354
@<TRIPOS>BOND
     1    84    83    2
     2    83    82    1
     3    81    82    1
     4    35    36    1
     5    82    85    1
     6    49    48    1
     7    48    50    1
     8    48    47    1
     9    40    41    1
    10    40    42    1
    11    40    39    1
    12    36    39    1
    13    36    37    1
    14    85    86    1
    15    86    87    1
    16    43    44    1
    17    37    38    2
    18    64    62    1
    19    63    62    1
    20    63    65    1
    21    47    44    1
    22    62    59    1
    23    44    45    1
    24    97    95    1
    25    87    88    2
    26    87    89   am
    27    94    95    1
    28    94    91    1
    29    61    60    2
    30    21    23   ar
    31    21    19   ar
    32    90    91    1
    33    95    96    1
    34    59    60    1
    35    59    58    1
    36    45    51   am
    37    45    46    2
    38    18    19   ar
    39    18    16   ar
    40    60    66   am
    41    23    22   ar
    42    91    92    1
    43    51    52    1
    44    19    17   ar
    45   104   103    1
    46    16    15   ar
    47   103   105    1
    48   103   102    1
    49    66    67    1
    50    98    92   am
    51    98    99    1
    52    92    93    2
    53    22    20   ar
    54    17    15   ar
    55    17    20   ar
    56    52    55    1
    57    52    53    1
    58    67    70    1
    59    67    68    1
    60    57    55    1
    61    15    14    1
    62    55    56    1
    63    53    54    2
    64   102    99    1
    65    99   100    1
    66    13    12    2
    67    70    71    1
    68    70    72    1
    69    68    69    2
    70    68    73   am
    71    80    78   ar
    72    79    78   ar
    73    12    11    1
    74    73    74    1
    75    78    77    1
    76    14    11    1
    77   113   114    1
    78   113   112    1
    79   100   101    2
    80   111   112    1
    81   111   110    1
    82    74    77    1
    83    74    75    1
    84    11    10    1
    85   110   107    1
    86   106   107    1
    87    34    33   ar
    88    34    32   ar
    89    27    26    2
    90    75    76    2
    91    33    31   ar
    92   122   120    1
    93   107   108    1
    94   121   120    1
    95   130   128    1
    96    32    30   ar
    97   119   120    1
    98   119   116    1
    99     4     3    2
   100     9     7   ar
   101   115   108   am
   102   115   116    1
   103    26    25    1
   104    31    29   ar
   105   108   109    2
   106     3     2    1
   107     7     6    1
   108     7     8   ar
   109   116   117    1
   110     6     5    1
   111   141   139    1
   112    30    29   ar
   113    29    28    1
   114   128   129    1
   115   128   127    1
   116     5     2    1
   117    25    28    1
   118    25    24    1
   119     2     1    1
   120   127   124    1
   121   139   140    1
   122   139   138    2
   123   117   118    2
   124   138   137    1
   125   124   123    1
   126   124   125    1
   127   137   136    1
   128   136   135    1
   129   125   131   am
   130   125   126    2
   131   131   132    1
   132   132   135    1
   133   132   133    1
   134   133   134    2
