@<TRIPOS>MOLECULE
tmp/4reiA00.pdb
 141 138 0 0 0
SMALL
GASTEIGER

@<TRIPOS>ATOM
      1  N         21.3860    5.2330   12.9340 N.3    23  PHE23      -0.1241
      2  CA        20.3470    6.0210   13.5810 C.3    23  PHE23       0.1605
      3  C         19.6170    5.2910   14.6720 C.2    23  PHE23       0.2264
      4  O         19.2520    5.9070   15.6580 O.2    23  PHE23      -0.2867
      5  CB        19.3260    6.5000   12.5180 C.3    23  PHE23       0.0534
      6  CG        19.8840    7.6080   11.6770 C.ar   23  PHE23      -0.0203
      7  CD1       19.9140    8.9130   12.1610 C.ar   23  PHE23      -0.0042
      8  CD2       20.4310    7.3790   10.4250 C.ar   23  PHE23      -0.0042
      9  CE1       20.4960    9.8950   11.4340 C.ar   23  PHE23      -0.0003
     10  CE2       20.9930    8.3980    9.6560 C.ar   23  PHE23      -0.0003
     11  CZ        20.9920    9.6700   10.2070 C.ar   23  PHE23      -0.0000
     12  N         25.7210   18.5020   12.0280 N.3    38  ILE38      -0.1245
     13  CA        25.3470   18.0760   13.2990 C.3    38  ILE38       0.1561
     14  C         26.5740   18.1320   14.1970 C.2    38  ILE38       0.2260
     15  O         27.5720   17.4370   13.9180 O.2    38  ILE38      -0.2867
     16  CB        24.6660   16.7100   13.2860 C.3    38  ILE38       0.0252
     17  CG1       23.3370   16.8210   12.4970 C.3    38  ILE38       0.0019
     18  CG2       24.3820   16.3130   14.7250 C.3    38  ILE38       0.0019
     19  CD1       22.6700   15.4960   12.2310 C.3    38  ILE38       0.0001
     20  N         20.1220   17.1350   20.1030 N.3    57  TRP57      -0.1241
     21  CA        20.9130   17.4270   18.9700 C.3    57  TRP57       0.1605
     22  C         21.3260   18.8690   18.9120 C.2    57  TRP57       0.2264
     23  O         20.3960   19.7310   19.0290 O.2    57  TRP57      -0.2867
     24  CB        20.1860   17.1050   17.6860 C.3    57  TRP57       0.0550
     25  CG        19.6710   15.7270   17.4350 C.ar   57  TRP57       0.0003
     26  CD1       18.4520   15.2620   17.6260 C.ar   57  TRP57       0.0946
     27  CD2       20.4920   14.5840   16.9790 C.ar   57  TRP57       0.0152
     28  NE1       18.3780   13.8930   17.2730 N.ar   57  TRP57      -0.2442
     29  CE2       19.6230   13.5290   16.8370 C.ar   57  TRP57       0.0810
     30  CE3       21.7970   14.4930   16.5600 C.ar   57  TRP57       0.0012
     31  CZ2       20.0210   12.2960   16.3700 C.ar   57  TRP57       0.0191
     32  CZ3       22.2270   13.2270   16.0910 C.ar   57  TRP57       0.0001
     33  CH2       21.2770   12.2060   15.9470 C.ar   57  TRP57       0.0015
     34  N         22.8190   21.2810   16.0240 N.3    59  TYR59      -0.1241
     35  CA        22.9310   21.2210   14.6310 C.3    59  TYR59       0.1605
     36  C         22.9230   22.5950   14.0330 C.2    59  TYR59       0.2264
     37  O         22.7290   23.5620   14.8450 O.2    59  TYR59      -0.2867
     38  CB        21.7840   20.3510   14.0010 C.3    59  TYR59       0.0534
     39  CG        20.3770   20.9270   14.1270 C.ar   59  TYR59      -0.0201
     40  CD1       19.7990   21.5100   13.0030 C.ar   59  TYR59      -0.0009
     41  CD2       19.6270   20.8600   15.2830 C.ar   59  TYR59      -0.0009
     42  CE1       18.5020   22.0420   13.1360 C.ar   59  TYR59       0.0417
     43  CE2       18.3840   21.3530   15.4140 C.ar   59  TYR59       0.0417
     44  CZ        17.8250   21.9740   14.3000 C.ar   59  TYR59       0.1957
     45  OH        16.5350   22.4920   14.4020 O.3    59  TYR59      -0.2866
     46  N         17.5480   20.7110   19.0040 N.3    68  ALA68      -0.1245
     47  CA        16.4000   19.9520   19.0680 C.3    68  ALA68       0.1562
     48  C         16.5050   18.8150   20.0420 C.2    68  ALA68       0.2260
     49  O         17.4050   17.9560   19.8690 O.2    68  ALA68      -0.2867
     50  CB        16.0460   19.3380   17.7150 C.3    68  ALA68       0.0290
     51  N         14.8340   15.4170   21.0730 N.3    70  GLU70      -0.1245
     52  CA        13.9990   14.4530   20.4720 C.3    70  GLU70       0.1567
     53  C         13.8470   13.1430   21.2790 C.2    70  GLU70       0.2260
     54  O         14.8870   12.6250   21.7560 O.2    70  GLU70      -0.2867
     55  CB        14.5610   14.1200   19.0690 C.3    70  GLU70       0.0388
     56  CG        14.5020   15.2730   18.0950 C.3    70  GLU70       0.1160
     57  CD        14.9480   14.8630   16.7250 C.2    70  GLU70       0.3649
     58  OE1       15.6980   13.8910   16.5200 O.co2  70  GLU70      -0.2457
     59  OE2       14.5860   15.5030   15.7080 O.co2  70  GLU70      -0.2457
     60  N         11.8520    9.9650   15.2320 N.3    84  PHE84      -0.1241
     61  CA        12.2670   10.9740   16.2210 C.3    84  PHE84       0.1605
     62  C         11.2200   12.1150   16.3980 C.2    84  PHE84       0.2264
     63  O         10.9530   12.7720   15.3930 O.2    84  PHE84      -0.2867
     64  CB        13.5630   11.6490   15.7620 C.3    84  PHE84       0.0534
     65  CG        14.7420   10.7070   15.5130 C.ar   84  PHE84      -0.0203
     66  CD1       15.0430   10.2190   14.2920 C.ar   84  PHE84      -0.0042
     67  CD2       15.5920   10.4460   16.5660 C.ar   84  PHE84      -0.0042
     68  CE1       16.1550    9.4120   14.0900 C.ar   84  PHE84      -0.0003
     69  CE2       16.7580    9.6900   16.3940 C.ar   84  PHE84      -0.0003
     70  CZ        17.0240    9.1540   15.1480 C.ar   84  PHE84      -0.0000
     71  N         12.7800   24.5090   16.7260 N.3    91  LEU91      -0.1245
     72  CA        11.6500   24.1890   15.8460 C.3    91  LEU91       0.1561
     73  C         10.3420   24.5020   16.4920 C.2    91  LEU91       0.2260
     74  O          9.3450   24.7670   15.7870 O.2    91  LEU91      -0.2867
     75  CB        11.6910   22.6770   15.3960 C.3    91  LEU91       0.0270
     76  CG        12.6130   22.4740   14.2670 C.3    91  LEU91       0.0019
     77  CD1       12.9390   20.9310   14.1280 C.3    91  LEU91       0.0001
     78  CD2       12.0270   22.9570   12.9140 C.3    91  LEU91       0.0001
     79  N         10.3070   13.4190   12.6860 N.3   100  PHE100     -0.1241
     80  CA        11.2170   12.9890   11.6470 C.3   100  PHE100      0.1605
     81  C         11.3110   11.4850   11.5890 C.2   100  PHE100      0.2264
     82  O         11.5900   10.9160   12.6150 O.2   100  PHE100     -0.2867
     83  CB        12.5770   13.5470   11.8470 C.3   100  PHE100      0.0534
     84  CG        12.6880   15.0800   11.7710 C.ar  100  PHE100     -0.0203
     85  CD1       12.5150   15.8940   12.8340 C.ar  100  PHE100     -0.0042
     86  CD2       13.0490   15.7210   10.5980 C.ar  100  PHE100     -0.0042
     87  CE1       12.6180   17.2470   12.7610 C.ar  100  PHE100     -0.0003
     88  CE2       13.1820   17.0730   10.4950 C.ar  100  PHE100     -0.0003
     89  CZ        12.9770   17.8460   11.5860 C.ar  100  PHE100     -0.0000
     90  N         13.4640   10.0130    4.0430 N.3   112  TRP112     -0.1241
     91  CA        13.1840   10.8510    5.2120 C.3   112  TRP112      0.1605
     92  C         11.7800   11.4850    5.1310 C.2   112  TRP112      0.2264
     93  O         11.4850   11.9590    4.0330 O.2   112  TRP112     -0.2867
     94  CB        14.1860   11.9450    5.2970 C.3   112  TRP112      0.0550
     95  CG        15.5670   11.5520    5.8640 C.ar  112  TRP112      0.0003
     96  CD1       16.6300   11.2070    5.1250 C.ar  112  TRP112      0.0946
     97  CD2       15.9170   11.4570    7.2060 C.ar  112  TRP112      0.0152
     98  NE1       17.6910   10.9150    5.9630 N.ar  112  TRP112     -0.2442
     99  CE2       17.2770   11.0580    7.2330 C.ar  112  TRP112      0.0810
    100  CE3       15.2690   11.6540    8.3930 C.ar  112  TRP112      0.0012
    101  CZ2       17.9780   10.9290    8.4760 C.ar  112  TRP112      0.0191
    102  CZ3       15.9380   11.4940    9.6170 C.ar  112  TRP112      0.0001
    103  CH2       17.2890   11.1200    9.6020 C.ar  112  TRP112      0.0015
    104  N         14.7080   21.6780    5.7530 N.3   129  TYR129     -0.1241
    105  CA        15.1830   20.4900    6.5010 C.3   129  TYR129      0.1605
    106  C         15.3050   19.3580    5.5530 C.2   129  TYR129      0.2264
    107  O         16.0730   18.4140    5.8590 O.2   129  TYR129     -0.2867
    108  CB        14.2460   20.1330    7.6590 C.3   129  TYR129      0.0534
    109  CG        14.5130   21.0140    8.8450 C.ar  129  TYR129     -0.0201
    110  CD1       15.2700   20.5620    9.9480 C.ar  129  TYR129     -0.0009
    111  CD2       14.1180   22.3290    8.9460 C.ar  129  TYR129     -0.0009
    112  CE1       15.5910   21.2980   11.0180 C.ar  129  TYR129      0.0417
    113  CE2       14.5090   23.1440    9.9870 C.ar  129  TYR129      0.0417
    114  CZ        15.2120   22.6280   11.0500 C.ar  129  TYR129      0.1957
    115  OH        15.5500   23.4140   12.1260 O.3   129  TYR129     -0.2866
    116  N         18.8400   19.6900    4.4480 N.3   132  PHE132     -0.1227
    117  CA        19.6950   19.3150    5.6170 C.3   132  PHE132      0.1736
    118  C         19.7370   17.8080    5.6430 C.2   132  PHE132      0.2595
    119  O         20.8530   17.2450    5.7740 O.2   132  PHE132     -0.2718
    120  CB        19.0680   19.8810    6.8570 C.3   132  PHE132      0.0547
    121  CG        19.6840   19.4040    8.1860 C.ar  132  PHE132     -0.0202
    122  CD1       20.8110   20.0010    8.6410 C.ar  132  PHE132     -0.0042
    123  CD2       19.0660   18.4600    8.9000 C.ar  132  PHE132     -0.0042
    124  CE1       21.3130   19.5570    9.9210 C.ar  132  PHE132     -0.0003
    125  CE2       19.5780   17.9960   10.1180 C.ar  132  PHE132     -0.0003
    126  CZ        20.6860   18.6020   10.5870 C.ar  132  PHE132     -0.0000
    127  N         18.6520   17.1210    5.6170 N.am  133  LEU133     -0.1980
    128  CA        18.6120   15.6070    5.7390 C.3   133  LEU133      0.1596
    129  C         19.2910   14.9770    4.5270 C.2   133  LEU133      0.2287
    130  O         20.0480   13.9800    4.7260 O.2   133  LEU133     -0.2864
    131  CB        17.2340   15.0840    5.9750 C.3   133  LEU133      0.0297
    132  CG        16.5860   15.5940    7.2790 C.3   133  LEU133      0.0022
    133  CD1       15.1030   15.2400    7.3140 C.3   133  LEU133      0.0001
    134  CD2       17.3190   14.9720    8.4850 C.3   133  LEU133      0.0001
    135  N         23.0780   15.3330    5.2830 N.3   136  VAL136     -0.1301
    136  CA        23.4750   14.3530    6.3380 C.3   136  VAL136      0.1246
    137  C         23.5440   12.9660    5.6880 C.3   136  VAL136      0.2009
    138  O         24.5710   12.2240    5.9050 O.3   136  VAL136     -0.2188
    139  CB        22.4280   14.3900    7.4280 C.3   136  VAL136      0.0202
    140  CG1       22.4270   13.0880    8.3070 C.3   136  VAL136      0.0016
    141  CG2       22.5780   15.6760    8.2460 C.3   136  VAL136      0.0016
@<TRIPOS>BOND
     1    93    92    2
     2    90    91    1
     3   116   117    1
     4   129   130    2
     5   129   128    1
     6    96    95   ar
     7    96    98   ar
     8    92    91    1
     9    91    94    1
    10   135   136    1
    11    94    95    1
    12   106   107    2
    13   106   105    1
    14   127   118   am
    15   127   128    1
    16   117   118    1
    17   117   120    1
    18   118   119    2
    19   137   138    1
    20   137   136    1
    21   128   131    1
    22   104   105    1
    23    95    97   ar
    24    98    99   ar
    25   131   132    1
    26   136   139    1
    27   105   108    1
    28   120   121    1
    29    97    99   ar
    30    97   100   ar
    31    99   101   ar
    32   132   133    1
    33   132   134    1
    34   139   141    1
    35   139   140    1
    36   108   109    1
    37   121   122   ar
    38   121   123   ar
    39   100   102   ar
    40   101   103   ar
    41   122   124   ar
    42   109   111   ar
    43   109   110   ar
    44   123   125   ar
    45   111   113   ar
    46   103   102   ar
    47    10    11   ar
    48    10     8   ar
    49   124   126   ar
    50   110   112   ar
    51   113   114   ar
    52   125   126   ar
    53    11     9   ar
    54     8     6   ar
    55    88    86   ar
    56    88    89   ar
    57    86    84   ar
    58   112   114   ar
    59   114   115    1
    60     9     7   ar
    61    89    87   ar
    62    81    80    1
    63    81    82    2
    64    80    83    1
    65    80    79    1
    66     6     7   ar
    67     6     5    1
    68    84    83    1
    69    84    85   ar
    70    12    13    1
    71    19    17    1
    72    17    16    1
    73     5     2    1
    74    87    85   ar
    75    78    76    1
    76     1     2    1
    77    40    42   ar
    78    40    39   ar
    79    42    44   ar
    80    16    13    1
    81    16    18    1
    82    13    14    1
    83     2     3    1
    84    15    14    2
    85    38    39    1
    86    38    35    1
    87    36    35    1
    88    36    37    2
    89    68    66   ar
    90    68    70   ar
    91    39    41   ar
    92    77    76    1
    93    76    75    1
    94    66    65   ar
    95    44    45    1
    96    44    43   ar
    97    35    34    1
    98     3     4    2
    99    70    69   ar
   100    60    61    1
   101    41    43   ar
   102    63    62    2
   103    75    72    1
   104    65    64    1
   105    65    67   ar
   106    59    57   ar
   107    64    61    1
   108    74    73    2
   109    72    73    1
   110    72    71    1
   111    33    32   ar
   112    33    31   ar
   113    32    30   ar
   114    61    62    1
   115    31    29   ar
   116    69    67   ar
   117    58    57   ar
   118    30    27   ar
   119    57    56    1
   120    29    27   ar
   121    29    28   ar
   122    27    25   ar
   123    28    26   ar
   124    25    26   ar
   125    25    24    1
   126    24    21    1
   127    50    47    1
   128    56    55    1
   129    22    21    1
   130    22    23    2
   131    21    20    1
   132    46    47    1
   133    47    48    1
   134    55    52    1
   135    49    48    2
   136    52    51    1
   137    52    53    1
   138    53    54    2
