@<TRIPOS>MOLECULE
tmp/4relA00.pdb
 172 168 0 0 0
SMALL
GASTEIGER

@<TRIPOS>ATOM
      1  N         51.3030    6.7140   13.2760 N.3    12  PHE12      -0.1241
      2  CA        51.0840    5.4810   12.5270 C.3    12  PHE12       0.1605
      3  C         49.5650    5.3300   12.5850 C.2    12  PHE12       0.2264
      4  O         48.9940    5.1490   13.6590 O.2    12  PHE12      -0.2867
      5  CB        51.8050    4.3300   13.2310 C.3    12  PHE12       0.0534
      6  CG        51.8150    3.0350   12.4570 C.ar   12  PHE12      -0.0203
      7  CD1       52.3420    2.9630   11.1710 C.ar   12  PHE12      -0.0042
      8  CD2       51.3590    1.8730   13.0500 C.ar   12  PHE12      -0.0042
      9  CE1       52.3690    1.7380   10.4780 C.ar   12  PHE12      -0.0003
     10  CE2       51.3830    0.6540   12.3650 C.ar   12  PHE12      -0.0003
     11  CZ        51.8910    0.5900   11.0860 C.ar   12  PHE12      -0.0000
     12  N         46.8390    3.8000   12.6880 N.3    14  PHE14      -0.1227
     13  CA        46.1480    2.5450   12.9680 C.3    14  PHE14       0.1736
     14  C         45.8690    2.3560   14.4460 C.2    14  PHE14       0.2596
     15  O         46.7950    2.3870   15.2610 O.2    14  PHE14      -0.2718
     16  CB        46.9750    1.3760   12.4420 C.3    14  PHE14       0.0547
     17  CG        47.2190    1.4570   10.9720 C.ar   14  PHE14      -0.0202
     18  CD1       46.2330    1.0540   10.0780 C.ar   14  PHE14      -0.0042
     19  CD2       48.4100    1.9860   10.4770 C.ar   14  PHE14      -0.0042
     20  CE1       46.4350    1.1600    8.7030 C.ar   14  PHE14      -0.0003
     21  CE2       48.6110    2.0990    9.1030 C.ar   14  PHE14      -0.0003
     22  CZ        47.6250    1.6870    8.2240 C.ar   14  PHE14      -0.0000
     23  N         44.5900    2.1550   14.7680 N.am   15  GLY15      -0.1942
     24  CA        44.1360    1.7830   16.1030 C.3    15  GLY15       0.2014
     25  C         44.9500    2.2140   17.3090 C.2    15  GLY15       0.2640
     26  O         44.9070    3.3740   17.7170 O.2    15  GLY15      -0.2714
     27  N         45.7120    1.2750   17.8590 N.am   16  SER16      -0.1935
     28  CA        46.3520    1.4540   19.1600 C.3    16  SER16       0.2055
     29  C         47.4550    2.5050   19.1660 C.2    16  SER16       0.2643
     30  O         47.8730    2.9680   20.2260 O.2    16  SER16      -0.2714
     31  CB        46.9210    0.1190   19.6480 C.3    16  SER16       0.2130
     32  OG        47.9360   -0.3440   18.7700 O.3    16  SER16      -0.2179
     33  N         47.9420    2.8760   17.9880 N.am   17  HIS17      -0.1973
     34  CA        48.9640    3.9180   17.9210 C.3    17  HIS17       0.1656
     35  C         48.3990    5.3300   17.9970 C.2    17  HIS17       0.2291
     36  O         49.1490    6.2790   18.2030 O.2    17  HIS17      -0.2864
     37  CB        49.7860    3.7750   16.6460 C.3    17  HIS17       0.0771
     38  CG        50.6620    2.5640   16.6420 C.ar   17  HIS17       0.0820
     39  ND1       52.0300    2.6440   16.7250 N.ar   17  HIS17      -0.2267
     40  CD2       50.3520    1.2460   16.5940 C.ar   17  HIS17       0.1154
     41  CE1       52.5380    1.4170   16.7040 C.ar   17  HIS17       0.1986
     42  NE2       51.5410    0.5570   16.6380 N.ar   17  HIS17      -0.2212
     43  N         46.0470   -8.3810    9.1730 N.3    78  PRO78      -0.2116
     44  CA        46.3540   -7.1200    9.8530 C.3    78  PRO78       0.1372
     45  C         47.5380   -6.3560    9.2680 C.2    78  PRO78       0.2244
     46  O         47.8410   -5.2780    9.7620 O.2    78  PRO78      -0.2868
     47  CB        46.6930   -7.5790   11.2730 C.3    78  PRO78       0.0268
     48  CG        47.3020   -8.9350   11.0720 C.3    78  PRO78       0.0207
     49  CD        46.5250   -9.5510    9.9350 C.3    78  PRO78       0.0892
     50  N         48.6630   -1.7010    6.6180 N.3    82  LEU82      -0.1245
     51  CA        49.9140   -1.0940    7.0830 C.3    82  LEU82       0.1561
     52  C         50.8810   -0.9310    5.9120 C.2    82  LEU82       0.2260
     53  O         51.4620    0.1380    5.7230 O.2    82  LEU82      -0.2867
     54  CB        50.5920   -1.9210    8.1840 C.3    82  LEU82       0.0270
     55  CG        49.7990   -2.5190    9.3450 C.3    82  LEU82       0.0019
     56  CD1       50.7470   -3.0960   10.3890 C.3    82  LEU82       0.0001
     57  CD2       48.8710   -1.5260    9.9790 C.3    82  LEU82       0.0001
     58  N         57.3240    4.1300   13.5880 N.3   116  PHE116     -0.1241
     59  CA        57.0900    3.2490   12.4380 C.3   116  PHE116      0.1605
     60  C         56.9660    4.0280   11.1270 C.2   116  PHE116      0.2264
     61  O         57.1340    3.4530   10.0480 O.2   116  PHE116     -0.2867
     62  CB        55.8350    2.3860   12.6170 C.3   116  PHE116      0.0534
     63  CG        55.9700    1.2930   13.6460 C.ar  116  PHE116     -0.0203
     64  CD1       57.1880    1.0420   14.2740 C.ar  116  PHE116     -0.0042
     65  CD2       54.8670    0.5180   13.9890 C.ar  116  PHE116     -0.0042
     66  CE1       57.3080    0.0320   15.2280 C.ar  116  PHE116     -0.0003
     67  CE2       54.9800   -0.5030   14.9470 C.ar  116  PHE116     -0.0003
     68  CZ        56.2020   -0.7350   15.5660 C.ar  116  PHE116     -0.0000
     69  N         57.4500    6.3400   20.6390 N.3   135  TRP135     -0.1241
     70  CA        57.4320    4.8810   20.7900 C.3   135  TRP135      0.1605
     71  C         56.3180    4.4270   21.7290 C.2   135  TRP135      0.2264
     72  O         56.4950    4.4190   22.9540 O.2   135  TRP135     -0.2867
     73  CB        58.7770    4.4180   21.3550 C.3   135  TRP135      0.0550
     74  CG        58.9530    2.9290   21.3370 C.ar  135  TRP135      0.0003
     75  CD1       58.7930    2.0710   22.3840 C.ar  135  TRP135      0.0946
     76  CD2       59.3220    2.1280   20.2070 C.ar  135  TRP135      0.0152
     77  NE1       59.0390    0.7780   21.9740 N.ar  135  TRP135     -0.2442
     78  CE2       59.3740    0.7940   20.6450 C.ar  135  TRP135      0.0810
     79  CE3       59.6240    2.4190   18.8740 C.ar  135  TRP135      0.0012
     80  CZ2       59.7130   -0.2600   19.7870 C.ar  135  TRP135      0.0191
     81  CZ3       59.9530    1.3790   18.0240 C.ar  135  TRP135      0.0001
     82  CH2       59.9940    0.0500   18.4860 C.ar  135  TRP135      0.0015
     83  N         55.0200    1.4170   21.8350 N.3   137  ASN137     -0.1240
     84  CA        55.0270   -0.0370   21.9360 C.3   137  ASN137      0.1653
     85  C         55.6540   -0.4700   23.2390 C.2   137  ASN137      0.2266
     86  O         55.8710    0.3550   24.1270 O.2   137  ASN137     -0.2867
     87  CB        55.7810   -0.5960   20.7400 C.3   137  ASN137      0.1155
     88  CG        55.5000    0.2120   19.4960 C.2   137  ASN137      0.2627
     89  OD1       56.3860    0.8790   18.9410 O.2   137  ASN137     -0.2716
     90  ND2       54.2340    0.2220   19.0950 N.am  137  ASN137     -0.0877
     91  N         61.2150   -3.5020   23.7830 N.3   141  SER141     -0.1217
     92  CA        61.4450   -4.0320   22.4440 C.3   141  SER141      0.1889
     93  C         62.3620   -3.1290   21.6210 C.2   141  SER141      0.2288
     94  O         62.8750   -3.5500   20.5990 O.2   141  SER141     -0.2866
     95  CB        60.1240   -4.3080   21.7160 C.3   141  SER141      0.2089
     96  OG        59.4920   -3.1020   21.3630 O.3   141  SER141     -0.2183
     97  N         65.9020   -3.9420   17.8500 N.3   145  TYR145     -0.1241
     98  CA        66.1860   -3.3850   16.5320 C.3   145  TYR145      0.1605
     99  C         67.6440   -2.9820   16.3320 C.2   145  TYR145      0.2264
    100  O         68.0750   -2.7240   15.2100 O.2   145  TYR145     -0.2867
    101  CB        65.1900   -2.2520   16.2290 C.3   145  TYR145      0.0534
    102  CG        63.7910   -2.8190   16.2490 C.ar  145  TYR145     -0.0201
    103  CD1       63.3460   -3.6140   15.2070 C.ar  145  TYR145     -0.0009
    104  CD2       62.9590   -2.6430   17.3480 C.ar  145  TYR145     -0.0009
    105  CE1       62.0910   -4.1890   15.2270 C.ar  145  TYR145      0.0417
    106  CE2       61.6910   -3.2100   17.3760 C.ar  145  TYR145      0.0417
    107  CZ        61.2670   -3.9780   16.3090 C.ar  145  TYR145      0.1957
    108  OH        60.0180   -4.5560   16.3170 O.3   145  TYR145     -0.2866
    109  N         59.6550  -11.1350   18.1730 N.3   179  PRO179     -0.2116
    110  CA        58.6300  -10.9400   17.1370 C.3   179  PRO179      0.1372
    111  C         58.9760  -11.7090   15.8620 C.2   179  PRO179      0.2244
    112  O         60.0960  -11.5810   15.3570 O.2   179  PRO179     -0.2868
    113  CB        58.6860   -9.4310   16.8720 C.3   179  PRO179      0.0268
    114  CG        59.1310   -8.8450   18.1770 C.3   179  PRO179      0.0207
    115  CD        60.1450   -9.8480   18.7090 C.3   179  PRO179      0.0892
    116  N         58.0570  -11.1760   12.9300 N.3   181  ASP181     -0.1239
    117  CA        58.3100  -10.2220   11.8460 C.3   181  ASP181      0.1674
    118  C         59.7990   -9.9490   11.6180 C.2   181  ASP181      0.2266
    119  O         60.2300   -9.7560   10.4780 O.2   181  ASP181     -0.2867
    120  CB        57.5970   -8.8800   12.1010 C.3   181  ASP181      0.1410
    121  CG        56.0880   -8.9570   11.9220 C.2   181  ASP181      0.3668
    122  OD1       55.6110   -9.7380   11.0780 O.co2 181  ASP181     -0.2456
    123  OD2       55.3760   -8.2160   12.6290 O.co2 181  ASP181     -0.2456
    124  N         56.0930   -3.6440    5.8700 N.3   192  PHE192     -0.1241
    125  CA        56.0050   -3.3390    7.2960 C.3   192  PHE192      0.1605
    126  C         57.1780   -3.9470    8.0620 C.2   192  PHE192      0.2264
    127  O         57.8120   -3.2720    8.8700 O.2   192  PHE192     -0.2867
    128  CB        54.6690   -3.8270    7.8600 C.3   192  PHE192      0.0534
    129  CG        54.5240   -3.6420    9.3430 C.ar  192  PHE192     -0.0203
    130  CD1       54.4570   -2.3740    9.8970 C.ar  192  PHE192     -0.0042
    131  CD2       54.4230   -4.7410   10.1800 C.ar  192  PHE192     -0.0042
    132  CE1       54.3090   -2.2010   11.2650 C.ar  192  PHE192     -0.0003
    133  CE2       54.2770   -4.5750   11.5500 C.ar  192  PHE192     -0.0003
    134  CZ        54.2170   -3.3030   12.0900 C.ar  192  PHE192     -0.0000
    135  N         60.1860   -1.9090   10.1390 N.3   196  LEU196     -0.1245
    136  CA        60.5820   -2.1500   11.5240 C.3   196  LEU196      0.1561
    137  C         62.0590   -2.5260   11.6080 C.2   196  LEU196      0.2260
    138  O         62.7870   -2.0260   12.4660 O.2   196  LEU196     -0.2867
    139  CB        59.6910   -3.2090   12.1910 C.3   196  LEU196      0.0270
    140  CG        58.5020   -2.6210   12.9690 C.3   196  LEU196      0.0019
    141  CD1       57.6580   -1.6780   12.1120 C.3   196  LEU196      0.0001
    142  CD2       57.6280   -3.7160   13.5430 C.3   196  LEU196      0.0001
    143  N         42.9890   -6.9560   17.1180 N.3   274  VAL274     -0.1245
    144  CA        43.8640   -6.8300   15.9480 C.3   274  VAL274      0.1561
    145  C         44.1100   -8.1630   15.2420 C.2   274  VAL274      0.2260
    146  O         44.0740   -8.2390   14.0120 O.2   274  VAL274     -0.2867
    147  CB        45.1940   -6.1170   16.2870 C.3   274  VAL274      0.0252
    148  CG1       46.2510   -6.3900   15.2200 C.3   274  VAL274      0.0019
    149  CG2       44.9640   -4.6130   16.4520 C.3   274  VAL274      0.0019
    150  N         50.8890  -11.6310   18.9140 N.3   365  PHE365     -0.1227
    151  CA        51.3060  -10.8660   17.7500 C.3   365  PHE365      0.1736
    152  C         52.3570   -9.8150   18.1220 C.2   365  PHE365      0.2596
    153  O         52.3590   -9.3160   19.2390 O.2   365  PHE365     -0.2718
    154  CB        50.0460  -10.1950   17.1830 C.3   365  PHE365      0.0547
    155  CG        50.2970   -9.2840   16.0340 C.ar  365  PHE365     -0.0202
    156  CD1       50.3070   -9.7730   14.7350 C.ar  365  PHE365     -0.0042
    157  CD2       50.4930   -7.9320   16.2410 C.ar  365  PHE365     -0.0042
    158  CE1       50.5300   -8.9280   13.6620 C.ar  365  PHE365     -0.0003
    159  CE2       50.7250   -7.0840   15.1780 C.ar  365  PHE365     -0.0003
    160  CZ        50.7410   -7.5790   13.8850 C.ar  365  PHE365     -0.0000
    161  N         53.2430   -9.4760   17.1880 N.am  366  GLY366     -0.1942
    162  CA        54.1510   -8.3530   17.3800 C.3   366  GLY366      0.2014
    163  C         55.0730   -8.4750   18.5770 C.2   366  GLY366      0.2638
    164  O         55.7170   -9.5130   18.7640 O.2   366  GLY366     -0.2714
    165  N         55.1420   -7.4210   19.3910 N.am  367  ASP367     -0.1971
    166  CA        55.9890   -7.4440   20.5830 C.3   367  ASP367      0.1709
    167  C         55.2510   -7.8530   21.8560 C.2   367  ASP367      0.2293
    168  O         55.7430   -7.6280   22.9610 O.2   367  ASP367     -0.2864
    169  CB        56.7310   -6.1040   20.7890 C.3   367  ASP367      0.1436
    170  CG        55.7920   -4.9260   21.0600 C.2   367  ASP367      0.3671
    171  OD1       54.5590   -5.1070   21.1160 O.co2 367  ASP367     -0.2456
    172  OD2       56.3050   -3.8020   21.2490 O.co2 367  ASP367     -0.2456
@<TRIPOS>BOND
     1    53    52    2
     2   124   125    1
     3    52    51    1
     4    50    51    1
     5    51    54    1
     6   125   128    1
     7   125   126    1
     8   128   129    1
     9   126   127    2
    10    54    55    1
    11    22    20   ar
    12    22    21   ar
    13    20    18   ar
    14    21    19   ar
    15    43    44    1
    16    43    49    1
    17    45    46    2
    18    45    44    1
    19   129   130   ar
    20   129   131   ar
    21    55    57    1
    22    55    56    1
    23    44    47    1
    24   130   132   ar
    25    49    48    1
    26    61    60    2
    27    18    17   ar
    28   135   136    1
    29   131   133   ar
    30    19    17   ar
    31   119   118    2
    32     9    11   ar
    33     9     7   ar
    34    17    16    1
    35    48    47    1
    36   122   121   ar
    37    11    10   ar
    38    60    59    1
    39     7     6   ar
    40   132   134   ar
    41   136   137    1
    42   136   139    1
    43   133   134   ar
    44   137   138    2
    45   118   117    1
    46   117   120    1
    47   117   116    1
    48   121   120    1
    49   121   123   ar
    50   141   140    1
    51   139   140    1
    52    10     8   ar
    53    59    62    1
    54    59    58    1
    55    16    13    1
    56     6     8   ar
    57     6     5    1
    58     2     3    1
    59     2     5    1
    60     2     1    1
    61     3     4    2
    62    62    63    1
    63    12    13    1
    64    13    14    1
    65   140   142    1
    66    63    65   ar
    67    63    64   ar
    68   158   160   ar
    69   158   156   ar
    70   160   159   ar
    71    65    67   ar
    72   146   145    2
    73    64    66   ar
    74    14    23   am
    75    14    15    2
    76   156   155   ar
    77    23    24    1
    78    67    68   ar
    79   159   157   ar
    80   103   105   ar
    81   103   102   ar
    82   100    99    2
    83   148   147    1
    84   105   107   ar
    85    66    68   ar
    86   145   144    1
    87   112   111    2
    88   111   110    1
    89   144   147    1
    90   144   143    1
    91   155   157   ar
    92   155   154    1
    93    24    25    1
    94   101   102    1
    95   101    98    1
    96   102   104   ar
    97   147   149    1
    98   107   108    1
    99   107   106   ar
   100    99    98    1
   101    98    97    1
   102    40    42   ar
   103    40    38   ar
   104    42    41   ar
   105    38    37    1
   106    38    39   ar
   107    37    34    1
   108    41    39   ar
   109   113   110    1
   110   113   114    1
   111   110   109    1
   112   154   151    1
   113   161   162    1
   114   161   152   am
   115    25    26    2
   116    25    27   am
   117   104   106   ar
   118   162   163    1
   119   151   152    1
   120   151   150    1
   121    27    28    1
   122    34    33    1
   123    34    35    1
   124    33    29   am
   125    35    36    2
   126    81    82   ar
   127    81    79   ar
   128   152   153    2
   129   109   115    1
   130   114   115    1
   131    82    80   ar
   132   163   164    2
   133   163   165   am
   134    32    31    1
   135    79    76   ar
   136    89    88    2
   137    90    88   am
   138    28    29    1
   139    28    31    1
   140    29    30    2
   141   165   166    1
   142    88    87    1
   143    80    78   ar
   144    76    78   ar
   145    76    74   ar
   146   166   169    1
   147   166   167    1
   148    94    93    2
   149    69    70    1
   150    78    77   ar
   151    87    84    1
   152   169   170    1
   153    70    73    1
   154    70    71    1
   155   170   171   ar
   156   170   172   ar
   157    74    73    1
   158    74    75   ar
   159    96    95    1
   160    93    92    1
   161    95    92    1
   162    71    72    2
   163    83    84    1
   164   167   168    2
   165    84    85    1
   166    77    75   ar
   167    92    91    1
   168    85    86    2
