@<TRIPOS>MOLECULE
tmp/4remA00.pdb
 180 176 0 0 0
SMALL
GASTEIGER

@<TRIPOS>ATOM
      1  N          1.2340    7.2110   13.3330 N.3    12  PHE12      -0.1241
      2  CA         0.9830    5.9690   12.6260 C.3    12  PHE12       0.1605
      3  C         -0.5330    5.8350   12.6580 C.2    12  PHE12       0.2264
      4  O         -1.1100    5.5250   13.6990 O.2    12  PHE12      -0.2867
      5  CB         1.6600    4.8000   13.3390 C.3    12  PHE12       0.0534
      6  CG         1.7650    3.5530   12.5040 C.ar   12  PHE12      -0.0203
      7  CD1        2.2720    3.6030   11.2130 C.ar   12  PHE12      -0.0042
      8  CD2        1.3750    2.3270   13.0190 C.ar   12  PHE12      -0.0042
      9  CE1        2.3730    2.4550   10.4470 C.ar   12  PHE12      -0.0003
     10  CE2        1.4750    1.1760   12.2610 C.ar   12  PHE12      -0.0003
     11  CZ         1.9750    1.2400   10.9730 C.ar   12  PHE12      -0.0000
     12  N         -3.2490    4.4010   12.7980 N.3    14  PHE14      -0.1227
     13  CA        -3.9890    3.1790   13.0860 C.3    14  PHE14       0.1736
     14  C         -4.2400    2.9700   14.5780 C.2    14  PHE14       0.2596
     15  O         -3.3130    3.0460   15.3860 O.2    14  PHE14      -0.2718
     16  CB        -3.2510    1.9590   12.5240 C.3    14  PHE14       0.0547
     17  CG        -2.9290    2.0590   11.0580 C.ar   14  PHE14      -0.0202
     18  CD1       -3.8690    1.7100   10.1010 C.ar   14  PHE14      -0.0042
     19  CD2       -1.6820    2.4980   10.6390 C.ar   14  PHE14      -0.0042
     20  CE1       -3.5710    1.8000    8.7520 C.ar   14  PHE14      -0.0003
     21  CE2       -1.3790    2.5900    9.2940 C.ar   14  PHE14      -0.0003
     22  CZ        -2.3240    2.2410    8.3490 C.ar   14  PHE14      -0.0000
     23  N         -5.5010    2.7070   14.9200 N.am   15  GLY15      -0.1942
     24  CA        -5.9180    2.2940   16.2540 C.3    15  GLY15       0.2014
     25  C         -5.1570    2.8010   17.4650 C.2    15  GLY15       0.2640
     26  O         -5.2170    3.9830   17.7920 O.2    15  GLY15      -0.2714
     27  N         -4.4330    1.8970   18.1200 N.am   16  SER16      -0.1935
     28  CA        -3.7980    2.1810   19.4040 C.3    16  SER16       0.2055
     29  C         -2.6090    3.1410   19.3350 C.2    16  SER16       0.2643
     30  O         -2.0860    3.5540   20.3660 O.2    16  SER16      -0.2714
     31  CB        -3.3710    0.8740   20.0810 C.3    16  SER16       0.2130
     32  OG        -2.4470    0.1580   19.2780 O.3    16  SER16      -0.2179
     33  N         -2.1780    3.4870   18.1270 N.am   17  HIS17      -0.1973
     34  CA        -1.0790    4.4310   17.9580 C.3    17  HIS17       0.1656
     35  C         -1.5740    5.8770   17.9970 C.2    17  HIS17       0.2291
     36  O         -0.7980    6.8010   18.2340 O.2    17  HIS17      -0.2864
     37  CB        -0.3530    4.1790   16.6330 C.3    17  HIS17       0.0771
     38  CG         0.5700    3.0010   16.6550 C.ar   17  HIS17       0.0820
     39  ND1        1.9390    3.1330   16.7610 N.ar   17  HIS17      -0.2267
     40  CD2        0.3260    1.6720   16.5680 C.ar   17  HIS17       0.1154
     41  CE1        2.4960    1.9340   16.7450 C.ar   17  HIS17       0.1986
     42  NE2        1.5390    1.0320   16.6300 N.ar   17  HIS17      -0.2212
     43  N         -4.1830   -7.6260    9.1850 N.3    78  PRO78      -0.2102
     44  CA        -3.8820   -6.3310    9.8100 C.3    78  PRO78       0.1504
     45  C         -2.6110   -5.6500    9.2980 C.2    78  PRO78       0.2575
     46  O         -2.2650   -4.5800    9.7980 O.2    78  PRO78      -0.2718
     47  CB        -3.7150   -6.6950   11.2900 C.3    78  PRO78       0.0282
     48  CG        -3.3170   -8.1330   11.2830 C.3    78  PRO78       0.0208
     49  CD        -4.0940   -8.7340   10.1520 C.3    78  PRO78       0.0893
     50  N         -1.9380   -6.2510    8.3230 N.am   79  ILE79      -0.1980
     51  CA        -0.6860   -5.7070    7.8060 C.3    79  ILE79       0.1595
     52  C         -0.8810   -4.8850    6.5260 C.2    79  ILE79       0.2287
     53  O         -0.1780   -3.9020    6.3000 O.2    79  ILE79      -0.2864
     54  CB         0.3400   -6.8330    7.5560 C.3    79  ILE79       0.0276
     55  CG1        0.5530   -7.6560    8.8270 C.3    79  ILE79       0.0022
     56  CG2        1.6630   -6.2690    7.0650 C.3    79  ILE79       0.0022
     57  CD1        1.0940   -6.8510    9.9940 C.3    79  ILE79       0.0001
     58  N         -1.4050   -1.1250    6.7060 N.3    82  LEU82      -0.1245
     59  CA        -0.1690   -0.5210    7.1860 C.3    82  LEU82       0.1561
     60  C          0.8160   -0.3680    6.0280 C.2    82  LEU82       0.2260
     61  O          1.4300    0.6880    5.8550 O.2    82  LEU82      -0.2867
     62  CB         0.4570   -1.3710    8.2950 C.3    82  LEU82       0.0270
     63  CG        -0.4470   -1.9650    9.3750 C.3    82  LEU82       0.0019
     64  CD1        0.3790   -2.7560   10.3740 C.3    82  LEU82       0.0001
     65  CD2       -1.2500   -0.9020   10.0910 C.3    82  LEU82       0.0001
     66  N          7.3540    4.6350   13.4830 N.3   116  PHE116     -0.1241
     67  CA         7.0620    3.7690   12.3430 C.3   116  PHE116      0.1605
     68  C          6.9880    4.5460   11.0280 C.2   116  PHE116      0.2264
     69  O          7.2520    3.9970    9.9600 O.2   116  PHE116     -0.2867
     70  CB         5.7610    2.9880   12.5690 C.3   116  PHE116      0.0534
     71  CG         5.8610    1.9140   13.6220 C.ar  116  PHE116     -0.0203
     72  CD1        7.0700    1.6270   14.2410 C.ar  116  PHE116     -0.0042
     73  CD2        4.7390    1.1830   13.9840 C.ar  116  PHE116     -0.0042
     74  CE1        7.1550    0.6380   15.2100 C.ar  116  PHE116     -0.0003
     75  CE2        4.8180    0.1900   14.9460 C.ar  116  PHE116     -0.0003
     76  CZ         6.0250   -0.0820   15.5610 C.ar  116  PHE116     -0.0000
     77  N          7.4340    6.8800   20.6170 N.3   135  TRP135     -0.1241
     78  CA         7.4230    5.4320   20.8100 C.3   135  TRP135      0.1605
     79  C          6.3500    4.9730   21.7990 C.2   135  TRP135      0.2264
     80  O          6.5800    4.9520   23.0110 O.2   135  TRP135     -0.2867
     81  CB         8.8000    4.9620   21.2730 C.3   135  TRP135      0.0550
     82  CG         8.9710    3.4830   21.2480 C.ar  135  TRP135      0.0003
     83  CD1        8.8510    2.6260   22.3020 C.ar  135  TRP135      0.0946
     84  CD2        9.2940    2.6780   20.1130 C.ar  135  TRP135      0.0152
     85  NE1        9.0800    1.3380   21.8930 N.ar  135  TRP135     -0.2442
     86  CE2        9.3600    1.3430   20.5440 C.ar  135  TRP135      0.0810
     87  CE3        9.5420    2.9560   18.7630 C.ar  135  TRP135      0.0012
     88  CZ2        9.6590    0.2860   19.6840 C.ar  135  TRP135      0.0191
     89  CZ3        9.8380    1.9100   17.9090 C.ar  135  TRP135      0.0001
     90  CH2        9.8920    0.5930   18.3700 C.ar  135  TRP135      0.0015
     91  N          5.0670    1.9430   21.7900 N.3   137  ASN137     -0.1240
     92  CA         5.1320    0.4910   21.8830 C.3   137  ASN137      0.1653
     93  C          5.7740    0.0520   23.1950 C.2   137  ASN137      0.2266
     94  O          6.0090    0.8800   24.0760 O.2   137  ASN137     -0.2867
     95  CB         5.9070   -0.0750   20.6960 C.3   137  ASN137      0.1155
     96  CG         5.4720    0.5330   19.3750 C.2   137  ASN137      0.2627
     97  OD1        6.2630    1.1730   18.6810 O.2   137  ASN137     -0.2716
     98  ND2        4.2070    0.3390   19.0230 N.am  137  ASN137     -0.0877
     99  N         11.5300   -3.0000   23.9660 N.3   141  SER141     -0.1217
    100  CA        11.7230   -3.5570   22.6330 C.3   141  SER141      0.1889
    101  C         12.5640   -2.6460   21.7410 C.2   141  SER141      0.2288
    102  O         12.9260   -3.0270   20.6280 O.2   141  SER141     -0.2866
    103  CB        10.3740   -3.8520   21.9740 C.3   141  SER141      0.2089
    104  OG         9.6060   -2.6740   21.8320 O.3   141  SER141     -0.2183
    105  N         16.0980   -3.5710   18.0490 N.3   145  TYR145     -0.1241
    106  CA        16.3430   -3.0620   16.7030 C.3   145  TYR145      0.1605
    107  C         17.7890   -2.6320   16.4500 C.2   145  TYR145      0.2264
    108  O         18.1540   -2.2820   15.3280 O.2   145  TYR145     -0.2867
    109  CB        15.3560   -1.9330   16.3880 C.3   145  TYR145      0.0534
    110  CG        13.9170   -2.3860   16.4680 C.ar  145  TYR145     -0.0201
    111  CD1       13.3500   -3.1220   15.4420 C.ar  145  TYR145     -0.0009
    112  CD2       13.1350   -2.0990   17.5780 C.ar  145  TYR145     -0.0009
    113  CE1       12.0470   -3.5510   15.5090 C.ar  145  TYR145      0.0417
    114  CE2       11.8250   -2.5280   17.6540 C.ar  145  TYR145      0.0417
    115  CZ        11.2870   -3.2540   16.6150 C.ar  145  TYR145      0.1957
    116  OH         9.9820   -3.6880   16.6700 O.3   145  TYR145     -0.2866
    117  N          9.9780  -10.7660   18.2700 N.3   179  PRO179     -0.2116
    118  CA         8.9470  -10.5350   17.2470 C.3   179  PRO179      0.1372
    119  C          9.2570  -11.2720   15.9400 C.2   179  PRO179      0.2244
    120  O         10.3760  -11.1710   15.4360 O.2   179  PRO179     -0.2868
    121  CB         9.0200   -9.0220   17.0190 C.3   179  PRO179      0.0268
    122  CG         9.5470   -8.4700   18.2980 C.3   179  PRO179      0.0207
    123  CD        10.5050   -9.5020   18.8210 C.3   179  PRO179      0.0892
    124  N          8.2620  -10.9350   12.7300 N.3   181  ASP181     -0.1239
    125  CA         8.5590  -10.1620   11.5230 C.3   181  ASP181      0.1674
    126  C          9.9790   -9.5880   11.5180 C.2   181  ASP181      0.2266
    127  O         10.4590   -9.1060   10.4930 O.2   181  ASP181     -0.2867
    128  CB         7.5110   -9.0650   11.2890 C.3   181  ASP181      0.1410
    129  CG         7.2400   -8.2320   12.5270 C.2   181  ASP181      0.3668
    130  OD1        6.0640   -7.8780   12.7490 O.co2 181  ASP181     -0.2456
    131  OD2        8.1940   -7.9170   13.2690 O.co2 181  ASP181     -0.2456
    132  N          6.0600   -3.2110    6.0960 N.3   192  PHE192     -0.1241
    133  CA         5.9520   -2.8920    7.5140 C.3   192  PHE192      0.1605
    134  C          7.1460   -3.4290    8.3000 C.2   192  PHE192      0.2264
    135  O          7.7230   -2.7220    9.1250 O.2   192  PHE192     -0.2867
    136  CB         4.6490   -3.4600    8.0790 C.3   192  PHE192      0.0534
    137  CG         4.4400   -3.1650    9.5350 C.ar  192  PHE192     -0.0203
    138  CD1        4.3640   -1.8550    9.9850 C.ar  192  PHE192     -0.0042
    139  CD2        4.3060   -4.1960   10.4520 C.ar  192  PHE192     -0.0042
    140  CE1        4.1690   -1.5780   11.3260 C.ar  192  PHE192     -0.0003
    141  CE2        4.1110   -3.9270   11.7940 C.ar  192  PHE192     -0.0003
    142  CZ         4.0420   -2.6150   12.2310 C.ar  192  PHE192     -0.0000
    143  N         10.2520   -1.4870   10.2800 N.3   196  LEU196     -0.1245
    144  CA        10.6040   -1.7340   11.6730 C.3   196  LEU196      0.1561
    145  C         12.0680   -2.1470   11.8080 C.2   196  LEU196      0.2260
    146  O         12.7400   -1.7760   12.7680 O.2   196  LEU196     -0.2867
    147  CB         9.6900   -2.8040   12.2790 C.3   196  LEU196      0.0270
    148  CG         8.4700   -2.3120   13.0640 C.3   196  LEU196      0.0019
    149  CD1        7.6510   -1.3260   12.2550 C.3   196  LEU196      0.0001
    150  CD2        7.6060   -3.4840   13.4940 C.3   196  LEU196      0.0001
    151  N         -7.1150   -5.7770   17.4680 N.3   274  VAL274     -0.1245
    152  CA        -6.3650   -6.2140   16.2940 C.3   274  VAL274      0.1561
    153  C         -6.2770   -7.7350   16.2820 C.2   274  VAL274      0.2260
    154  O         -6.2670   -8.3690   15.2250 O.2   274  VAL274     -0.2867
    155  CB        -4.9350   -5.6260   16.2990 C.3   274  VAL274      0.0252
    156  CG1       -4.1410   -6.1000   15.0880 C.3   274  VAL274      0.0019
    157  CG2       -4.9820   -4.1090   16.3400 C.3   274  VAL274      0.0019
    158  N          1.4330  -11.4320   18.8550 N.3   365  PHE365     -0.1227
    159  CA         2.3710  -10.9800   17.8330 C.3   365  PHE365      0.1736
    160  C          3.1620   -9.7560   18.2790 C.2   365  PHE365      0.2596
    161  O          3.0070   -9.2760   19.4020 O.2   365  PHE365     -0.2718
    162  CB         1.6290  -10.6580   16.5340 C.3   365  PHE365      0.0547
    163  CG         0.7030   -9.4780   16.6420 C.ar  365  PHE365     -0.0202
    164  CD1        1.1040   -8.2210   16.2140 C.ar  365  PHE365     -0.0042
    165  CD2       -0.5670   -9.6260   17.1730 C.ar  365  PHE365     -0.0042
    166  CE1        0.2540   -7.1330   16.3130 C.ar  365  PHE365     -0.0003
    167  CE2       -1.4240   -8.5440   17.2750 C.ar  365  PHE365     -0.0003
    168  CZ        -1.0120   -7.2960   16.8450 C.ar  365  PHE365     -0.0000
    169  N          4.0060   -9.2580   17.3810 N.am  366  GLY366     -0.1942
    170  CA         4.7670   -8.0470   17.6180 C.3   366  GLY366      0.2014
    171  C          5.6470   -8.0770   18.8490 C.2   366  GLY366      0.2638
    172  O          6.4260   -9.0100   19.0440 O.2   366  GLY366     -0.2714
    173  N          5.5110   -7.0510   19.6830 N.am  367  ASP367     -0.1971
    174  CA         6.3190   -6.9310   20.8880 C.3   367  ASP367      0.1709
    175  C          5.5300   -7.3150   22.1380 C.2   367  ASP367      0.2293
    176  O          5.8790   -6.9150   23.2480 O.2   367  ASP367     -0.2864
    177  CB         6.8710   -5.5090   21.0140 C.3   367  ASP367      0.1436
    178  CG         5.7790   -4.4590   21.0500 C.2   367  ASP367      0.3671
    179  OD1        4.6160   -4.7870   20.7510 O.co2 367  ASP367     -0.2456
    180  OD2        6.0900   -3.2950   21.3670 O.co2 367  ASP367     -0.2456
@<TRIPOS>BOND
     1    61    60    2
     2    60    59    1
     3   132   133    1
     4    53    52    2
     5    52    51    1
     6    58    59    1
     7    56    54    1
     8    59    62    1
     9   133   136    1
    10   133   134    1
    11    54    51    1
    12    54    55    1
    13    51    50    1
    14   136   137    1
    15    62    63    1
    16   134   135    2
    17    50    45   am
    18    22    20   ar
    19    22    21   ar
    20    20    18   ar
    21    55    57    1
    22    43    44    1
    23    43    49    1
    24    21    19   ar
    25    45    46    2
    26    45    44    1
    27    63    65    1
    28    63    64    1
    29   137   138   ar
    30   137   139   ar
    31    44    47    1
    32    69    68    2
    33   138   140   ar
    34    18    17   ar
    35    49    48    1
    36   143   144    1
    37     9    11   ar
    38     9     7   ar
    39   139   141   ar
    40   127   126    2
    41    19    17   ar
    42    11    10   ar
    43    68    67    1
    44    17    16    1
    45     7     6   ar
    46    48    47    1
    47   128   125    1
    48   128   129    1
    49   140   142   ar
    50   126   125    1
    51   125   124    1
    52   144   145    1
    53   144   147    1
    54   141   142   ar
    55   145   146    2
    56   149   148    1
    57    10     8   ar
    58   147   148    1
    59    67    70    1
    60    67    66    1
    61     6     8   ar
    62     6     5    1
    63    16    13    1
    64   129   130   ar
    65   129   131   ar
    66    70    71    1
    67     2     3    1
    68     2     1    1
    69     2     5    1
    70     3     4    2
    71    12    13    1
    72   148   150    1
    73    13    14    1
    74    71    73   ar
    75    71    72   ar
    76    73    75   ar
    77    72    74   ar
    78    14    23   am
    79    14    15    2
    80    23    24    1
    81    75    76   ar
    82   156   155    1
    83    74    76   ar
    84   154   153    2
    85   108   107    2
    86   120   119    2
    87   111   113   ar
    88   111   110   ar
    89   113   115   ar
    90   119   118    1
    91   164   166   ar
    92   164   163   ar
    93    24    25    1
    94   153   152    1
    95   152   155    1
    96   152   151    1
    97   155   157    1
    98   166   168   ar
    99   109   110    1
   100   109   106    1
   101   107   106    1
   102   110   112   ar
   103   162   163    1
   104   162   159    1
   105    40    42   ar
   106    40    38   ar
   107   115   116    1
   108   115   114   ar
   109    42    41   ar
   110    37    38    1
   111    37    34    1
   112   163   165   ar
   113    38    39   ar
   114   106   105    1
   115    41    39   ar
   116   168   167   ar
   117   121   118    1
   118   121   122    1
   119   165   167   ar
   120   118   117    1
   121   169   170    1
   122   169   160   am
   123    25    26    2
   124    25    27   am
   125   112   114   ar
   126   170   171    1
   127   159   160    1
   128   159   158    1
   129    89    90   ar
   130    89    87   ar
   131    34    35    1
   132    34    33    1
   133    35    36    2
   134    27    28    1
   135    33    29   am
   136   117   123    1
   137   160   161    2
   138   122   123    1
   139    90    88   ar
   140    97    96    2
   141    87    84   ar
   142   171   172    2
   143   171   173   am
   144    98    96   am
   145    32    31    1
   146    29    28    1
   147    29    30    2
   148    96    95    1
   149    28    31    1
   150   173   174    1
   151    88    86   ar
   152    84    86   ar
   153    84    82   ar
   154    86    85   ar
   155    77    78    1
   156   102   101    2
   157    95    92    1
   158   179   178   ar
   159    78    81    1
   160    78    79    1
   161   174   177    1
   162   174   175    1
   163   177   178    1
   164   178   180   ar
   165    82    81    1
   166    82    83   ar
   167   101   100    1
   168    91    92    1
   169    79    80    2
   170   104   103    1
   171    92    93    1
   172    85    83   ar
   173   103   100    1
   174   175   176    2
   175   100    99    1
   176    93    94    2
