@<TRIPOS>MOLECULE
tmp/4renA00.pdb
 180 176 0 0 0
SMALL
GASTEIGER

@<TRIPOS>ATOM
      1  N          1.2180    7.4210   13.3570 N.3    12  PHE12      -0.1241
      2  CA         0.9560    6.1850   12.6440 C.3    12  PHE12       0.1605
      3  C         -0.5600    6.0790   12.6700 C.2    12  PHE12       0.2264
      4  O         -1.1490    5.8380   13.7230 O.2    12  PHE12      -0.2867
      5  CB         1.6070    5.0050   13.3610 C.3    12  PHE12       0.0534
      6  CG         1.7700    3.7830   12.5010 C.ar   12  PHE12      -0.0203
      7  CD1        2.3570    3.8730   11.2470 C.ar   12  PHE12      -0.0042
      8  CD2        1.3570    2.5420   12.9560 C.ar   12  PHE12      -0.0042
      9  CE1        2.5120    2.7490   10.4590 C.ar   12  PHE12      -0.0003
     10  CE2        1.5100    1.4170   12.1750 C.ar   12  PHE12      -0.0003
     11  CZ         2.0890    1.5190   10.9250 C.ar   12  PHE12      -0.0000
     12  N         -3.2510    4.6260   12.7800 N.3    14  PHE14      -0.1227
     13  CA        -4.0170    3.4150   13.0620 C.3    14  PHE14       0.1736
     14  C         -4.2870    3.1780   14.5460 C.2    14  PHE14       0.2596
     15  O         -3.3570    3.1230   15.3540 O.2    14  PHE14      -0.2718
     16  CB        -3.3180    2.1900   12.4640 C.3    14  PHE14       0.0547
     17  CG        -3.0560    2.2990   10.9900 C.ar   14  PHE14      -0.0202
     18  CD1       -4.0630    2.0460   10.0740 C.ar   14  PHE14      -0.0042
     19  CD2       -1.7990    2.6490   10.5220 C.ar   14  PHE14      -0.0042
     20  CE1       -3.8220    2.1440    8.7160 C.ar   14  PHE14      -0.0003
     21  CE2       -1.5490    2.7440    9.1670 C.ar   14  PHE14      -0.0003
     22  CZ        -2.5620    2.4940    8.2620 C.ar   14  PHE14      -0.0000
     23  N         -5.5690    3.0380   14.8810 N.am   15  GLY15      -0.1942
     24  CA        -6.0280    2.6150   16.1970 C.3    15  GLY15       0.2014
     25  C         -5.2470    3.0500   17.4220 C.2    15  GLY15       0.2640
     26  O         -5.3140    4.2060   17.8310 O.2    15  GLY15      -0.2714
     27  N         -4.4950    2.1180   18.0000 N.am   16  SER16      -0.1935
     28  CA        -3.8120    2.3530   19.2690 C.3    16  SER16       0.2055
     29  C         -2.6440    3.3370   19.1840 C.2    16  SER16       0.2643
     30  O         -2.1200    3.7630   20.2100 O.2    16  SER16      -0.2714
     31  CB        -3.3270    1.0290   19.8630 C.3    16  SER16       0.2130
     32  OG        -2.3360    0.4350   19.0430 O.3    16  SER16      -0.2179
     33  N         -2.2290    3.6910   17.9740 N.am   17  HIS17      -0.1973
     34  CA        -1.1300    4.6390   17.8130 C.3    17  HIS17       0.1656
     35  C         -1.6190    6.0870   17.8080 C.2    17  HIS17       0.2291
     36  O         -0.8150    7.0160   17.8000 O.2    17  HIS17      -0.2864
     37  CB        -0.3610    4.3580   16.5220 C.3    17  HIS17       0.0771
     38  CG         0.5140    3.1450   16.5830 C.ar   17  HIS17       0.0820
     39  ND1        1.8840    3.2220   16.7070 N.ar   17  HIS17      -0.2267
     40  CD2        0.2150    1.8260   16.5230 C.ar   17  HIS17       0.1154
     41  CE1        2.3920    2.0030   16.7270 C.ar   17  HIS17       0.1986
     42  NE2        1.4000    1.1370   16.6170 N.ar   17  HIS17      -0.2212
     43  N         -4.2620   -7.4590    9.2320 N.3    78  PRO78      -0.2102
     44  CA        -3.9580   -6.1540    9.8330 C.3    78  PRO78       0.1504
     45  C         -2.6840   -5.4790    9.3110 C.2    78  PRO78       0.2575
     46  O         -2.2960   -4.4380    9.8450 O.2    78  PRO78      -0.2718
     47  CB        -3.7960   -6.4940   11.3180 C.3    78  PRO78       0.0282
     48  CG        -3.3630   -7.9160   11.3300 C.3    78  PRO78       0.0208
     49  CD        -4.1020   -8.5610   10.1980 C.3    78  PRO78       0.0893
     50  N         -2.0550   -6.0440    8.2850 N.am   79  ILE79      -0.1980
     51  CA        -0.7900   -5.5080    7.7920 C.3    79  ILE79       0.1595
     52  C         -0.9410   -4.7020    6.4960 C.2    79  ILE79       0.2287
     53  O         -0.2210   -3.7260    6.2780 O.2    79  ILE79      -0.2864
     54  CB         0.2550   -6.6310    7.5980 C.3    79  ILE79       0.0276
     55  CG1        0.4170   -7.4400    8.8840 C.3    79  ILE79       0.0022
     56  CG2        1.5970   -6.0570    7.1780 C.3    79  ILE79       0.0022
     57  CD1        0.8640   -6.6140   10.0690 C.3    79  ILE79       0.0001
     58  N         -1.4660   -0.8690    6.7110 N.3    82  LEU82      -0.1245
     59  CA        -0.2550   -0.2130    7.1870 C.3    82  LEU82       0.1561
     60  C          0.7220   -0.0710    6.0230 C.2    82  LEU82       0.2260
     61  O          1.2880    1.0030    5.7970 O.2    82  LEU82      -0.2867
     62  CB         0.4000   -1.0070    8.3220 C.3    82  LEU82       0.0270
     63  CG        -0.4640   -1.6650    9.4020 C.3    82  LEU82       0.0019
     64  CD1        0.4070   -2.1650   10.5450 C.3    82  LEU82       0.0001
     65  CD2       -1.5400   -0.7370    9.9260 C.3    82  LEU82       0.0001
     66  N          7.2340    4.7830   13.4210 N.3   116  PHE116     -0.1241
     67  CA         6.9810    3.9280   12.2600 C.3   116  PHE116      0.1605
     68  C          6.8770    4.7180   10.9520 C.2   116  PHE116      0.2264
     69  O          7.1670    4.1900    9.8750 O.2   116  PHE116     -0.2867
     70  CB         5.7260    3.0740   12.4730 C.3   116  PHE116      0.0534
     71  CG         5.8640    2.0490   13.5660 C.ar  116  PHE116     -0.0203
     72  CD1        7.1000    1.7800   14.1410 C.ar  116  PHE116     -0.0042
     73  CD2        4.7550    1.3500   14.0160 C.ar  116  PHE116     -0.0042
     74  CE1        7.2250    0.8400   15.1490 C.ar  116  PHE116     -0.0003
     75  CE2        4.8740    0.4050   15.0210 C.ar  116  PHE116     -0.0003
     76  CZ         6.1100    0.1500   15.5870 C.ar  116  PHE116     -0.0000
     77  N          7.4090    7.0020   20.5850 N.3   135  TRP135     -0.1241
     78  CA         7.4010    5.5550   20.7660 C.3   135  TRP135      0.1605
     79  C          6.3110    5.0950   21.7320 C.2   135  TRP135      0.2264
     80  O          6.5330    5.0280   22.9440 O.2   135  TRP135     -0.2867
     81  CB         8.7670    5.0810   21.2600 C.3   135  TRP135      0.0550
     82  CG         8.9290    3.5990   21.2190 C.ar  135  TRP135      0.0003
     83  CD1        8.7660    2.7250   22.2520 C.ar  135  TRP135      0.0946
     84  CD2        9.2840    2.8110   20.0770 C.ar  135  TRP135      0.0152
     85  NE1        9.0000    1.4420   21.8250 N.ar  135  TRP135     -0.2442
     86  CE2        9.3190    1.4680   20.4940 C.ar  135  TRP135      0.0810
     87  CE3        9.5760    3.1130   18.7450 C.ar  135  TRP135      0.0012
     88  CZ2        9.6380    0.4260   19.6210 C.ar  135  TRP135      0.0191
     89  CZ3        9.8890    2.0810   17.8830 C.ar  135  TRP135      0.0001
     90  CH2        9.9180    0.7540   18.3230 C.ar  135  TRP135      0.0015
     91  N          5.0750    2.1350   21.8350 N.3   137  ASN137     -0.1240
     92  CA         5.1350    0.6800   21.9210 C.3   137  ASN137      0.1653
     93  C          5.7180    0.2110   23.2500 C.2   137  ASN137      0.2266
     94  O          5.9620    1.0210   24.1450 O.2   137  ASN137     -0.2867
     95  CB         5.9640    0.1180   20.7650 C.3   137  ASN137      0.1155
     96  CG         5.6030    0.7400   19.4280 C.2   137  ASN137      0.2627
     97  OD1        6.4760    1.1810   18.6790 O.2   137  ASN137     -0.2716
     98  ND2        4.3110    0.7830   19.1250 N.am  137  ASN137     -0.0877
     99  N         11.4920   -2.9060   23.9640 N.3   141  SER141     -0.1217
    100  CA        11.7340   -3.5000   22.6530 C.3   141  SER141      0.1889
    101  C         12.5640   -2.6010   21.7370 C.2   141  SER141      0.2288
    102  O         12.9290   -3.0070   20.6350 O.2   141  SER141     -0.2866
    103  CB        10.4130   -3.8740   21.9770 C.3   141  SER141      0.2089
    104  OG         9.6180   -2.7260   21.7380 O.3   141  SER141     -0.2183
    105  N         16.2080   -3.4260   17.9630 N.3   145  TYR145     -0.1241
    106  CA        16.4410   -2.9000   16.6240 C.3   145  TYR145      0.1605
    107  C         17.8940   -2.5040   16.3660 C.2   145  TYR145      0.2264
    108  O         18.2560   -2.1390   15.2470 O.2   145  TYR145     -0.2867
    109  CB        15.4870   -1.7360   16.3590 C.3   145  TYR145      0.0534
    110  CG        14.0410   -2.1460   16.4860 C.ar  145  TYR145     -0.0201
    111  CD1       13.4130   -2.8420   15.4680 C.ar  145  TYR145     -0.0009
    112  CD2       13.3120   -1.8590   17.6300 C.ar  145  TYR145     -0.0009
    113  CE1       12.1000   -3.2320   15.5750 C.ar  145  TYR145      0.0417
    114  CE2       11.9930   -2.2460   17.7480 C.ar  145  TYR145      0.0417
    115  CZ        11.3940   -2.9340   16.7150 C.ar  145  TYR145      0.1957
    116  OH        10.0790   -3.3270   16.8190 O.3   145  TYR145     -0.2866
    117  N          9.9730  -10.6010   18.2160 N.3   179  PRO179     -0.2116
    118  CA         8.9140  -10.3870   17.2220 C.3   179  PRO179      0.1372
    119  C          9.1950  -11.1570   15.9310 C.2   179  PRO179      0.2244
    120  O         10.2990  -11.0690   15.3970 O.2   179  PRO179     -0.2868
    121  CB         8.9860   -8.8800   16.9600 C.3   179  PRO179      0.0268
    122  CG         9.5700   -8.3080   18.2020 C.3   179  PRO179      0.0207
    123  CD        10.5530   -9.3290   18.6870 C.3   179  PRO179      0.0892
    124  N          8.3210  -10.7070   12.9430 N.3   181  ASP181     -0.1239
    125  CA         8.5310   -9.9130   11.7330 C.3   181  ASP181      0.1674
    126  C          9.9690   -9.4250   11.5300 C.2   181  ASP181      0.2266
    127  O         10.3240   -8.9970   10.4320 O.2   181  ASP181     -0.2867
    128  CB         7.5250   -8.7560   11.6330 C.3   181  ASP181      0.1410
    129  CG         7.5030   -7.8820   12.8720 C.2   181  ASP181      0.3668
    130  OD1        6.3930   -7.5130   13.3070 O.co2 181  ASP181     -0.2456
    131  OD2        8.5860   -7.5480   13.4000 O.co2 181  ASP181     -0.2456
    132  N          6.0010   -3.0510    6.1010 N.3   192  PHE192     -0.1241
    133  CA         5.8660   -2.7130    7.5120 C.3   192  PHE192      0.1605
    134  C          7.0150   -3.2960    8.3310 C.2   192  PHE192      0.2264
    135  O          7.5430   -2.6380    9.2290 O.2   192  PHE192     -0.2867
    136  CB         4.5230   -3.2160    8.0480 C.3   192  PHE192      0.0534
    137  CG         4.3280   -2.9800    9.5180 C.ar  192  PHE192     -0.0203
    138  CD1        4.2820   -1.6910   10.0290 C.ar  192  PHE192     -0.0042
    139  CD2        4.1730   -4.0490   10.3890 C.ar  192  PHE192     -0.0042
    140  CE1        4.0980   -1.4720   11.3830 C.ar  192  PHE192     -0.0003
    141  CE2        3.9860   -3.8380   11.7450 C.ar  192  PHE192     -0.0003
    142  CZ         3.9490   -2.5470   12.2430 C.ar  192  PHE192     -0.0000
    143  N         10.1570   -1.4350   10.2370 N.3   196  LEU196     -0.1245
    144  CA        10.5150   -1.6890   11.6270 C.3   196  LEU196      0.1561
    145  C         11.9730   -2.1080   11.7660 C.2   196  LEU196      0.2260
    146  O         12.6300   -1.7670   12.7470 O.2   196  LEU196     -0.2867
    147  CB         9.5920   -2.7440   12.2420 C.3   196  LEU196      0.0270
    148  CG         8.4080   -2.2130   13.0560 C.3   196  LEU196      0.0019
    149  CD1        7.5770   -1.2260   12.2510 C.3   196  LEU196      0.0001
    150  CD2        7.5370   -3.3530   13.5460 C.3   196  LEU196      0.0001
    151  N         -6.8470   -6.0590   17.5350 N.3   274  VAL274     -0.1245
    152  CA        -6.1200   -6.1280   16.2670 C.3   274  VAL274      0.1561
    153  C         -6.1160   -7.5410   15.6870 C.2   274  VAL274      0.2260
    154  O         -6.5150   -7.7520   14.5400 O.2   274  VAL274     -0.2867
    155  CB        -4.6690   -5.6270   16.4180 C.3   274  VAL274      0.0252
    156  CG1       -3.8430   -5.9750   15.1850 C.3   274  VAL274      0.0019
    157  CG2       -4.6490   -4.1280   16.6780 C.3   274  VAL274      0.0019
    158  N          1.5800  -11.4530   18.8220 N.3   365  PHE365     -0.1227
    159  CA         2.6420  -11.0680   17.8920 C.3   365  PHE365      0.1736
    160  C          3.2200   -9.6980   18.2290 C.2   365  PHE365      0.2596
    161  O          2.8080   -9.0580   19.1970 O.2   365  PHE365     -0.2718
    162  CB         2.1440  -11.0840   16.4420 C.3   365  PHE365      0.0547
    163  CG         1.3500   -9.8690   16.0570 C.ar  365  PHE365     -0.0202
    164  CD1        1.6750   -9.1520   14.9180 C.ar  365  PHE365     -0.0042
    165  CD2        0.2740   -9.4500   16.8250 C.ar  365  PHE365     -0.0042
    166  CE1        0.9510   -8.0320   14.5570 C.ar  365  PHE365     -0.0003
    167  CE2       -0.4540   -8.3320   16.4720 C.ar  365  PHE365     -0.0003
    168  CZ        -0.1170   -7.6220   15.3350 C.ar  365  PHE365     -0.0000
    169  N          4.1760   -9.2500   17.4220 N.am  366  GLY366     -0.1942
    170  CA         4.7940   -7.9540   17.6250 C.3   366  GLY366      0.2014
    171  C          5.6790   -7.9130   18.8510 C.2   366  GLY366      0.2638
    172  O          6.4770   -8.8200   19.0810 O.2   366  GLY366     -0.2714
    173  N          5.5320   -6.8560   19.6430 N.am  367  ASP367     -0.1971
    174  CA         6.3290   -6.6850   20.8520 C.3   367  ASP367      0.1709
    175  C          5.6140   -7.2400   22.0820 C.2   367  ASP367      0.2293
    176  O          6.0940   -7.0900   23.2050 O.2   367  ASP367     -0.2864
    177  CB         6.6650   -5.2060   21.0550 C.3   367  ASP367      0.1436
    178  CG         5.4320   -4.3230   21.0560 C.2   367  ASP367      0.3671
    179  OD1        4.3610   -4.7910   20.6170 O.co2 367  ASP367     -0.2456
    180  OD2        5.5380   -3.1540   21.4830 O.co2 367  ASP367     -0.2456
@<TRIPOS>BOND
     1    61    60    2
     2    60    59    1
     3   132   133    1
     4    53    52    2
     5    52    51    1
     6    58    59    1
     7    56    54    1
     8    59    62    1
     9   133   136    1
    10   133   134    1
    11    54    51    1
    12    54    55    1
    13    51    50    1
    14   136   137    1
    15    22    20   ar
    16    22    21   ar
    17    50    45   am
    18    62    63    1
    19   134   135    2
    20    20    18   ar
    21    55    57    1
    22    21    19   ar
    23    43    44    1
    24    43    49    1
    25    45    44    1
    26    45    46    2
    27    63    65    1
    28    63    64    1
    29   137   138   ar
    30   137   139   ar
    31    44    47    1
    32    69    68    2
    33   138   140   ar
    34    18    17   ar
    35    49    48    1
    36   143   144    1
    37   139   141   ar
    38   127   126    2
    39     9    11   ar
    40     9     7   ar
    41    19    17   ar
    42    11    10   ar
    43    68    67    1
    44    17    16    1
    45     7     6   ar
    46    47    48    1
    47   140   142   ar
    48   126   125    1
    49   144   145    1
    50   144   147    1
    51   128   125    1
    52   128   129    1
    53   125   124    1
    54   141   142   ar
    55   145   146    2
    56    10     8   ar
    57   147   148    1
    58   149   148    1
    59    67    70    1
    60    67    66    1
    61    16    13    1
    62    70    71    1
    63     6     8   ar
    64     6     5    1
    65     2     3    1
    66     2     1    1
    67     2     5    1
    68     3     4    2
    69    12    13    1
    70   129   130   ar
    71   129   131   ar
    72   148   150    1
    73    13    14    1
    74    71    73   ar
    75    71    72   ar
    76    73    75   ar
    77    72    74   ar
    78   154   153    2
    79    14    23   am
    80    14    15    2
    81   166   164   ar
    82   166   168   ar
    83    23    24    1
    84   164   163   ar
    85    75    76   ar
    86    74    76   ar
    87   156   155    1
    88   108   107    2
    89   168   167   ar
    90   120   119    2
    91   111   113   ar
    92   111   110   ar
    93   113   115   ar
    94   153   152    1
    95   119   118    1
    96   163   162    1
    97   163   165   ar
    98    24    25    1
    99   152   155    1
   100   152   151    1
   101   109   110    1
   102   109   106    1
   103   107   106    1
   104   155   157    1
   105   162   159    1
   106   167   165   ar
   107   110   112   ar
   108    37    38    1
   109    37    34    1
   110    40    38   ar
   111    40    42   ar
   112    38    39   ar
   113    42    41   ar
   114   106   105    1
   115    39    41   ar
   116   115   116    1
   117   115   114   ar
   118   121   118    1
   119   121   122    1
   120   118   117    1
   121    25    26    2
   122    25    27   am
   123   169   170    1
   124   169   160   am
   125   170   171    1
   126   112   114   ar
   127    36    35    2
   128    35    34    1
   129    34    33    1
   130    89    90   ar
   131    89    87   ar
   132   159   160    1
   133   159   158    1
   134    33    29   am
   135    27    28    1
   136   122   123    1
   137   117   123    1
   138   160   161    2
   139    90    88   ar
   140    97    96    2
   141    87    84   ar
   142   171   172    2
   143   171   173   am
   144    32    31    1
   145    98    96   am
   146    29    28    1
   147    29    30    2
   148    28    31    1
   149    96    95    1
   150    88    86   ar
   151   173   174    1
   152    84    86   ar
   153    84    82   ar
   154    86    85   ar
   155    77    78    1
   156   179   178   ar
   157   102   101    2
   158    95    92    1
   159    78    81    1
   160    78    79    1
   161   174   177    1
   162   174   175    1
   163   177   178    1
   164   178   180   ar
   165    82    81    1
   166    82    83   ar
   167    79    80    2
   168   101   100    1
   169   104   103    1
   170    85    83   ar
   171    91    92    1
   172    92    93    1
   173   103   100    1
   174   175   176    2
   175   100    99    1
   176    93    94    2
