@<TRIPOS>MOLECULE
tmp/4reoA00.pdb
 104 97 0 0 0
SMALL
GASTEIGER

@<TRIPOS>ATOM
      1  N         -9.7880    2.1380    7.6290 N.3    33  THR33      -0.1218
      2  CA       -10.6430    3.0700    8.3340 C.3    33  THR33       0.1862
      3  C        -11.4750    2.3060    9.3580 C.2    33  THR33       0.2287
      4  O        -11.9680    1.2130    9.0810 O.2    33  THR33      -0.2866
      5  CB       -11.5540    3.8190    7.3580 C.3    33  THR33       0.1770
      6  OG1      -10.7520    4.6600    6.5180 O.3    33  THR33      -0.2211
      7  CG2      -12.5410    4.6770    8.1030 C.3    33  THR33       0.0375
      8  N        -14.5460   15.3790   15.3540 N.3    57  LEU57      -0.1245
      9  CA       -13.6570   14.3980   15.9740 C.3    57  LEU57       0.1561
     10  C        -12.4690   15.1090   16.5950 C.2    57  LEU57       0.2260
     11  O        -11.8440   15.9460   15.9460 O.2    57  LEU57      -0.2867
     12  CB       -13.1660   13.3860   14.9380 C.3    57  LEU57       0.0270
     13  CG       -14.2230   12.4750   14.3120 C.3    57  LEU57       0.0019
     14  CD1      -13.5700   11.6000   13.2460 C.3    57  LEU57       0.0001
     15  CD2      -14.9020   11.6100   15.3800 C.3    57  LEU57       0.0001
     16  N         -9.5470   14.0230   17.1830 N.3    59  HIS59      -0.1226
     17  CA        -8.2670   13.6450   16.5790 C.3    59  HIS59       0.1752
     18  C         -8.3830   13.3080   15.0980 C.2    59  HIS59       0.2597
     19  O         -9.3240   12.6500   14.6770 O.2    59  HIS59      -0.2718
     20  CB        -7.6370   12.4630   17.3290 C.3    59  HIS59       0.0759
     21  CG        -7.6490   12.6240   18.8130 C.ar   59  HIS59       0.0818
     22  ND1       -6.7910   13.4770   19.4730 N.ar   59  HIS59      -0.2268
     23  CD2       -8.4320   12.0650   19.7620 C.ar   59  HIS59       0.1154
     24  CE1       -7.0390   13.4270   20.7700 C.ar   59  HIS59       0.1986
     25  NE2       -8.0320   12.5780   20.9710 N.ar   59  HIS59      -0.2212
     26  N         -7.4150   13.7610   14.3110 N.am   60  GLY60      -0.1942
     27  CA        -7.3050   13.3300   12.9330 C.3    60  GLY60       0.2014
     28  C         -7.9750   14.1730   11.8650 C.2    60  GLY60       0.2638
     29  O         -7.8540   13.8610   10.6880 O.2    60  GLY60      -0.2714
     30  N         -8.6900   15.2240   12.2600 N.am   61  LEU61      -0.1977
     31  CA        -9.3150   16.1200   11.2860 C.3    61  LEU61       0.1596
     32  C         -8.6640   17.4960   11.3390 C.2    61  LEU61       0.2287
     33  O         -7.6500   17.6730   12.0020 O.2    61  LEU61      -0.2864
     34  CB       -10.8250   16.2330   11.5040 C.3    61  LEU61       0.0297
     35  CG       -11.6590   14.9620   11.3110 C.3    61  LEU61       0.0022
     36  CD1      -13.1150   15.2190   11.6530 C.3    61  LEU61       0.0001
     37  CD2      -11.5310   14.4290    9.8910 C.3    61  LEU61       0.0001
     38  N         -5.2410   17.3640    8.2260 N.3    65  VAL65      -0.1245
     39  CA        -5.6840   16.3810    7.2400 C.3    65  VAL65       0.1561
     40  C         -5.2230   16.8030    5.8690 C.2    65  VAL65       0.2260
     41  O         -5.5040   17.9170    5.4290 O.2    65  VAL65      -0.2867
     42  CB        -7.2160   16.2290    7.1850 C.3    65  VAL65       0.0252
     43  CG1       -7.6020   15.2090    6.1100 C.3    65  VAL65       0.0019
     44  CG2       -7.7480   15.8030    8.5220 C.3    65  VAL65       0.0019
     45  N         -4.6050   11.8840    3.0120 N.3   104  ASP104     -0.1225
     46  CA        -5.2930   11.1970    4.1050 C.3   104  ASP104      0.1805
     47  C         -6.7850   11.0320    3.8360 C.2   104  ASP104      0.2597
     48  O         -7.4530   10.2200    4.4750 O.2   104  ASP104     -0.2718
     49  CB        -5.1240   11.9790    5.4080 C.3   104  ASP104      0.1424
     50  CG        -3.6810   12.1760    5.7780 C.2   104  ASP104      0.3668
     51  OD1       -2.9260   11.1770    5.7830 O.co2 104  ASP104     -0.2456
     52  OD2       -3.2950   13.3350    6.0370 O.co2 104  ASP104     -0.2456
     53  N         -7.3010   11.8220    2.9030 N.am  105  ALA105     -0.1979
     54  CA        -8.7220   11.8250    2.5960 C.3   105  ALA105      0.1597
     55  C         -8.8910   12.2010    1.1320 C.2   105  ALA105      0.2287
     56  O         -8.0510   12.9060    0.5750 O.2   105  ALA105     -0.2864
     57  CB        -9.4450   12.8240    3.4830 C.3   105  ALA105      0.0319
     58  N        -17.0390   15.7530   10.2050 N.3   154  ILE154     -0.1245
     59  CA       -17.5200   14.8050    9.2210 C.3   154  ILE154      0.1561
     60  C        -19.0010   14.5350    9.4190 C.2   154  ILE154      0.2260
     61  O        -19.5720   14.7040   10.5010 O.2   154  ILE154     -0.2867
     62  CB       -16.6820   13.5150    9.1430 C.3   154  ILE154      0.0252
     63  CG1      -16.6990   12.7790   10.4760 C.3   154  ILE154      0.0019
     64  CG2      -15.2590   13.8420    8.7070 C.3   154  ILE154      0.0019
     65  CD1      -16.2020   11.3540   10.3750 C.3   154  ILE154      0.0001
     66  N        -17.0330    7.1390    9.8800 N.3   167  PRO167     -0.2116
     67  CA       -15.6330    6.8410   10.1890 C.3   167  PRO167      0.1372
     68  C        -15.1940    7.6140   11.4320 C.2   167  PRO167      0.2244
     69  O        -15.5800    8.7790   11.6300 O.2   167  PRO167     -0.2868
     70  CB       -14.8780    7.3140    8.9340 C.3   167  PRO167      0.0268
     71  CG       -15.7500    8.3380    8.3240 C.3   167  PRO167      0.0207
     72  CD       -17.1760    7.9450    8.6520 C.3   167  PRO167      0.0892
     73  N        -11.7430    7.0030   12.7050 N.3   169  GLY169     -0.1210
     74  CA       -10.2980    7.0010   12.7530 C.3   169  GLY169      0.1956
     75  C         -9.7210    5.9770   11.8210 C.2   169  GLY169      0.2611
     76  O        -10.4120    5.4370   10.9600 O.2   169  GLY169     -0.2717
     77  N         -8.4290    5.7340   12.0000 N.am  170  LYS170     -0.1979
     78  CA        -7.7070    4.7110   11.2620 C.3   170  LYS170      0.1596
     79  C         -7.1560    3.6970   12.2520 C.2   170  LYS170      0.2287
     80  O         -6.9220    4.0160   13.4170 O.2   170  LYS170     -0.2864
     81  CB        -6.5440    5.3380   10.4920 C.3   170  LYS170      0.0298
     82  CG        -6.9080    6.5990    9.7420 C.3   170  LYS170      0.0038
     83  CD        -7.8210    6.2710    8.5990 C.3   170  LYS170      0.0206
     84  CE        -7.1140    5.3700    7.6150 C.3   170  LYS170      0.1093
     85  NZ        -7.7960    5.4140    6.2980 N.3   170  LYS170     -0.1314
     86  N         -4.1250    4.6830   14.3500 N.3   173  PHE173     -0.1241
     87  CA        -4.2140    5.6180   15.4740 C.3   173  PHE173      0.1605
     88  C         -3.7940    4.9560   16.7930 C.2   173  PHE173      0.2264
     89  O         -4.0400    3.7660   17.0060 O.2   173  PHE173     -0.2867
     90  CB        -5.6520    6.1410   15.6370 C.3   173  PHE173      0.0534
     91  CG        -6.0500    7.2090   14.6430 C.ar  173  PHE173     -0.0203
     92  CD1       -5.3430    7.4040   13.4640 C.ar  173  PHE173     -0.0042
     93  CD2       -7.1440    8.0270   14.9040 C.ar  173  PHE173     -0.0042
     94  CE1       -5.7280    8.3910   12.5580 C.ar  173  PHE173     -0.0003
     95  CE2       -7.5280    9.0120   14.0100 C.ar  173  PHE173     -0.0003
     96  CZ        -6.8180    9.1950   12.8320 C.ar  173  PHE173     -0.0000
     97  N        -12.1540    9.3690   19.8000 N.3   181  ASN181     -0.1240
     98  CA       -12.9750    9.6240   18.6230 C.3   181  ASN181      0.1653
     99  C        -14.2770    8.8240   18.6370 C.2   181  ASN181      0.2266
    100  O        -15.3250    9.3260   18.2200 O.2   181  ASN181     -0.2867
    101  CB       -12.1860    9.3470   17.3410 C.3   181  ASN181      0.1155
    102  CG       -11.3010   10.5180   16.9270 C.2   181  ASN181      0.2627
    103  OD1      -11.1610   11.5100   17.6510 O.2   181  ASN181     -0.2716
    104  ND2      -10.6840   10.3970   15.7600 N.am  181  ASN181     -0.0877
@<TRIPOS>BOND
     1    56    55    2
     2    55    54    1
     3    54    53    1
     4    54    57    1
     5    53    47   am
     6    45    46    1
     7    47    46    1
     8    47    48    2
     9    46    49    1
    10    49    50    1
    11    41    40    2
    12    50    51   ar
    13    50    52   ar
    14    40    39    1
    15    43    42    1
    16    85    84    1
    17     6     5    1
    18    42    39    1
    19    42    44    1
    20    39    38    1
    21     5     7    1
    22     5     2    1
    23    84    83    1
    24     1     2    1
    25    71    72    1
    26    71    70    1
    27     2     3    1
    28    83    82    1
    29    72    66    1
    30    64    62    1
    31    70    67    1
    32     4     3    2
    33    62    59    1
    34    62    63    1
    35    59    60    1
    36    59    58    1
    37    60    61    2
    38    82    81    1
    39    66    67    1
    40    37    35    1
    41    67    68    1
    42    65    63    1
    43    81    78    1
    44    29    28    2
    45    76    75    2
    46    78    77    1
    47    78    79    1
    48    31    32    1
    49    31    34    1
    50    31    30    1
    51    35    34    1
    52    35    36    1
    53    32    33    2
    54    68    69    2
    55    75    77   am
    56    75    74    1
    57    28    30   am
    58    28    27    1
    59    79    80    2
    60    94    96   ar
    61    94    92   ar
    62    73    74    1
    63    96    95   ar
    64    27    26    1
    65    14    13    1
    66    92    91   ar
    67    95    93   ar
    68    26    18   am
    69    13    12    1
    70    13    15    1
    71    86    87    1
    72    91    93   ar
    73    91    90    1
    74    19    18    2
    75    12     9    1
    76    18    17    1
    77     8     9    1
    78    87    90    1
    79    87    88    1
    80   104   102   am
    81    11    10    2
    82     9    10    1
    83    17    16    1
    84    17    20    1
    85    88    89    2
    86   102   101    1
    87   102   103    2
    88    20    21    1
    89   101    98    1
    90   100    99    2
    91    98    99    1
    92    98    97    1
    93    21    22   ar
    94    21    23   ar
    95    22    24   ar
    96    23    25   ar
    97    24    25   ar
