@<TRIPOS>MOLECULE
tmp/4resA00.pdb
 169 157 0 0 0
SMALL
GASTEIGER

@<TRIPOS>ATOM
      1  N          7.6560    9.4520   -4.3650 N.3    91  GLN91      -0.1245
      2  CA         7.7810   10.1100   -5.6680 C.3    91  GLN91       0.1566
      3  C          8.7140    9.3680   -6.6120 C.2    91  GLN91       0.2260
      4  O          8.8840    9.7460   -7.7720 O.2    91  GLN91      -0.2867
      5  CB         8.2370   11.5560   -5.5060 C.3    91  GLN91       0.0367
      6  CG         7.1130   12.4980   -5.1590 C.3    91  GLN91       0.0905
      7  CD         7.6010   13.9150   -4.9670 C.2    91  GLN91       0.2608
      8  OE1        8.1870   14.2440   -3.9330 O.2    91  GLN91      -0.2717
      9  NE2        7.3820   14.7630   -5.9720 N.am   91  GLN91      -0.0878
     10  N         10.7380   11.5850  -11.6910 N.3    96  GLU96      -0.1231
     11  CA        10.3330   12.7440  -10.8860 C.3    96  GLU96       0.1699
     12  C         11.4310   13.7470  -10.4670 C.2    96  GLU96       0.2592
     13  O         12.6050   13.3950  -10.3030 O.2    96  GLU96      -0.2718
     14  CB         9.5340   12.2630   -9.6600 C.3    96  GLU96       0.0402
     15  CG         8.4610   13.2290   -9.1380 C.3    96  GLU96       0.1161
     16  CD         7.3450   13.5070  -10.1330 C.2    96  GLU96       0.3649
     17  OE1        7.1360   12.6980  -11.0640 O.co2  96  GLU96      -0.2457
     18  OE2        6.6700   14.5470   -9.9750 O.co2  96  GLU96      -0.2457
     19  N         10.9760   14.9940  -10.2930 N.am   97  GLU97      -0.1979
     20  CA        11.7370   16.2180   -9.9240 C.3    97  GLU97       0.1602
     21  C         12.5150   16.3730   -8.5880 C.2    97  GLU97       0.2287
     22  O         13.5240   17.0850   -8.5560 O.2    97  GLU97      -0.2864
     23  CB        10.8270   17.4470  -10.0820 C.3    97  GLU97       0.0415
     24  CG         9.7150   17.5100   -9.0490 C.3    97  GLU97       0.1163
     25  CD         8.6420   18.5030   -9.4070 C.2    97  GLU97       0.3649
     26  OE1        8.9070   19.3850  -10.2470 O.co2  97  GLU97      -0.2457
     27  OE2        7.5300   18.3950   -8.8540 O.co2  97  GLU97      -0.2457
     28  N         13.9870   19.0600   -5.1600 N.3   101  ASP101     -0.1225
     29  CA        12.8390   19.4460   -4.3180 C.3   101  ASP101      0.1805
     30  C         12.7510   18.7670   -2.9380 C.2   101  ASP101      0.2597
     31  O         13.1010   19.3740   -1.9340 O.2   101  ASP101     -0.2718
     32  CB        11.5260   19.1930   -5.0840 C.3   101  ASP101      0.1424
     33  CG        10.7560   20.4640   -5.3950 C.2   101  ASP101      0.3668
     34  OD1       10.0290   20.9460   -4.5050 O.co2 101  ASP101     -0.2456
     35  OD2       10.8280   20.9520   -6.5420 O.co2 101  ASP101     -0.2456
     36  N         12.2940   17.5160   -2.8920 N.am  102  ASN102     -0.1974
     37  CA        12.0140   16.8460   -1.6090 C.3   102  ASN102      0.1688
     38  C         13.2270   16.2380   -0.9060 C.2   102  ASN102      0.2292
     39  O         13.3370   16.2630    0.3320 O.2   102  ASN102     -0.2864
     40  CB        10.9060   15.7950   -1.7570 C.3   102  ASN102      0.1181
     41  CG         9.5600   16.2740   -1.2220 C.2   102  ASN102      0.2629
     42  OD1        9.4880   17.1710   -0.3800 O.2   102  ASN102     -0.2716
     43  ND2        8.4850   15.6640   -1.7070 N.am  102  ASN102     -0.0877
     44  N         15.2870   19.3910    0.1840 N.3   105  LEU105     -0.1245
     45  CA        14.6350   19.8790    1.3990 C.3   105  LEU105      0.1561
     46  C         14.9060   19.0200    2.6370 C.2   105  LEU105      0.2260
     47  O         15.3520   19.5420    3.6540 O.2   105  LEU105     -0.2867
     48  CB        13.1300   20.0100    1.1680 C.3   105  LEU105      0.0270
     49  CG        12.2200   20.4300    2.3220 C.3   105  LEU105      0.0019
     50  CD1       12.4080   21.8950    2.7080 C.3   105  LEU105      0.0001
     51  CD2       10.7840   20.1690    1.9320 C.3   105  LEU105      0.0001
     52  N          1.4240   12.8150   -1.1240 N.3   295  ILE295     -0.1231
     53  CA         2.4780   13.8020   -1.3900 C.3   295  ILE295      0.1692
     54  C          2.0620   15.2100   -0.9770 C.2   295  ILE295      0.2592
     55  O          2.8650   15.9830   -0.4590 O.2   295  ILE295     -0.2718
     56  CB         2.8590   13.8260   -2.8800 C.3   295  ILE295      0.0266
     57  CG1        3.4320   12.4710   -3.3030 C.3   295  ILE295      0.0019
     58  CG2        3.8410   14.9510   -3.1590 C.3   295  ILE295      0.0020
     59  CD1        4.5840   12.0070   -2.4580 C.3   295  ILE295      0.0001
     60  N          0.7940   15.5270   -1.2070 N.am  296  PHE296     -0.1976
     61  CA         0.2580   16.8280   -0.8390 C.3   296  PHE296      0.1639
     62  C          0.2120   16.9850    0.6730 C.2   296  PHE296      0.2290
     63  O          0.6380   18.0040    1.2130 O.2   296  PHE296     -0.2864
     64  CB        -1.1390   17.0130   -1.4290 C.3   296  PHE296      0.0560
     65  CG        -1.1630   17.0440   -2.9330 C.ar  296  PHE296     -0.0200
     66  CD1       -0.0060   17.2930   -3.6590 C.ar  296  PHE296     -0.0042
     67  CD2       -2.3460   16.8260   -3.6220 C.ar  296  PHE296     -0.0042
     68  CE1       -0.0320   17.3220   -5.0440 C.ar  296  PHE296     -0.0003
     69  CE2       -2.3790   16.8530   -5.0090 C.ar  296  PHE296     -0.0003
     70  CZ        -1.2210   17.1010   -5.7200 C.ar  296  PHE296     -0.0000
     71  N          3.7290   17.3940    1.9000 N.3   299  GLY299     -0.1225
     72  CA         4.1770   18.7080    1.4910 C.3   299  GLY299      0.1811
     73  C          3.6660   19.8000    2.4040 C.2   299  GLY299      0.2280
     74  O          4.4420   20.6290    2.8570 O.2   299  GLY299     -0.2866
     75  N          4.7780   19.5180    6.2140 N.3   302  VAL302     -0.1231
     76  CA         6.2000   19.8610    6.3130 C.3   302  VAL302      0.1692
     77  C          6.4800   21.3330    6.0060 C.2   302  VAL302      0.2591
     78  O          7.3900   21.9440    6.5800 O.2   302  VAL302     -0.2718
     79  CB         7.0480   18.9640    5.3850 C.3   302  VAL302      0.0266
     80  CG1        8.4300   19.5590    5.1530 C.3   302  VAL302      0.0020
     81  CG2        7.1590   17.5660    5.9670 C.3   302  VAL302      0.0020
     82  N          5.6860   21.9020    5.1050 N.am  303  ALA303     -0.1980
     83  CA         5.7990   23.3150    4.7780 C.3   303  ALA303      0.1597
     84  C          5.4150   24.1120    6.0050 C.2   303  ALA303      0.2287
     85  O          5.8600   25.2420    6.1910 O.2   303  ALA303     -0.2864
     86  CB         4.9010   23.6750    3.6120 C.3   303  ALA303      0.0319
     87  N         11.8360   25.5880    9.8830 N.3   307  GLU307     -0.1245
     88  CA        13.2270   25.1830   10.0450 C.3   307  GLU307      0.1567
     89  C         14.0840   26.2600   10.7000 C.2   307  GLU307      0.2260
     90  O         15.0110   25.9460   11.4400 O.2   307  GLU307     -0.2867
     91  CB        13.8410   24.8600    8.6750 C.3   307  GLU307      0.0388
     92  CG        12.9180   24.1440    7.6800 C.3   307  GLU307      0.1160
     93  CD        12.1250   25.0840    6.7820 C.2   307  GLU307      0.3649
     94  OE1       12.5520   26.2470    6.6000 O.co2 307  GLU307     -0.2457
     95  OE2       11.0710   24.6570    6.2580 O.co2 307  GLU307     -0.2457
     96  N          4.3060   31.6100    2.0990 N.3   758  GLU758     -0.1245
     97  CA         5.1150   30.5030    1.6040 C.3   758  GLU758      0.1567
     98  C          4.2570   29.3060    1.2140 C.2   758  GLU758      0.2260
     99  O          4.4490   28.7120    0.1560 O.2   758  GLU758     -0.2867
    100  CB         6.0930   30.0540    2.6770 C.3   758  GLU758      0.0388
    101  CG         7.2880   30.9430    2.8760 C.3   758  GLU758      0.1160
    102  CD         8.1290   30.4680    4.0380 C.2   758  GLU758      0.3649
    103  OE1        8.6630   31.3220    4.7780 O.co2 758  GLU758     -0.2457
    104  OE2        8.2410   29.2330    4.2160 O.co2 758  GLU758     -0.2457
    105  N          1.6080   26.5100   -2.8570 N.3   762  PHE762     -0.1241
    106  CA         1.3850   25.0900   -3.1170 C.3   762  PHE762      0.1605
    107  C         -0.0630   24.6740   -2.8650 C.2   762  PHE762      0.2264
    108  O         -0.5230   23.6570   -3.3800 O.2   762  PHE762     -0.2867
    109  CB         2.3440   24.2220   -2.2880 C.3   762  PHE762      0.0534
    110  CG         2.0970   22.7270   -2.4200 C.ar  762  PHE762     -0.0203
    111  CD1        2.3240   22.0760   -3.6220 C.ar  762  PHE762     -0.0042
    112  CD2        1.6560   21.9800   -1.3380 C.ar  762  PHE762     -0.0042
    113  CE1        2.1030   20.7230   -3.7450 C.ar  762  PHE762     -0.0003
    114  CE2        1.4350   20.6280   -1.4600 C.ar  762  PHE762     -0.0003
    115  CZ         1.6620   20.0020   -2.6650 C.ar  762  PHE762     -0.0000
    116  N         -2.1550   25.8650   -5.8940 N.3   765  PHE765     -0.1241
    117  CA        -1.5380   25.1840   -7.0190 C.3   765  PHE765      0.1605
    118  C         -2.3410   23.9240   -7.2800 C.2   765  PHE765      0.2264
    119  O         -2.6950   23.6260   -8.4190 O.2   765  PHE765     -0.2867
    120  CB        -0.0780   24.8600   -6.6760 C.3   765  PHE765      0.0534
    121  CG         0.5960   23.9110   -7.6290 C.ar  765  PHE765     -0.0203
    122  CD1        0.9460   24.3160   -8.9060 C.ar  765  PHE765     -0.0042
    123  CD2        0.9270   22.6210   -7.2230 C.ar  765  PHE765     -0.0042
    124  CE1        1.5820   23.4410   -9.7750 C.ar  765  PHE765     -0.0003
    125  CE2        1.5650   21.7390   -8.0800 C.ar  765  PHE765     -0.0003
    126  CZ         1.8930   22.1480   -9.3580 C.ar  765  PHE765     -0.0000
    127  N          2.9570   26.8340  -10.8150 N.3   772  LEU772     -0.1245
    128  CA         3.4000   27.1100   -9.4450 C.3   772  LEU772      0.1561
    129  C          3.9790   28.5130   -9.2680 C.2   772  LEU772      0.2260
    130  O          4.9590   28.8770   -9.9180 O.2   772  LEU772     -0.2867
    131  CB         4.4050   26.0570   -8.9720 C.3   772  LEU772      0.0270
    132  CG         4.8330   26.1060   -7.5030 C.3   772  LEU772      0.0019
    133  CD1        3.6630   25.7890   -6.5830 C.3   772  LEU772      0.0001
    134  CD2        5.9890   25.1480   -7.2560 C.3   772  LEU772      0.0001
    135  N          5.2870   29.8660   -6.2380 N.3   774  LEU774     -0.1231
    136  CA         6.4980   29.9050   -5.4110 C.3   774  LEU774      0.1693
    137  C          7.1230   28.5140   -5.1830 C.2   774  LEU774      0.2593
    138  O          6.4470   27.5630   -4.7820 O.2   774  LEU774     -0.2718
    139  CB         6.1910   30.5870   -4.0730 C.3   774  LEU774      0.0284
    140  CG         7.3520   30.8780   -3.1310 C.3   774  LEU774      0.0019
    141  CD1        8.1540   32.0790   -3.6070 C.3   774  LEU774      0.0001
    142  CD2        6.8250   31.0970   -1.7230 C.3   774  LEU774      0.0001
    143  N          8.4260   28.4140   -5.4350 N.am  775  GLY775     -0.1942
    144  CA         9.1460   27.1470   -5.4600 C.3   775  GLY775      0.2014
    145  C          9.8490   26.7900   -4.1640 C.2   775  GLY775      0.2639
    146  O          9.8120   27.5550   -3.2170 O.2   775  GLY775     -0.2714
    147  N         10.4690   25.6120   -4.1300 N.am  776  THR776     -0.1950
    148  CA        11.1690   25.0920   -2.9530 C.3   776  THR776      0.1897
    149  C         12.3890   25.9250   -2.5710 C.2   776  THR776      0.2313
    150  O         12.5550   26.3300   -1.4120 O.2   776  THR776     -0.2863
    151  CB        11.6230   23.6170   -3.1820 C.3   776  THR776      0.1794
    152  OG1       10.4770   22.7600   -3.2250 O.3   776  THR776     -0.2208
    153  CG2       12.5730   23.1430   -2.0980 C.3   776  THR776      0.0378
    154  N         11.5560   29.3540   -1.2550 N.3   779  ILE779     -0.1245
    155  CA        11.0330   29.2710    0.1050 C.3   779  ILE779      0.1561
    156  C         12.1620   29.0900    1.1010 C.2   779  ILE779      0.2260
    157  O         12.1390   29.6610    2.1910 O.2   779  ILE779     -0.2867
    158  CB         9.9880   28.1480    0.2520 C.3   779  ILE779      0.0252
    159  CG1        8.6140   28.7460    0.5380 C.3   779  ILE779      0.0019
    160  CG2       10.3640   27.1670    1.3450 C.3   779  ILE779      0.0019
    161  CD1        7.5320   27.6980    0.6510 C.3   779  ILE779      0.0001
    162  N         13.0350   31.2780    4.4590 N.3   783  ASP783     -0.1239
    163  CA        13.1180   30.7620    5.8200 C.3   783  ASP783      0.1674
    164  C         14.5360   30.7370    6.3500 C.2   783  ASP783      0.2266
    165  O         14.8140   31.2660    7.4330 O.2   783  ASP783     -0.2867
    166  CB        12.5020   29.3670    5.9120 C.3   783  ASP783      0.1410
    167  CG        11.0140   29.4100    6.1660 C.2   783  ASP783      0.3668
    168  OD1       10.5250   30.4660    6.6200 O.co2 783  ASP783     -0.2456
    169  OD2       10.3370   28.3870    5.9170 O.co2 783  ASP783     -0.2456
@<TRIPOS>BOND
     1    10    11    1
     2    17    16   ar
     3    11    12    1
     4    11    14    1
     5   127   128    1
     6    12    13    2
     7    12    19   am
     8    19    20    1
     9    26    25   ar
    10    16    18   ar
    11    16    15    1
    12    23    20    1
    13    23    24    1
    14    20    21    1
    15   130   129    2
    16   124   126   ar
    17   124   122   ar
    18    14    15    1
    19   128   129    1
    20   128   131    1
    21    25    24    1
    22    25    27   ar
    23   126   125   ar
    24   131   132    1
    25   122   121   ar
    26    21    22    2
    27   119   118    2
    28   125   123   ar
    29     4     3    2
    30   121   123   ar
    31   121   120    1
    32   132   134    1
    33   132   133    1
    34   118   117    1
    35   117   120    1
    36   117   116    1
    37     3     2    1
    38    35    33   ar
    39   135   136    1
    40     9     7   am
    41    70    68   ar
    42    70    69   ar
    43     2     5    1
    44     2     1    1
    45     5     6    1
    46   144   143    1
    47   144   145    1
    48   143   137   am
    49   136   137    1
    50   136   139    1
    51    33    32    1
    52    33    34   ar
    53   137   138    2
    54    28    29    1
    55     6     7    1
    56    32    29    1
    57    68    66   ar
    58    69    67   ar
    59     7     8    2
    60    29    30    1
    61   145   147   am
    62   145   146    2
    63   147   148    1
    64   139   140    1
    65   113   111   ar
    66   113   115   ar
    67    66    65   ar
    68   111   110   ar
    69    67    65   ar
    70   141   140    1
    71   108   107    2
    72    57    56    1
    73    57    59    1
    74   152   151    1
    75   151   148    1
    76   151   153    1
    77    58    56    1
    78   140   142    1
    79   106   107    1
    80   106   105    1
    81   106   109    1
    82   148   149    1
    83    30    36   am
    84    30    31    2
    85    65    64    1
    86    36    37    1
    87    56    53    1
    88   115   114   ar
    89   149   150    2
    90   110   109    1
    91   110   112   ar
    92    40    37    1
    93    40    41    1
    94    43    41   am
    95    37    38    1
    96   114   112   ar
    97    64    61    1
    98    53    52    1
    99    53    54    1
   100   154   155    1
   101    41    42    2
   102    60    54   am
   103    60    61    1
   104    54    55    2
   105    38    39    2
   106    61    62    1
   107   155   158    1
   108   155   156    1
   109    99    98    2
   110    44    45    1
   111   158   159    1
   112   158   160    1
   113   159   161    1
   114    62    63    2
   115   156   157    2
   116    48    45    1
   117    48    49    1
   118    98    97    1
   119    45    46    1
   120    72    71    1
   121    72    73    1
   122    97    96    1
   123    97   100    1
   124    51    49    1
   125    49    50    1
   126    73    74    2
   127    46    47    2
   128   100   101    1
   129   101   102    1
   130    86    83    1
   131   102   104   ar
   132   102   103   ar
   133   162   163    1
   134    83    82    1
   135    83    84    1
   136    82    77   am
   137    80    79    1
   138    79    81    1
   139    79    76    1
   140   163   166    1
   141   163   164    1
   142   166   167    1
   143   169   167   ar
   144    84    85    2
   145    77    76    1
   146    77    78    2
   147   167   168   ar
   148    75    76    1
   149    95    93   ar
   150   164   165    2
   151    94    93   ar
   152    93    92    1
   153    92    91    1
   154    91    88    1
   155    87    88    1
   156    88    89    1
   157    89    90    2
