@<TRIPOS>MOLECULE
tmp/4retA04.pdb
 93 88 0 0 0
SMALL
GASTEIGER

@<TRIPOS>ATOM
      1  N        -28.7130  -19.5670   42.8930 N.3   263  HIS263     -0.1241
      2  CA       -30.1430  -19.3660   43.1230 C.3   263  HIS263      0.1621
      3  C        -30.6050  -20.0880   44.3890 C.2   263  HIS263      0.2264
      4  O        -31.3130  -19.5170   45.2290 O.2   263  HIS263     -0.2867
      5  CB       -30.9450  -19.8440   41.9090 C.3   263  HIS263      0.0745
      6  CG       -32.4280  -19.8410   42.1170 C.ar  263  HIS263      0.0817
      7  ND1      -33.1350  -20.9780   42.4460 N.ar  263  HIS263     -0.2268
      8  CD2      -33.3400  -18.8440   42.0300 C.ar  263  HIS263      0.1154
      9  CE1      -34.4170  -20.6810   42.5590 C.ar  263  HIS263      0.1986
     10  NE2      -34.5680  -19.3920   42.3140 N.ar  263  HIS263     -0.2212
     11  N        -29.7090  -18.2090   47.2970 N.3   266  HIS266     -0.1226
     12  CA       -30.6400  -17.0940   47.4480 C.3   266  HIS266      0.1752
     13  C        -31.9130  -17.5150   48.1800 C.2   266  HIS266      0.2595
     14  O        -32.3920  -16.8010   49.0660 O.2   266  HIS266     -0.2718
     15  CB       -30.9870  -16.4930   46.0880 C.3   266  HIS266      0.0759
     16  CG       -29.8710  -15.7050   45.4810 C.ar  266  HIS266      0.0818
     17  ND1      -29.9910  -15.0470   44.2760 N.ar  266  HIS266     -0.2268
     18  CD2      -28.6110  -15.4660   45.9170 C.ar  266  HIS266      0.1154
     19  CE1      -28.8540  -14.4380   43.9950 C.ar  266  HIS266      0.1986
     20  NE2      -27.9990  -14.6770   44.9740 N.ar  266  HIS266     -0.2212
     21  N        -32.4520  -18.6760   47.8230 N.am  267  ILE267     -0.1980
     22  CA       -33.6100  -19.2070   48.5370 C.3   267  ILE267      0.1595
     23  C        -33.2990  -19.3820   50.0270 C.2   267  ILE267      0.2287
     24  O        -33.9780  -18.8030   50.9000 O.2   267  ILE267     -0.2864
     25  CB       -34.0680  -20.5600   47.9550 C.3   267  ILE267      0.0276
     26  CG1      -34.4860  -20.4050   46.4920 C.3   267  ILE267      0.0022
     27  CG2      -35.2170  -21.1290   48.7660 C.3   267  ILE267      0.0022
     28  CD1      -35.6820  -19.5060   46.2910 C.3   267  ILE267      0.0001
     29  N        -32.7680  -16.4340   51.9470 N.3   270  GLY270     -0.1210
     30  CA       -34.0440  -15.7400   51.9760 C.3   270  GLY270      0.1956
     31  C        -34.8660  -16.1250   53.1920 C.2   270  GLY270      0.2611
     32  O        -35.2450  -15.2700   54.0130 O.2   270  GLY270     -0.2717
     33  N        -35.1200  -17.4210   53.3390 N.am  271  VAL271     -0.1979
     34  CA       -35.9010  -17.8620   54.4910 C.3   271  VAL271      0.1595
     35  C        -35.1130  -17.6710   55.7880 C.2   271  VAL271      0.2287
     36  O        -35.6990  -17.5020   56.8610 O.2   271  VAL271     -0.2864
     37  CB       -36.3430  -19.3310   54.3600 C.3   271  VAL271      0.0276
     38  CG1      -37.2270  -19.5010   53.1390 C.3   271  VAL271      0.0022
     39  CG2      -35.1450  -20.2570   54.2880 C.3   271  VAL271      0.0022
     40  N        -35.6060  -14.0760   56.7340 N.3   274  PHE274     -0.1241
     41  CA       -37.0090  -13.8800   57.0900 C.3   274  PHE274      0.1605
     42  C        -37.2880  -14.3820   58.5050 C.2   274  PHE274      0.2264
     43  O        -37.8480  -13.6550   59.3320 O.2   274  PHE274     -0.2867
     44  CB       -37.9440  -14.5740   56.1060 C.3   274  PHE274      0.0534
     45  CG       -39.3980  -14.3930   56.4400 C.ar  274  PHE274     -0.0203
     46  CD1      -40.0190  -13.1680   56.2450 C.ar  274  PHE274     -0.0042
     47  CD2      -40.1400  -15.4390   56.9610 C.ar  274  PHE274     -0.0042
     48  CE1      -41.3550  -12.9930   56.5550 C.ar  274  PHE274     -0.0003
     49  CE2      -41.4750  -15.2700   57.2720 C.ar  274  PHE274     -0.0003
     50  CZ       -42.0830  -14.0450   57.0680 C.ar  274  PHE274     -0.0000
     51  N        -34.4600  -21.0670   32.7720 N.3   812  LYS812     -0.1245
     52  CA       -35.3180  -20.0670   33.4030 C.3   812  LYS812      0.1561
     53  C        -36.4570  -20.7110   34.1930 C.2   812  LYS812      0.2260
     54  O        -36.7700  -20.2840   35.3040 O.2   812  LYS812     -0.2867
     55  CB       -35.8930  -19.1090   32.3530 C.3   812  LYS812      0.0271
     56  CG       -34.9820  -17.9420   31.9770 C.3   812  LYS812      0.0035
     57  CD       -33.7840  -18.3850   31.1500 C.3   812  LYS812      0.0206
     58  CE       -32.8790  -17.2100   30.8140 C.3   812  LYS812      0.1093
     59  NZ       -31.7040  -17.6310   30.0020 N.3   812  LYS812     -0.1314
     60  N        -35.8130  -25.4030   37.8360 N.3   815  LYS815     -0.1245
     61  CA       -34.7340  -25.0300   38.7380 C.3   815  LYS815      0.1561
     62  C        -34.2680  -26.2320   39.5460 C.2   815  LYS815      0.2260
     63  O        -34.9900  -27.2210   39.6800 O.2   815  LYS815     -0.2867
     64  CB       -35.1760  -23.9010   39.6710 C.3   815  LYS815      0.0271
     65  CG       -35.3180  -22.5430   38.9910 C.3   815  LYS815      0.0035
     66  CD       -33.9800  -22.0580   38.4420 C.3   815  LYS815      0.0206
     67  CE       -34.0950  -20.6830   37.7940 C.3   815  LYS815      0.1093
     68  NZ       -32.7710  -20.1840   37.3220 N.3   815  LYS815     -0.1314
     69  N        -36.2760  -25.1920   43.8500 N.3   818  ASN818     -0.1225
     70  CA       -37.3320  -24.2460   43.5110 C.3   818  ASN818      0.1785
     71  C        -38.3840  -24.1860   44.6180 C.2   818  ASN818      0.2597
     72  O        -38.1720  -24.7990   45.6560 O.2   818  ASN818     -0.2718
     73  CB       -37.9790  -24.6290   42.2040 C.3   818  ASN818      0.1169
     74  CG       -38.3950  -26.0660   42.1770 C.2   818  ASN818      0.2627
     75  OD1      -38.3950  -26.7640   43.1960 O.2   818  ASN818     -0.2716
     76  ND2      -38.7670  -26.5250   40.9990 N.am  818  ASN818     -0.0877
     77  N        -39.4730  -23.4500   44.3800 N.am  819  GLU819     -0.1979
     78  CA       -40.5290  -23.2480   45.3360 C.3   819  GLU819      0.1602
     79  C        -41.0440  -24.5500   45.9550 C.2   819  GLU819      0.2287
     80  O        -41.0050  -24.7260   47.1850 O.2   819  GLU819     -0.2864
     81  CB       -41.6070  -22.4880   44.6400 C.3   819  GLU819      0.0415
     82  CG       -41.2160  -21.1350   44.4290 C.3   819  GLU819      0.1163
     83  CD       -42.2600  -20.4610   43.6440 C.2   819  GLU819      0.3649
     84  OE1      -43.1050  -21.1320   43.0060 O.co2 819  GLU819     -0.2457
     85  OE2      -42.3600  -19.2030   43.6880 O.co2 819  GLU819     -0.2457
     86  N        -38.8590  -26.4420   48.6850 N.3   822  ILE822     -0.1245
     87  CA       -38.9030  -25.7640   49.9700 C.3   822  ILE822      0.1561
     88  C        -40.2480  -25.9860   50.6340 C.2   822  ILE822      0.2260
     89  O        -40.3320  -26.1990   51.8440 O.2   822  ILE822     -0.2867
     90  CB       -38.6540  -24.2580   49.8110 C.3   822  ILE822      0.0252
     91  CG1      -37.3790  -24.0260   49.0030 C.3   822  ILE822      0.0019
     92  CG2      -38.5560  -23.5850   51.1660 C.3   822  ILE822      0.0019
     93  CD1      -36.1510  -24.6450   49.6310 C.3   822  ILE822      0.0001
@<TRIPOS>BOND
     1    59    58    1
     2    58    57    1
     3    57    56    1
     4    56    55    1
     5    55    52    1
     6    51    52    1
     7    52    53    1
     8    53    54    2
     9    68    67    1
    10    67    66    1
    11    60    61    1
    12    66    65    1
    13    61    62    1
    14    61    64    1
    15    65    64    1
    16    62    63    2
    17    76    74   am
    18     5     6    1
    19     5     2    1
    20     8     6   ar
    21     8    10   ar
    22     6     7   ar
    23    74    73    1
    24    74    75    2
    25    73    70    1
    26    10     9   ar
    27     7     9   ar
    28     1     2    1
    29    84    83   ar
    30     2     3    1
    31    70    69    1
    32    70    71    1
    33    83    85   ar
    34    83    82    1
    35    19    17   ar
    36    19    20   ar
    37    17    16   ar
    38    77    71   am
    39    77    78    1
    40     3     4    2
    41    82    81    1
    42    71    72    2
    43    81    78    1
    44    20    18   ar
    45    78    79    1
    46    16    18   ar
    47    16    15    1
    48    79    80    2
    49    15    12    1
    50    28    26    1
    51    26    25    1
    52    11    12    1
    53    12    13    1
    54    21    13   am
    55    21    22    1
    56    25    22    1
    57    25    27    1
    58    13    14    2
    59    22    23    1
    60    86    87    1
    61    91    93    1
    62    91    90    1
    63    90    87    1
    64    90    92    1
    65    87    88    1
    66    23    24    2
    67    88    89    2
    68    29    30    1
    69    30    31    1
    70    38    37    1
    71    31    33   am
    72    31    32    2
    73    33    34    1
    74    39    37    1
    75    37    34    1
    76    34    35    1
    77    35    36    2
    78    44    45    1
    79    44    41    1
    80    46    45   ar
    81    46    48   ar
    82    45    47   ar
    83    48    50   ar
    84    40    41    1
    85    47    49   ar
    86    50    49   ar
    87    41    42    1
    88    42    43    2
