@<TRIPOS>MOLECULE
tmp/4reuA00.pdb
 86 82 0 0 0
SMALL
GASTEIGER

@<TRIPOS>ATOM
      1  N         24.6850   59.9940   42.8290 N.3    11  GLU11      -0.1196
      2  CA        23.6410   59.1680   42.2210 C.3    11  GLU11       0.1783
      3  C         23.8580   59.0620   40.6880 C.2    11  GLU11       0.2306
      4  O         23.7650   57.9870   40.1170 O.2    11  GLU11      -0.2863
      5  CB        22.2380   59.7580   42.4780 C.2    11  GLU11       0.0071
      6  CG        21.6280   59.5830   43.8740 C.2    11  GLU11       0.0834
      7  CD        20.2680   60.3310   44.1180 C.2    11  GLU11       0.3877
      8  OE1       19.8270   60.3630   45.3110 O.co2  11  GLU11      -0.2406
      9  OE2       19.6210   60.8750   43.1540 O.co2  11  GLU11      -0.2406
     10  N         26.8040   56.9620   39.6050 N.3    14  ASN14      -0.1225
     11  CA        26.4350   55.5690   39.7440 C.3    14  ASN14       0.1785
     12  C         25.5290   55.1620   38.5720 C.2    14  ASN14       0.2597
     13  O         25.6460   54.0560   38.0500 O.2    14  ASN14      -0.2718
     14  CB        25.7920   55.2920   41.1040 C.3    14  ASN14       0.1169
     15  CG        26.8310   55.0990   42.2370 C.2    14  ASN14       0.2627
     16  OD1       27.3960   53.9960   42.4150 O.2    14  ASN14      -0.2716
     17  ND2       27.0610   56.1540   43.0280 N.am   14  ASN14      -0.0877
     18  N         24.6240   56.0320   38.1380 N.am   15  LEU15      -0.1980
     19  CA        23.7500   55.6540   37.0370 C.3    15  LEU15       0.1596
     20  C         24.5610   55.4070   35.7410 C.2    15  LEU15       0.2287
     21  O         24.2720   54.4890   34.9730 O.2    15  LEU15      -0.2864
     22  CB        22.6700   56.7010   36.8220 C.3    15  LEU15       0.0297
     23  CG        21.6710   56.4230   35.6860 C.3    15  LEU15       0.0022
     24  CD1       20.9010   55.1250   35.9310 C.3    15  LEU15       0.0001
     25  CD2       20.7270   57.6140   35.5800 C.3    15  LEU15       0.0001
     26  N         26.3020   52.0170   35.9850 N.3    18  TYR18      -0.1241
     27  CA        25.2890   51.0180   35.7160 C.3    18  TYR18       0.1605
     28  C         25.0010   50.8860   34.2310 C.2    18  TYR18       0.2264
     29  O         24.7520   49.7830   33.7270 O.2    18  TYR18      -0.2867
     30  CB        23.9800   51.3470   36.4800 C.3    18  TYR18       0.0534
     31  CG        22.8570   50.4440   36.0560 C.ar   18  TYR18      -0.0201
     32  CD1       22.7970   49.1350   36.4960 C.ar   18  TYR18      -0.0009
     33  CD2       21.8930   50.8780   35.1180 C.ar   18  TYR18      -0.0009
     34  CE1       21.7830   48.2930   36.0770 C.ar   18  TYR18       0.0417
     35  CE2       20.8710   50.0420   34.6830 C.ar   18  TYR18       0.0417
     36  CZ        20.8270   48.7500   35.1630 C.ar   18  TYR18       0.1957
     37  OH        19.8220   47.9210   34.7580 O.3    18  TYR18      -0.2866
     38  N         28.2300   52.8760   44.6850 N.3    70  ASN70      -0.1225
     39  CA        27.2710   52.0560   45.3970 C.3    70  ASN70       0.1785
     40  C         27.1430   50.6590   44.8100 C.2    70  ASN70       0.2598
     41  O         27.7770   50.3190   43.8110 O.2    70  ASN70      -0.2718
     42  CB        25.9190   52.7690   45.3740 C.3    70  ASN70       0.1169
     43  CG        25.9610   54.0920   46.1160 C.2    70  ASN70       0.2627
     44  OD1       26.5370   54.1950   47.2260 O.2    70  ASN70      -0.2716
     45  ND2       25.3780   55.1130   45.5160 N.am   70  ASN70      -0.0877
     46  N         26.3340   49.8390   45.4310 N.am   71  THR71      -0.1939
     47  CA        26.0100   48.5440   44.8690 C.3    71  THR71       0.2028
     48  C         25.3780   48.7700   43.5130 C.2    71  THR71       0.2642
     49  O         24.5540   49.6170   43.3910 O.2    71  THR71      -0.2714
     50  CB        24.9930   47.8220   45.7520 C.3    71  THR71       0.1808
     51  OG1       25.5540   47.6380   47.0620 O.3    71  THR71      -0.2208
     52  CG2       24.5800   46.4620   45.1540 C.3    71  THR71       0.0379
     53  N         25.7830   48.0120   42.5060 N.am   72  VAL72      -0.1963
     54  CA        25.1640   48.0330   41.1980 C.3    72  VAL72       0.1727
     55  C         24.2540   46.8240   41.1120 C.2    72  VAL72       0.2616
     56  O         24.7340   45.6910   41.2910 O.2    72  VAL72      -0.2715
     57  CB        26.1950   47.8150   40.0660 C.3    72  VAL72       0.0290
     58  CG1       25.6120   48.1920   38.7080 C.3    72  VAL72       0.0023
     59  CG2       27.5010   48.5660   40.3260 C.3    72  VAL72       0.0023
     60  N         22.9640   47.0680   40.8320 N.am   73  GLU73      -0.1977
     61  CA        22.0170   46.0430   40.3800 C.3    73  GLU73       0.1602
     62  C         22.5500   45.3210   39.1370 C.2    73  GLU73       0.2287
     63  O         23.1170   45.9450   38.2380 O.2    73  GLU73      -0.2864
     64  CB        20.6920   46.6530   39.9400 C.3    73  GLU73       0.0415
     65  CG        19.8330   47.2690   41.0210 C.3    73  GLU73       0.1163
     66  CD        18.3700   47.3810   40.6060 C.2    73  GLU73       0.3649
     67  OE1       17.9720   46.6410   39.6810 O.co2  73  GLU73      -0.2457
     68  OE2       17.6220   48.1900   41.2180 O.co2  73  GLU73      -0.2457
     69  N         16.3190   53.8180   28.2820 N.3    92  HIS92      -0.1241
     70  CA        17.2950   54.0030   29.3230 C.3    92  HIS92       0.1621
     71  C         17.9800   55.3350   29.1130 C.2    92  HIS92       0.2264
     72  O         18.0750   56.1290   30.0270 O.2    92  HIS92      -0.2867
     73  CB        18.2450   52.8180   29.4150 C.3    92  HIS92       0.0745
     74  CG        19.1960   52.9110   30.5660 C.ar   92  HIS92       0.0817
     75  ND1       18.8210   52.6490   31.8660 N.ar   92  HIS92      -0.2268
     76  CD2       20.4940   53.2970   30.6180 C.ar   92  HIS92       0.1154
     77  CE1       19.8590   52.8400   32.6630 C.ar   92  HIS92       0.1986
     78  NE2       20.8870   53.2350   31.9310 N.ar   92  HIS92      -0.2212
     79  N         15.8020   58.0780   30.4490 N.3    95  LEU95      -0.1245
     80  CA        15.9240   58.2140   31.8850 C.3    95  LEU95       0.1561
     81  C         17.1780   59.0220   32.2740 C.2    95  LEU95       0.2260
     82  O         17.1250   59.8700   33.1600 O.2    95  LEU95      -0.2867
     83  CB        15.9630   56.8370   32.5430 C.3    95  LEU95       0.0270
     84  CG        16.2220   56.8640   34.0530 C.3    95  LEU95       0.0019
     85  CD1       14.9800   57.3140   34.8140 C.3    95  LEU95       0.0001
     86  CD2       16.6850   55.5120   34.5860 C.3    95  LEU95       0.0001
@<TRIPOS>BOND
     1    69    70    1
     2    71    70    1
     3    71    72    2
     4    70    73    1
     5    73    74    1
     6    79    80    1
     7    74    76   ar
     8    74    75   ar
     9    76    78   ar
    10    75    77   ar
    11    80    81    1
    12    80    83    1
    13    78    77   ar
    14    81    82    2
    15    83    84    1
    16    29    28    2
    17    84    86    1
    18    84    85    1
    19    28    27    1
    20    35    33   ar
    21    35    36   ar
    22    37    36    1
    23    21    20    2
    24    33    31   ar
    25    36    34   ar
    26    25    23    1
    27    23    24    1
    28    23    22    1
    29    27    26    1
    30    27    30    1
    31    20    19    1
    32    31    30    1
    33    31    32   ar
    34    34    32   ar
    35    22    19    1
    36    19    18    1
    37    13    12    2
    38    18    12   am
    39    63    62    2
    40    12    11    1
    41    58    57    1
    42    62    61    1
    43    10    11    1
    44    67    66   ar
    45    11    14    1
    46    64    61    1
    47    64    65    1
    48    57    59    1
    49    57    54    1
    50     4     3    2
    51    61    60    1
    52    66    65    1
    53    66    68   ar
    54     3     2    1
    55    60    55   am
    56    14    15    1
    57    55    54    1
    58    55    56    2
    59    54    53    1
    60     2     5    1
    61     2     1    1
    62    15    16    2
    63    15    17   am
    64     5     6    2
    65    53    48   am
    66     9     7   ar
    67    49    48    2
    68    48    47    1
    69    41    40    2
    70     6     7    1
    71     7     8   ar
    72    38    39    1
    73    40    39    1
    74    40    46   am
    75    47    46    1
    76    47    50    1
    77    52    50    1
    78    42    39    1
    79    42    43    1
    80    45    43   am
    81    50    51    1
    82    43    44    2
