@<TRIPOS>MOLECULE
tmp/4rewC01.pdb
 152 145 0 0 0
SMALL
GASTEIGER

@<TRIPOS>ATOM
      1  N         46.3350  -16.9750   -9.6460 N.3    46  ARG46      -0.1245
      2  CA        45.4570  -16.0940  -10.4090 C.3    46  ARG46       0.1563
      3  C         44.1820  -15.7350   -9.6410 C.2    46  ARG46       0.2260
      4  O         43.3300  -15.0020  -10.1450 O.2    46  ARG46      -0.2867
      5  CB        45.1010  -16.7450  -11.7470 C.3    46  ARG46       0.0307
      6  CG        44.5460  -18.1530  -11.6180 C.3    46  ARG46       0.0489
      7  CD        44.3360  -18.7920  -12.9800 C.3    46  ARG46       0.2205
      8  NE        43.4290  -18.0100  -13.8100 N.pl3  46  ARG46      -0.0865
      9  CZ        42.9310  -18.4200  -14.9720 C.cat  46  ARG46       0.5346
     10  NH1       43.2420  -19.6210  -15.4380 N.pl3  46  ARG46       0.1354
     11  NH2       42.1060  -17.6370  -15.6570 N.pl3  46  ARG46       0.1354
     12  N         40.1150  -26.9940  -14.3970 N.3   146  LYS146     -0.1245
     13  CA        41.2720  -27.7810  -14.8100 C.3   146  LYS146      0.1561
     14  C         41.5660  -28.8790  -13.7990 C.2   146  LYS146      0.2260
     15  O         41.8160  -30.0280  -14.1650 O.2   146  LYS146     -0.2867
     16  CB        42.4970  -26.8800  -14.9730 C.3   146  LYS146      0.0271
     17  CG        42.1770  -25.4950  -15.5140 C.3   146  LYS146      0.0035
     18  CD        43.3340  -24.5310  -15.2940 C.3   146  LYS146      0.0206
     19  CE        44.5180  -24.8770  -16.1750 C.3   146  LYS146      0.1093
     20  NZ        44.1860  -24.7230  -17.6190 N.3   146  LYS146     -0.1314
     21  N         36.2140  -16.7610  -21.4410 N.3   202  SER202     -0.1217
     22  CA        37.5160  -16.7250  -20.7760 C.3   202  SER202      0.1889
     23  C         38.6910  -16.6290  -21.7450 C.2   202  SER202      0.2288
     24  O         39.8390  -16.5420  -21.3110 O.2   202  SER202     -0.2866
     25  CB        37.7010  -17.9580  -19.8920 C.3   202  SER202      0.2089
     26  OG        37.7840  -19.1350  -20.6760 O.3   202  SER202     -0.2183
     27  N         46.0210  -17.3310  -29.4110 N.3   216  ILE216     -0.1245
     28  CA        44.8420  -17.2090  -28.5680 C.3   216  ILE216      0.1561
     29  C         45.1240  -16.2740  -27.3970 C.2   216  ILE216      0.2260
     30  O         46.1970  -16.3290  -26.7940 O.2   216  ILE216     -0.2867
     31  CB        44.3800  -18.5860  -28.0390 C.3   216  ILE216      0.0252
     32  CG1       43.2220  -18.4250  -27.0540 C.3   216  ILE216      0.0019
     33  CG2       45.5360  -19.3300  -27.3870 C.3   216  ILE216      0.0019
     34  CD1       42.7870  -19.7170  -26.4090 C.3   216  ILE216      0.0001
     35  N         43.8970  -15.5470  -23.8080 N.3   218  SER218     -0.1217
     36  CA        43.1170  -16.0060  -22.6610 C.3   218  SER218      0.1889
     37  C         42.9940  -14.9290  -21.5920 C.2   218  SER218      0.2288
     38  O         43.8820  -14.0910  -21.4460 O.2   218  SER218     -0.2866
     39  CB        43.7260  -17.2750  -22.0630 C.3   218  SER218      0.2089
     40  OG        42.9650  -17.7390  -20.9600 O.3   218  SER218     -0.2183
     41  N         43.5940  -15.1670  -18.7550 N.3   220  PHE220     -0.1227
     42  CA        44.7930  -15.2720  -17.9450 C.3   220  PHE220      0.1736
     43  C         45.9800  -14.5420  -18.5760 C.2   220  PHE220      0.2595
     44  O         46.8820  -14.0940  -17.8710 O.2   220  PHE220     -0.2718
     45  CB        45.1490  -16.7400  -17.7110 C.3   220  PHE220      0.0547
     46  CG        46.4450  -16.9280  -16.9920 C.ar  220  PHE220     -0.0202
     47  CD1       46.5070  -16.8110  -15.6130 C.ar  220  PHE220     -0.0042
     48  CD2       47.6070  -17.1920  -17.6950 C.ar  220  PHE220     -0.0042
     49  CE1       47.7020  -16.9680  -14.9480 C.ar  220  PHE220     -0.0003
     50  CE2       48.8000  -17.3490  -17.0390 C.ar  220  PHE220     -0.0003
     51  CZ        48.8510  -17.2320  -15.6620 C.ar  220  PHE220     -0.0000
     52  N         45.9860  -14.4240  -19.9000 N.am  221  ASP221     -0.1974
     53  CA        47.1110  -13.7950  -20.5910 C.3   221  ASP221      0.1709
     54  C         47.2600  -12.3150  -20.2430 C.2   221  ASP221      0.2293
     55  O         48.3540  -11.7580  -20.3430 O.2   221  ASP221     -0.2864
     56  CB        46.9730  -13.9500  -22.1090 C.3   221  ASP221      0.1436
     57  CG        47.3280  -15.3420  -22.5900 C.2   221  ASP221      0.3671
     58  OD1       48.5290  -15.6890  -22.5840 O.co2 221  ASP221     -0.2456
     59  OD2       46.4110  -16.0860  -22.9900 O.co2 221  ASP221     -0.2456
     60  N         55.7420  -14.2530  -24.7690 N.3   245  ARG245     -0.1245
     61  CA        55.8630  -15.7020  -24.6560 C.3   245  ARG245      0.1563
     62  C         56.0510  -16.3640  -26.0160 C.2   245  ARG245      0.2260
     63  O         56.2090  -17.5830  -26.0980 O.2   245  ARG245     -0.2867
     64  CB        54.6300  -16.2840  -23.9590 C.3   245  ARG245      0.0307
     65  CG        53.3270  -16.0590  -24.7160 C.3   245  ARG245      0.0489
     66  CD        52.8760  -17.3180  -25.4430 C.3   245  ARG245      0.2205
     67  NE        51.7140  -17.0820  -26.2970 N.pl3 245  ARG245     -0.0865
     68  CZ        50.4620  -17.0230  -25.8550 C.cat 245  ARG245      0.5346
     69  NH1       50.2060  -17.1690  -24.5620 N.pl3 245  ARG245      0.1354
     70  NH2       49.4660  -16.8100  -26.7030 N.pl3 245  ARG245      0.1354
     71  N         55.8950  -20.8700  -26.3310 N.3   249  PHE249     -0.1241
     72  CA        54.7810  -21.7460  -26.7250 C.3   249  PHE249      0.1605
     73  C         54.9950  -22.5250  -28.0330 C.2   249  PHE249      0.2264
     74  O         55.6780  -22.0680  -28.9510 O.2   249  PHE249     -0.2867
     75  CB        53.4850  -20.9280  -26.8370 C.3   249  PHE249      0.0534
     76  CG        53.3200  -20.2000  -28.1500 C.ar  249  PHE249     -0.0203
     77  CD1       54.3160  -19.3690  -28.6420 C.ar  249  PHE249     -0.0042
     78  CD2       52.1520  -20.3440  -28.8850 C.ar  249  PHE249     -0.0042
     79  CE1       54.1520  -18.7040  -29.8450 C.ar  249  PHE249     -0.0003
     80  CE2       51.9830  -19.6800  -30.0850 C.ar  249  PHE249     -0.0003
     81  CZ        52.9840  -18.8590  -30.5640 C.ar  249  PHE249     -0.0000
     82  N         52.3230  -23.8190  -29.9940 N.3   251  GLY251     -0.1210
     83  CA        51.3050  -23.4330  -30.9550 C.3   251  GLY251      0.1956
     84  C         49.9490  -23.3020  -30.2920 C.2   251  GLY251      0.2612
     85  O         49.8600  -23.2150  -29.0690 O.2   251  GLY251     -0.2717
     86  N         48.8890  -23.2910  -31.0930 N.am  252  VAL252     -0.1965
     87  CA        47.5470  -23.1650  -30.5420 C.3   252  VAL252      0.1727
     88  C         46.8410  -24.5150  -30.4460 C.2   252  VAL252      0.2616
     89  O         46.5680  -25.1730  -31.4510 O.2   252  VAL252     -0.2715
     90  CB        46.7050  -22.1770  -31.3650 C.3   252  VAL252      0.0290
     91  CG1       47.2680  -20.8100  -31.1910 C.3   252  VAL252      0.0023
     92  CG2       46.7030  -22.5420  -32.8430 C.3   252  VAL252      0.0023
     93  N         46.5740  -24.9330  -29.2130 N.am  253  LEU253     -0.1977
     94  CA        45.8800  -26.1890  -28.9690 C.3   253  LEU253      0.1596
     95  C         44.5010  -26.1490  -29.6050 C.2   253  LEU253      0.2287
     96  O         43.7560  -25.1820  -29.4370 O.2   253  LEU253     -0.2864
     97  CB        45.7660  -26.4740  -27.4690 C.3   253  LEU253      0.0297
     98  CG        46.9560  -27.1330  -26.7680 C.3   253  LEU253      0.0022
     99  CD1       47.5040  -28.2880  -27.6000 C.3   253  LEU253      0.0001
    100  CD2       48.0430  -26.1170  -26.4520 C.3   253  LEU253      0.0001
    101  N         46.8680  -29.0600  -20.1920 N.3   272  GLU272     -0.1231
    102  CA        46.5430  -28.2710  -19.0070 C.3   272  GLU272      0.1699
    103  C         46.0390  -26.8730  -19.3630 C.2   272  GLU272      0.2592
    104  O         46.2780  -25.9170  -18.6280 O.2   272  GLU272     -0.2718
    105  CB        47.7560  -28.1780  -18.0700 C.3   272  GLU272      0.0402
    106  CG        48.3600  -29.5300  -17.7000 C.3   272  GLU272      0.1161
    107  CD        49.1200  -29.5000  -16.3860 C.2   272  GLU272      0.3649
    108  OE1       50.3130  -29.8730  -16.3780 O.co2 272  GLU272     -0.2457
    109  OE2       48.5200  -29.1150  -15.3600 O.co2 272  GLU272     -0.2457
    110  N         45.3400  -26.7580  -20.4890 N.am  273  VAL273     -0.1966
    111  CA        44.7030  -25.4980  -20.8570 C.3   273  VAL273      0.1727
    112  C         43.2170  -25.5500  -20.5010 C.2   273  VAL273      0.2616
    113  O         42.7240  -26.5800  -20.0430 O.2   273  VAL273     -0.2715
    114  CB        44.8740  -25.1900  -22.3560 C.3   273  VAL273      0.0290
    115  CG1       46.3480  -25.1040  -22.7150 C.3   273  VAL273      0.0023
    116  CG2       44.1960  -26.2500  -23.1930 C.3   273  VAL273      0.0023
    117  N         42.5070  -24.4410  -20.6960 N.am  274  HIS274     -0.1959
    118  CA        41.0870  -24.3830  -20.3500 C.3   274  HIS274      0.1787
    119  C         40.1440  -24.6700  -21.5210 C.2   274  HIS274      0.2620
    120  O         38.9430  -24.8440  -21.3160 O.2   274  HIS274     -0.2715
    121  CB        40.7540  -23.0160  -19.7480 C.3   274  HIS274      0.0785
    122  CG        39.3810  -22.9210  -19.1550 C.ar  274  HIS274      0.0821
    123  ND1       39.0730  -23.4160  -17.9070 N.ar  274  HIS274     -0.2267
    124  CD2       38.2380  -22.3740  -19.6350 C.ar  274  HIS274      0.1154
    125  CE1       37.7980  -23.1870  -17.6470 C.ar  274  HIS274      0.1986
    126  NE2       37.2690  -22.5560  -18.6800 N.ar  274  HIS274     -0.2212
    127  N         40.6690  -24.7280  -22.7430 N.am  275  ARG275     -0.1963
    128  CA        39.8050  -24.9780  -23.8960 C.3   275  ARG275      0.1729
    129  C         40.5550  -25.3310  -25.1770 C.2   275  ARG275      0.2616
    130  O         41.7830  -25.3320  -25.2140 O.2   275  ARG275     -0.2715
    131  CB        38.9070  -23.7590  -24.1500 C.3   275  ARG275      0.0348
    132  CG        39.4160  -22.7470  -25.1630 C.3   275  ARG275      0.0492
    133  CD        40.6750  -22.0150  -24.7100 C.3   275  ARG275      0.2205
    134  NE        40.6750  -21.5730  -23.3150 N.pl3 275  ARG275     -0.0865
    135  CZ        39.7630  -20.7820  -22.7520 C.cat 275  ARG275      0.5346
    136  NH1       38.7170  -20.3400  -23.4390 N.pl3 275  ARG275      0.1354
    137  NH2       39.8900  -20.4410  -21.4790 N.pl3 275  ARG275      0.1354
    138  N         39.7920  -25.6270  -26.2260 N.am  276  LEU276     -0.1963
    139  CA        40.3360  -25.9330  -27.5440 C.3   276  LEU276      0.1728
    140  C         39.4690  -25.2920  -28.6260 C.2   276  LEU276      0.2616
    141  O         38.2510  -25.1940  -28.4710 O.2   276  LEU276     -0.2715
    142  CB        40.4130  -27.4460  -27.7560 C.3   276  LEU276      0.0311
    143  CG        41.2110  -28.2410  -26.7220 C.3   276  LEU276      0.0022
    144  CD1       40.8210  -29.7040  -26.7400 C.3   276  LEU276      0.0001
    145  CD2       42.6950  -28.0920  -26.9680 C.3   276  LEU276      0.0001
    146  N         40.0880  -24.8560  -29.7180 N.am  277  VAL277     -0.1977
    147  CA        39.3380  -24.2280  -30.8010 C.3   277  VAL277      0.1596
    148  C         39.1570  -25.2030  -31.9740 C.2   277  VAL277      0.2287
    149  O         40.1100  -25.5670  -32.6520 O.2   277  VAL277     -0.2864
    150  CB        40.0250  -22.9080  -31.2720 C.3   277  VAL277      0.0276
    151  CG1       40.0010  -21.8770  -30.1590 C.3   277  VAL277      0.0022
    152  CG2       41.4670  -23.1400  -31.7070 C.3   277  VAL277      0.0022
@<TRIPOS>BOND
     1    92    90    1
     2   149   148    2
     3   148   147    1
     4   152   150    1
     5    89    88    2
     6    90    91    1
     7    90    87    1
     8   150   147    1
     9   150   151    1
    10    86    87    1
    11    86    84   am
    12    83    84    1
    13    83    82    1
    14   147   146    1
    15    81    80   ar
    16    81    79   ar
    17    87    88    1
    18    88    93   am
    19    84    85    2
    20    80    78   ar
    21    79    77   ar
    22   146   140   am
    23    95    96    2
    24    95    94    1
    25    27    28    1
    26    93    94    1
    27    94    97    1
    28    74    73    2
    29    78    76   ar
    30    77    76   ar
    31   140   141    2
    32   140   139    1
    33    28    31    1
    34    28    29    1
    35    76    75    1
    36    31    33    1
    37    31    32    1
    38    73    72    1
    39   142   139    1
    40   142   143    1
    41    99    98    1
    42   139   138    1
    43    97    98    1
    44    29    30    2
    45    32    34    1
    46   145   143    1
    47    75    72    1
    48    98   100    1
    49   144   143    1
    50    72    71    1
    51    70    68    1
    52    67    68    2
    53    67    66    1
    54   138   129   am
    55    63    62    2
    56    62    61    1
    57    68    69    1
    58    66    65    1
    59   130   129    2
    60   129   128    1
    61   132   133    1
    62   132   131    1
    63    60    61    1
    64    65    64    1
    65   133   134    1
    66    61    64    1
    67   131   128    1
    68   128   127    1
    69    35    36    1
    70   136   135    1
    71   134   135    2
    72   116   114    1
    73    59    57   ar
    74   135   137    1
    75   127   119   am
    76   115   114    1
    77    36    39    1
    78    36    37    1
    79    57    58   ar
    80    57    56    1
    81   114   111    1
    82    56    53    1
    83    39    40    1
    84    23    24    2
    85    23    22    1
    86    37    38    2
    87   119   120    2
    88   119   118    1
    89    21    22    1
    90   111   112    1
    91   111   110    1
    92    22    25    1
    93   117   112   am
    94   117   118    1
    95    26    25    1
    96    53    54    1
    97    53    52    1
    98   112   113    2
    99   110   103   am
   100   118   121    1
   101    55    54    2
   102   101   102    1
   103    52    43   am
   104   121   122    1
   105   124   122   ar
   106   124   126   ar
   107   103   102    1
   108   103   104    2
   109   122   123   ar
   110   102   105    1
   111    41    42    1
   112   126   125   ar
   113    43    42    1
   114    43    44    2
   115   105   106    1
   116    42    45    1
   117   123   125   ar
   118    45    46    1
   119   106   107    1
   120    48    50   ar
   121    48    46   ar
   122    20    19    1
   123    50    51   ar
   124    46    47   ar
   125   107   108   ar
   126   107   109   ar
   127    19    18    1
   128    51    49   ar
   129    11     9    1
   130    47    49   ar
   131    17    18    1
   132    17    16    1
   133    10     9    1
   134    16    13    1
   135     9     8    2
   136    13    12    1
   137    13    14    1
   138    15    14    2
   139     8     7    1
   140     7     6    1
   141     5     6    1
   142     5     2    1
   143     2     1    1
   144     2     3    1
   145     4     3    2
