@<TRIPOS>MOLECULE
tmp/4rewA00.pdb
 176 169 0 0 0
SMALL
GASTEIGER

@<TRIPOS>ATOM
      1  N         64.3480  -62.0460   31.4280 N.3    14  LEU14      -0.1231
      2  CA        65.1050  -61.7450   30.2130 C.3    14  LEU14       0.1696
      3  C         66.1790  -60.6620   30.3830 C.2    14  LEU14       0.2632
      4  O         67.2840  -60.8030   29.8600 O.2    14  LEU14      -0.2714
      5  CB        64.1500  -61.3380   29.0890 C.3    14  LEU14       0.0284
      6  CG        63.3290  -62.4540   28.4440 C.3    14  LEU14       0.0019
      7  CD1       62.3350  -61.8810   27.4440 C.3    14  LEU14       0.0001
      8  CD2       64.2460  -63.4620   27.7720 C.3    14  LEU14       0.0001
      9  N         65.8610  -59.5840   31.0970 N.am   15  GLY15      -0.1718
     10  CA        66.8040  -58.4840   31.2430 C.2    15  GLY15       0.1480
     11  C         66.3770  -57.3690   32.1830 C.2    15  GLY15       0.2820
     12  O         65.3120  -57.4400   32.7940 O.2    15  GLY15      -0.2669
     13  N         67.2260  -56.3490   32.3140 N.am   16  VAL16      -0.1929
     14  CA        66.9490  -55.2070   33.1900 C.3    16  VAL16       0.1730
     15  C         66.0490  -54.1450   32.5460 C.2    16  VAL16       0.2616
     16  O         65.1610  -53.5970   33.2000 O.2    16  VAL16      -0.2715
     17  CB        68.2630  -54.5330   33.6730 C.3    16  VAL16       0.0290
     18  CG1       69.0580  -55.4890   34.5510 C.3    16  VAL16       0.0023
     19  CG2       69.1120  -54.0580   32.4990 C.3    16  VAL16       0.0023
     20  N         66.2850  -53.8500   31.2720 N.am   17  GLY17      -0.1955
     21  CA        65.4760  -52.8890   30.5440 C.3    17  GLY17       0.1869
     22  C         65.7550  -51.4410   30.8830 C.2    17  GLY17       0.2309
     23  O         66.7250  -51.1210   31.5710 O.2    17  GLY17      -0.2863
     24  N         62.2530  -57.2760   32.4340 N.3    22  VAL22      -0.1245
     25  CA        61.3500  -58.0520   31.5870 C.3    22  VAL22       0.1561
     26  C         61.5110  -59.5540   31.8290 C.2    22  VAL22       0.2260
     27  O         62.6190  -60.0400   32.0590 O.2    22  VAL22      -0.2867
     28  CB        61.5770  -57.7480   30.0900 C.3    22  VAL22       0.0252
     29  CG1       61.3130  -56.2910   29.8030 C.3    22  VAL22       0.0019
     30  CG2       62.9890  -58.0940   29.6840 C.3    22  VAL22       0.0019
     31  N         56.9310  -61.8900   26.0430 N.3    35  ALA35      -0.1245
     32  CA        57.8260  -61.1130   26.8900 C.3    35  ALA35       0.1562
     33  C         57.0690  -60.0010   27.6030 C.2    35  ALA35       0.2260
     34  O         56.5450  -59.0860   26.9660 O.2    35  ALA35      -0.2867
     35  CB        58.9610  -60.5390   26.0720 C.3    35  ALA35       0.0290
     36  N         57.0570  -56.8450   30.2750 N.3    37  LYS37      -0.1245
     37  CA        57.8900  -55.8500   30.9370 C.3    37  LYS37       0.1561
     38  C         57.2450  -55.4390   32.2510 C.2    37  LYS37       0.2260
     39  O         56.1210  -54.9400   32.2700 O.2    37  LYS37      -0.2867
     40  CB        58.1080  -54.6290   30.0390 C.3    37  LYS37       0.0271
     41  CG        59.1510  -53.6520   30.5680 C.3    37  LYS37       0.0035
     42  CD        59.4820  -52.5730   29.5490 C.3    37  LYS37       0.0206
     43  CE        60.6030  -51.6680   30.0430 C.3    37  LYS37       0.1093
     44  NZ        60.8980  -50.5710   29.0790 N.3    37  LYS37      -0.1314
     45  N         58.6770  -54.7210   17.7560 N.3    69  ILE69      -0.1245
     46  CA        58.1070  -55.6090   18.7600 C.3    69  ILE69       0.1561
     47  C         56.6750  -55.1650   19.0180 C.2    69  ILE69       0.2260
     48  O         56.4240  -54.0340   19.4370 O.2    69  ILE69      -0.2867
     49  CB        58.9200  -55.6010   20.0700 C.3    69  ILE69       0.0252
     50  CG1       60.1920  -56.4380   19.9160 C.3    69  ILE69       0.0019
     51  CG2       58.0940  -56.1470   21.2160 C.3    69  ILE69       0.0019
     52  CD1       59.9380  -57.9130   19.7080 C.3    69  ILE69       0.0001
     53  N         54.4640  -58.6380   25.2180 N.3    85  MET85      -0.1230
     54  CA        55.0050  -58.3730   23.8900 C.3    85  MET85       0.1702
     55  C         55.4440  -59.6630   23.2120 C.2    85  MET85       0.2592
     56  O         55.5790  -60.6970   23.8660 O.2    85  MET85      -0.2718
     57  CB        56.1800  -57.3990   23.9780 C.3    85  MET85       0.0401
     58  CG        55.7910  -55.9860   24.3770 C.3    85  MET85       0.0596
     59  SD        57.2130  -54.9560   24.7820 S.3    85  MET85      -0.1393
     60  CE        57.9460  -55.9140   26.1030 C.3    85  MET85       0.0692
     61  N         55.6780  -59.5970   21.9050 N.am   86  GLU86      -0.1966
     62  CA        56.0890  -60.7770   21.1520 C.3    86  GLU86       0.1733
     63  C         57.4940  -61.2100   21.5520 C.2    86  GLU86       0.2616
     64  O         58.4460  -60.4330   21.4670 O.2    86  GLU86      -0.2715
     65  CB        56.0280  -60.5120   19.6440 C.3    86  GLU86       0.0429
     66  CG        56.5890  -59.1700   19.2130 C.3    86  GLU86       0.1163
     67  CD        56.7350  -59.0510   17.7070 C.2    86  GLU86       0.3649
     68  OE1       55.7230  -58.7930   17.0220 O.co2  86  GLU86      -0.2457
     69  OE2       57.8660  -59.2170   17.2070 O.co2  86  GLU86      -0.2457
     70  N         57.6170  -62.4590   21.9840 N.am   87  TYR87      -0.1960
     71  CA        58.9070  -62.9920   22.3990 C.3    87  TYR87       0.1771
     72  C         59.6600  -63.5880   21.2160 C.2    87  TYR87       0.2619
     73  O         59.0890  -64.3170   20.4030 O.2    87  TYR87      -0.2715
     74  CB        58.7340  -64.0440   23.4950 C.3    87  TYR87       0.0574
     75  CG        59.9860  -64.8520   23.7490 C.ar   87  TYR87      -0.0198
     76  CD1       61.0240  -64.3390   24.5160 C.ar   87  TYR87      -0.0009
     77  CD2       60.1340  -66.1260   23.2150 C.ar   87  TYR87      -0.0009
     78  CE1       62.1740  -65.0750   24.7460 C.ar   87  TYR87       0.0417
     79  CE2       61.2780  -66.8680   23.4370 C.ar   87  TYR87       0.0417
     80  CZ        62.2950  -66.3390   24.2030 C.ar   87  TYR87       0.1957
     81  OH        63.4350  -67.0800   24.4240 O.3    87  TYR87      -0.2866
     82  N         60.9470  -63.2680   21.1300 N.am   88  VAL88      -0.1963
     83  CA        61.8090  -63.7940   20.0820 C.3    88  VAL88       0.1727
     84  C         63.1370  -64.2560   20.6810 C.2    88  VAL88       0.2617
     85  O         63.6490  -63.6430   21.6170 O.2    88  VAL88      -0.2715
     86  CB        62.0620  -62.7430   18.9830 C.3    88  VAL88       0.0290
     87  CG1       60.7620  -62.3910   18.2730 C.3    88  VAL88       0.0023
     88  CG2       62.6950  -61.4980   19.5700 C.3    88  VAL88       0.0023
     89  N         63.6900  -65.3390   20.1460 N.am   89  SER89      -0.1936
     90  CA        64.9200  -65.9160   20.6850 C.3    89  SER89       0.2055
     91  C         66.0930  -65.6730   19.7440 C.2    89  SER89       0.2644
     92  O         65.9160  -65.6290   18.5290 O.2    89  SER89      -0.2714
     93  CB        64.7480  -67.4140   20.9390 C.3    89  SER89       0.2130
     94  OG        64.3570  -68.0900   19.7560 O.3    89  SER89      -0.2179
     95  N         67.2990  -65.5860   20.3000 N.am   90  GLY90      -0.1939
     96  CA        68.4350  -65.0520   19.5680 C.3    90  GLY90       0.2014
     97  C         68.9410  -63.7170   20.0870 C.2    90  GLY90       0.2639
     98  O         69.8120  -63.0980   19.4760 O.2    90  GLY90      -0.2714
     99  N         68.3710  -63.2600   21.1990 N.am   91  GLY91      -0.1939
    100  CA        68.9270  -62.1490   21.9560 C.3    91  GLY91       0.2014
    101  C         69.0160  -60.8400   21.1980 C.2    91  GLY91       0.2638
    102  O         68.3910  -60.6810   20.1530 O.2    91  GLY91      -0.2714
    103  N         69.7840  -59.8970   21.7350 N.am   92  GLU92      -0.1977
    104  CA        70.0180  -58.6210   21.0640 C.3    92  GLU92       0.1602
    105  C         71.0250  -58.7760   19.9230 C.2    92  GLU92       0.2287
    106  O         71.7980  -59.7350   19.8920 O.2    92  GLU92      -0.2864
    107  CB        70.4920  -57.5630   22.0690 C.3    92  GLU92       0.0415
    108  CG        71.7030  -57.9680   22.8960 C.3    92  GLU92       0.1163
    109  CD        71.6900  -57.3690   24.2940 C.2    92  GLU92       0.3649
    110  OE1       70.6920  -56.7100   24.6550 O.co2  92  GLU92      -0.2457
    111  OE2       72.6770  -57.5620   25.0360 O.co2  92  GLU92      -0.2457
    112  N         69.9670  -49.0150   19.6440 N.3   133  LYS133     -0.1245
    113  CA        71.1980  -49.7700   19.7980 C.3   133  LYS133      0.1561
    114  C         71.0290  -51.1950   19.2990 C.2   133  LYS133      0.2260
    115  O         69.9260  -51.7410   19.3320 O.2   133  LYS133     -0.2867
    116  CB        71.6670  -49.7800   21.2610 C.3   133  LYS133      0.0271
    117  CG        70.6120  -49.5730   22.3250 C.3   133  LYS133      0.0035
    118  CD        71.2540  -49.6140   23.7090 C.3   133  LYS133      0.0206
    119  CE        70.2240  -49.5450   24.8220 C.3   133  LYS133      0.1093
    120  NZ        70.8560  -49.3240   26.1510 N.3   133  LYS133     -0.1314
    121  N         72.0530  -53.3880   20.9090 N.3   135  GLU135     -0.1231
    122  CA        71.7290  -53.9410   22.2090 C.3   135  GLU135      0.1699
    123  C         70.2320  -53.7920   22.4910 C.2   135  GLU135      0.2592
    124  O         69.7010  -54.4350   23.3930 O.2   135  GLU135     -0.2718
    125  CB        72.5630  -53.2400   23.2830 C.3   135  GLU135      0.0402
    126  CG        73.9880  -52.9430   22.8190 C.3   135  GLU135      0.1161
    127  CD        74.6810  -51.8780   23.6450 C.2   135  GLU135      0.3649
    128  OE1       75.9000  -51.6760   23.4530 O.co2 135  GLU135     -0.2457
    129  OE2       74.0080  -51.2390   24.4810 O.co2 135  GLU135     -0.2457
    130  N         69.5720  -52.9070   21.7440 N.am  136  ASN136     -0.1960
    131  CA        68.1150  -52.7590   21.8010 C.3   136  ASN136      0.1819
    132  C         67.3260  -53.4330   20.6800 C.2   136  ASN136      0.2621
    133  O         66.1120  -53.2640   20.6090 O.2   136  ASN136     -0.2715
    134  CB        67.7230  -51.2820   21.8260 C.3   136  ASN136      0.1195
    135  CG        67.3570  -50.8000   23.2150 C.2   136  ASN136      0.2630
    136  OD1       67.1370  -51.6000   24.1240 O.2   136  ASN136     -0.2716
    137  ND2       67.2770  -49.4860   23.3840 N.am  136  ASN136     -0.0877
    138  N         67.9890  -54.1430   19.7740 N.am  137  VAL137     -0.1963
    139  CA        67.2430  -54.7940   18.7010 C.3   137  VAL137      0.1727
    140  C         67.4410  -56.3090   18.7120 C.2   137  VAL137      0.2616
    141  O         68.5620  -56.8110   18.6500 O.2   137  VAL137     -0.2715
    142  CB        67.6090  -54.2130   17.3090 C.3   137  VAL137      0.0290
    143  CG1       67.1360  -52.7740   17.2000 C.3   137  VAL137      0.0023
    144  CG2       69.0910  -54.2890   17.0490 C.3   137  VAL137      0.0023
    145  N         66.3340  -57.0370   18.8070 N.am  138  LEU138     -0.1977
    146  CA        66.3910  -58.4840   18.9450 C.3   138  LEU138      0.1596
    147  C         66.3100  -59.2060   17.6050 C.2   138  LEU138      0.2287
    148  O         66.0980  -58.5880   16.5620 O.2   138  LEU138     -0.2864
    149  CB        65.2600  -58.9610   19.8510 C.3   138  LEU138      0.0297
    150  CG        65.1460  -58.2430   21.1920 C.3   138  LEU138      0.0022
    151  CD1       63.6860  -58.0830   21.5660 C.3   138  LEU138      0.0001
    152  CD2       65.8940  -59.0220   22.2560 C.3   138  LEU138      0.0001
    153  N         63.3000  -53.2190   19.9310 N.3   148  ALA148     -0.1231
    154  CA        62.7190  -53.5950   21.2200 C.3   148  ALA148      0.1694
    155  C         62.2870  -52.4380   22.1230 C.2   148  ALA148      0.2592
    156  O         61.1010  -52.1130   22.1850 O.2   148  ALA148     -0.2718
    157  CB        63.6940  -54.4860   21.9800 C.3   148  ALA148      0.0304
    158  N         63.2360  -51.7970   22.8000 N.am  149  ASP149     -0.1960
    159  CA        62.8740  -50.9270   23.9180 C.3   149  ASP149      0.1840
    160  C         62.3920  -49.5670   23.4430 C.2   149  ASP149      0.2622
    161  O         63.1510  -48.8080   22.8670 O.2   149  ASP149     -0.2715
    162  CB        64.0680  -50.7570   24.8640 C.3   149  ASP149      0.1450
    163  CG        63.7040  -50.0390   26.1540 C.2   149  ASP149      0.3671
    164  OD1       63.0840  -48.9560   26.0980 O.co2 149  ASP149     -0.2456
    165  OD2       64.0470  -50.5600   27.2370 O.co2 149  ASP149     -0.2456
    166  N         61.1340  -49.2520   23.7260 N.am  150  PHE150     -0.1974
    167  CA        60.5680  -47.9590   23.3540 C.3   150  PHE150      0.1639
    168  C         60.5560  -46.9560   24.5020 C.2   150  PHE150      0.2290
    169  O         59.9990  -45.8700   24.3690 O.2   150  PHE150     -0.2864
    170  CB        59.1520  -48.1350   22.8080 C.3   150  PHE150      0.0560
    171  CG        59.0950  -48.2690   21.3140 C.ar  150  PHE150     -0.0200
    172  CD1       59.3060  -47.1680   20.5010 C.ar  150  PHE150     -0.0042
    173  CD2       58.8450  -49.4950   20.7200 C.ar  150  PHE150     -0.0042
    174  CE1       59.2580  -47.2840   19.1250 C.ar  150  PHE150     -0.0003
    175  CE2       58.7940  -49.6170   19.3440 C.ar  150  PHE150     -0.0003
    176  CZ        59.0020  -48.5100   18.5460 C.ar  150  PHE150     -0.0000
@<TRIPOS>BOND
     1   148   147    2
     2    68    67   ar
     3   144   142    1
     4   143   142    1
     5    69    67   ar
     6   142   139    1
     7   147   146    1
     8    67    66    1
     9    45    46    1
    10    87    86    1
    11    92    91    2
    12   176   174   ar
    13   176   175   ar
    14   141   140    2
    15   139   140    1
    16   139   138    1
    17   140   145   am
    18    46    47    1
    19    46    49    1
    20   145   146    1
    21   146   149    1
    22    86    88    1
    23    86    83    1
    24    47    48    2
    25   174   172   ar
    26    66    65    1
    27   114   115    2
    28   114   113    1
    29   175   173   ar
    30    98    97    2
    31    96    97    1
    32    96    95    1
    33    65    62    1
    34   112   113    1
    35    52    50    1
    36    91    95   am
    37    91    90    1
    38    94    93    1
    39   138   132   am
    40   113   116    1
    41   149   150    1
    42   106   105    2
    43    50    49    1
    44   105   104    1
    45   153   154    1
    46    49    51    1
    47    83    84    1
    48    83    82    1
    49    97    99   am
    50    89    84   am
    51    89    90    1
    52   102   101    2
    53    73    72    2
    54   172   171   ar
    55   133   132    2
    56   132   131    1
    57    84    85    2
    58    90    93    1
    59   173   171   ar
    60   121   122    1
    61   104   103    1
    62   104   107    1
    63    82    72   am
    64    62    63    1
    65    62    61    1
    66   150   151    1
    67   150   152    1
    68   101   103   am
    69   101   100    1
    70    99   100    1
    71    72    71    1
    72   154   157    1
    73   154   155    1
    74   116   117    1
    75   171   170    1
    76    64    63    2
    77    63    70   am
    78   130   131    1
    79   130   123   am
    80   131   134    1
    81   134   135    1
    82    61    55   am
    83    70    71    1
    84   107   108    1
    85   155   156    2
    86   155   158   am
    87   122   123    1
    88   122   125    1
    89   117   118    1
    90    71    74    1
    91   123   124    2
    92   158   159    1
    93   170   167    1
    94   126   125    1
    95   126   127    1
    96   161   160    2
    97   108   109    1
    98    55    56    2
    99    55    54    1
   100   135   137   am
   101   135   136    2
   102    77    79   ar
   103    77    75   ar
   104   167   166    1
   105   167   168    1
   106    79    80   ar
   107   160   166   am
   108   160   159    1
   109   128   127   ar
   110    74    75    1
   111   127   129   ar
   112   118   119    1
   113    75    76   ar
   114    54    57    1
   115    54    53    1
   116   159   162    1
   117    57    58    1
   118    80    81    1
   119    80    78   ar
   120   109   110   ar
   121   109   111   ar
   122   169   168    2
   123    58    59    1
   124    76    78   ar
   125    59    60    1
   126   119   120    1
   127   162   163    1
   128    31    32    1
   129    35    32    1
   130   164   163   ar
   131   163   165   ar
   132    32    33    1
   133    34    33    2
   134     7     6    1
   135     8     6    1
   136     6     5    1
   137    44    43    1
   138     5     2    1
   139    42    43    1
   140    42    41    1
   141    30    28    1
   142    29    28    1
   143     4     3    2
   144    40    41    1
   145    40    37    1
   146    28    25    1
   147     2     3    1
   148     2     1    1
   149    36    37    1
   150     3     9    1
   151    21    22    1
   152    21    20    1
   153    22    23    2
   154    37    38    1
   155     9    10    2
   156    10    11    1
   157    20    15   am
   158    25    26    1
   159    25    24    1
   160    26    27    2
   161    11    13   am
   162    11    12    2
   163    38    39    2
   164    13    14    1
   165    19    17    1
   166    15    14    1
   167    15    16    2
   168    14    17    1
   169    17    18    1
