@<TRIPOS>MOLECULE
tmp/4rewC00.pdb
 180 173 0 0 0
SMALL
GASTEIGER

@<TRIPOS>ATOM
      1  N         46.3350  -16.9750   -9.6460 N.3    46  ARG46      -0.1245
      2  CA        45.4570  -16.0940  -10.4090 C.3    46  ARG46       0.1563
      3  C         44.1820  -15.7350   -9.6410 C.2    46  ARG46       0.2260
      4  O         43.3300  -15.0020  -10.1450 O.2    46  ARG46      -0.2867
      5  CB        45.1010  -16.7450  -11.7470 C.3    46  ARG46       0.0307
      6  CG        44.5460  -18.1530  -11.6180 C.3    46  ARG46       0.0489
      7  CD        44.3360  -18.7920  -12.9800 C.3    46  ARG46       0.2205
      8  NE        43.4290  -18.0100  -13.8100 N.pl3  46  ARG46      -0.0865
      9  CZ        42.9310  -18.4200  -14.9720 C.cat  46  ARG46       0.5346
     10  NH1       43.2420  -19.6210  -15.4380 N.pl3  46  ARG46       0.1354
     11  NH2       42.1060  -17.6370  -15.6570 N.pl3  46  ARG46       0.1354
     12  N         34.4460  -12.2640   -0.6080 N.3    60  GLY60      -0.1210
     13  CA        34.4160  -12.5660   -2.0280 C.3    60  GLY60       0.1956
     14  C         35.7250  -13.0810   -2.5980 C.2    60  GLY60       0.2611
     15  O         36.6140  -13.5160   -1.8650 O.2    60  GLY60      -0.2717
     16  N         35.8350  -13.0320   -3.9220 N.am   61  MET61      -0.1979
     17  CA        37.0090  -13.5410   -4.6190 C.3    61  MET61       0.1605
     18  C         37.6250  -12.4700   -5.5180 C.2    61  MET61       0.2287
     19  O         36.9360  -11.5600   -5.9830 O.2    61  MET61      -0.2864
     20  CB        36.6400  -14.7780   -5.4450 C.3    61  MET61       0.0413
     21  CG        37.8330  -15.5510   -5.9750 C.3    61  MET61       0.0598
     22  SD        38.7600  -16.3640   -4.6630 S.3    61  MET61      -0.1393
     23  CE        37.8650  -17.9050   -4.5470 C.3    61  MET61       0.0692
     24  N         39.9800  -12.2980   -8.9590 N.3    63  THR63      -0.1203
     25  CA        40.6190  -12.9950  -10.0690 C.3    63  THR63       0.1994
     26  C         41.1910  -12.0050  -11.0750 C.2    63  THR63       0.2618
     27  O         41.1630  -10.7930  -10.8610 O.2    63  THR63      -0.2717
     28  CB        39.6400  -13.9370  -10.8000 C.3    63  THR63       0.1784
     29  OG1       38.8680  -13.1890  -11.7470 O.3    63  THR63      -0.2211
     30  CG2       38.7120  -14.6240   -9.8090 C.3    63  THR63       0.0376
     31  N         41.7180  -12.5350  -12.1710 N.am   64  ILE64      -0.1965
     32  CA        42.2470  -11.7140  -13.2490 C.3    64  ILE64       0.1727
     33  C         41.1320  -10.9260  -13.9160 C.2    64  ILE64       0.2617
     34  O         41.3610   -9.8320  -14.4310 O.2    64  ILE64      -0.2715
     35  CB        42.9540  -12.5580  -14.3210 C.3    64  ILE64       0.0290
     36  CG1       43.5940  -13.8000  -13.7020 C.3    64  ILE64       0.0022
     37  CG2       43.9580  -11.7150  -15.0780 C.3    64  ILE64       0.0023
     38  CD1       42.6820  -15.0020  -13.7030 C.3    64  ILE64       0.0001
     39  N         39.9320  -11.5030  -13.9160 N.am   65  THR65      -0.1937
     40  CA        38.7520  -10.8590  -14.4840 C.3    65  THR65       0.2028
     41  C         38.5740   -9.4690  -13.8920 C.2    65  THR65       0.2642
     42  O         38.2760   -8.5120  -14.6060 O.2    65  THR65      -0.2714
     43  CB        37.4740  -11.6890  -14.2390 C.3    65  THR65       0.1808
     44  OG1       37.5870  -12.9570  -14.8980 O.3    65  THR65      -0.2208
     45  CG2       36.2470  -10.9580  -14.7630 C.3    65  THR65       0.0379
     46  N         38.7770   -9.3660  -12.5820 N.am   66  ASP66      -0.1971
     47  CA        38.7300   -8.0820  -11.8960 C.3    66  ASP66       0.1709
     48  C         39.7040   -7.0890  -12.5260 C.2    66  ASP66       0.2293
     49  O         39.3460   -5.9420  -12.7950 O.2    66  ASP66      -0.2864
     50  CB        39.0440   -8.2550  -10.4070 C.3    66  ASP66       0.1436
     51  CG        38.0520   -9.1620   -9.7020 C.2    66  ASP66       0.3671
     52  OD1       36.9090   -8.7220   -9.4580 O.co2  66  ASP66      -0.2456
     53  OD2       38.4170  -10.3120   -9.3830 O.co2  66  ASP66      -0.2456
     54  N         38.3160   -5.9420  -15.8450 N.3    69  ASN69      -0.1240
     55  CA        37.2120   -5.0000  -15.7030 C.3    69  ASN69       0.1653
     56  C         37.7100   -3.6020  -15.3690 C.2    69  ASN69       0.2266
     57  O         37.3780   -2.6400  -16.0560 O.2    69  ASN69      -0.2867
     58  CB        36.2310   -5.4680  -14.6240 C.3    69  ASN69       0.1155
     59  CG        35.6660   -6.8470  -14.9000 C.2    69  ASN69       0.2627
     60  OD1       35.6600   -7.7130  -14.0250 O.2    69  ASN69      -0.2716
     61  ND2       35.1840   -7.0580  -16.1190 N.am   69  ASN69      -0.0877
     62  N         35.1600   -2.8270   -5.1810 N.3    94  ARG94      -0.1245
     63  CA        34.0570   -3.7660   -5.0150 C.3    94  ARG94       0.1563
     64  C         32.7420   -3.0120   -4.8600 C.2    94  ARG94       0.2260
     65  O         31.6700   -3.5410   -5.1500 O.2    94  ARG94      -0.2867
     66  CB        34.2920   -4.6680   -3.8040 C.3    94  ARG94       0.0307
     67  CG        35.4210   -5.6700   -3.9720 C.3    94  ARG94       0.0489
     68  CD        34.8800   -7.0820   -4.0590 C.3    94  ARG94       0.2205
     69  NE        33.9220   -7.3510   -2.9910 N.pl3  94  ARG94      -0.0865
     70  CZ        33.2610   -8.4950   -2.8490 C.cat  94  ARG94       0.5346
     71  NH1       33.4550   -9.4860   -3.7090 N.pl3  94  ARG94       0.1354
     72  NH2       32.4070   -8.6470   -1.8470 N.pl3  94  ARG94       0.1354
     73  N         31.7380   -2.0150   -8.2840 N.3    97  TYR97      -0.1241
     74  CA        31.4990   -3.2660   -8.9950 C.3    97  TYR97       0.1605
     75  C         30.1480   -3.8490   -8.5960 C.2    97  TYR97       0.2264
     76  O         29.4340   -4.4160   -9.4240 O.2    97  TYR97      -0.2867
     77  CB        32.6170   -4.2700   -8.7060 C.3    97  TYR97       0.0534
     78  CG        32.8150   -5.3100   -9.7860 C.ar   97  TYR97      -0.0201
     79  CD1       33.3510   -4.9620  -11.0180 C.ar   97  TYR97      -0.0009
     80  CD2       32.4810   -6.6400   -9.5680 C.ar   97  TYR97      -0.0009
     81  CE1       33.5420   -5.9070  -12.0080 C.ar   97  TYR97       0.0417
     82  CE2       32.6680   -7.5930  -10.5530 C.ar   97  TYR97       0.0417
     83  CZ        33.2000   -7.2200  -11.7710 C.ar   97  TYR97       0.1957
     84  OH        33.3890   -8.1610  -12.7560 O.3    97  TYR97      -0.2866
     85  N         26.3900   -9.8170   -5.6570 N.3   103  LYS103     -0.1231
     86  CA        26.6440  -11.2620   -5.6880 C.3   103  LYS103      0.1678
     87  C         27.6390  -11.7230   -4.6160 C.2   103  LYS103      0.2434
     88  O         28.8490  -11.6420   -4.8250 O.2   103  LYS103     -0.2733
     89  CB        27.1410  -11.6950   -7.0700 C.3   103  LYS103      0.0284
     90  CG        26.7540  -13.1280   -7.4540 C.3   103  LYS103      0.0035
     91  CD        27.5950  -14.1740   -6.7300 C.3   103  LYS103      0.0206
     92  CE        26.9720  -15.5580   -6.8230 C.3   103  LYS103      0.1093
     93  NZ        26.8640  -16.0330   -8.2290 N.3   103  LYS103     -0.1314
     94  N         27.1350  -12.1950   -3.4630 N.am  104  PRO104     -0.2718
     95  CA        27.9860  -12.6470   -2.3530 C.3   104  PRO104      0.1535
     96  C         28.9110  -13.8110   -2.7200 C.2   104  PRO104      0.2598
     97  O         28.6850  -14.4960   -3.7170 O.2   104  PRO104     -0.2715
     98  CB        26.9700  -13.0910   -1.2990 C.3   104  PRO104      0.0310
     99  CG        25.7930  -13.5250   -2.0960 C.3   104  PRO104      0.0237
    100  CD        25.7230  -12.5550   -3.2460 C.3   104  PRO104      0.0939
    101  N         29.9450  -14.0170   -1.9080 N.am  105  LEU105     -0.1964
    102  CA        30.9140  -15.0930   -2.1170 C.3   105  LEU105      0.1728
    103  C         30.2880  -16.4820   -2.0630 C.2   105  LEU105      0.2616
    104  O         29.4650  -16.7670   -1.1940 O.2   105  LEU105     -0.2715
    105  CB        32.0270  -15.0040   -1.0700 C.3   105  LEU105      0.0311
    106  CG        32.9480  -16.2180   -0.9110 C.3   105  LEU105      0.0022
    107  CD1       33.9260  -16.3320   -2.0700 C.3   105  LEU105      0.0001
    108  CD2       33.6860  -16.1630    0.4090 C.3   105  LEU105      0.0001
    109  N         30.6930  -17.3480   -2.9860 N.am  106  VAL106     -0.1977
    110  CA        30.2590  -18.7380   -2.9610 C.3   106  VAL106      0.1596
    111  C         31.4010  -19.6350   -2.4960 C.2   106  VAL106      0.2287
    112  O         32.5750  -19.3400   -2.7280 O.2   106  VAL106     -0.2864
    113  CB        29.7500  -19.2090   -4.3380 C.3   106  VAL106      0.0276
    114  CG1       28.6640  -18.2770   -4.8390 C.3   106  VAL106      0.0022
    115  CG2       30.8860  -19.2880   -5.3400 C.3   106  VAL106      0.0022
    116  N         28.2210  -20.1890  -12.6240 N.3   125  LYS125     -0.1231
    117  CA        29.1140  -19.8090  -13.7200 C.3   125  LYS125      0.1693
    118  C         30.3940  -19.1670  -13.2000 C.2   125  LYS125      0.2592
    119  O         30.6740  -17.9990  -13.4690 O.2   125  LYS125     -0.2718
    120  CB        28.4080  -18.8630  -14.6930 C.3   125  LYS125      0.0285
    121  CG        27.5570  -19.5730  -15.7300 C.3   125  LYS125      0.0035
    122  CD        27.0010  -18.5960  -16.7530 C.3   125  LYS125      0.0206
    123  CE        27.2510  -19.0800  -18.1740 C.3   125  LYS125      0.1093
    124  NZ        28.7070  -19.1510  -18.4880 N.3   125  LYS125     -0.1314
    125  N         31.1710  -19.9510  -12.4610 N.am  126  ILE126     -0.1966
    126  CA        32.3580  -19.4530  -11.7780 C.3   126  ILE126      0.1727
    127  C         33.5160  -20.4320  -11.9310 C.2   126  ILE126      0.2616
    128  O         33.3260  -21.6410  -11.8230 O.2   126  ILE126     -0.2715
    129  CB        32.0720  -19.2160  -10.2810 C.3   126  ILE126      0.0290
    130  CG1       31.1940  -17.9770  -10.0920 C.3   126  ILE126      0.0022
    131  CG2       33.3580  -19.0650   -9.5030 C.3   126  ILE126      0.0023
    132  CD1       30.8580  -17.6840   -8.6470 C.3   126  ILE126      0.0001
    133  N         34.7060  -19.9150  -12.2250 N.am  127  HIS127     -0.1959
    134  CA        35.8880  -20.7610  -12.3530 C.3   127  HIS127      0.1787
    135  C         36.6680  -20.9340  -11.0500 C.2   127  HIS127      0.2620
    136  O         37.4890  -21.8450  -10.9330 O.2   127  HIS127     -0.2715
    137  CB        36.8080  -20.1950  -13.4320 C.3   127  HIS127      0.0785
    138  CG        36.1330  -20.0060  -14.7530 C.ar  127  HIS127      0.0821
    139  ND1       35.0270  -19.1990  -14.9150 N.ar  127  HIS127     -0.2267
    140  CD2       36.4010  -20.5270  -15.9730 C.ar  127  HIS127      0.1154
    141  CE1       34.6440  -19.2290  -16.1780 C.ar  127  HIS127      0.1986
    142  NE2       35.4610  -20.0270  -16.8410 N.ar  127  HIS127     -0.2212
    143  N         36.4120  -20.0720  -10.0710 N.am  128  ARG128     -0.1977
    144  CA        37.1050  -20.1760   -8.7920 C.3   128  ARG128      0.1597
    145  C         36.1370  -20.5080   -7.6640 C.2   128  ARG128      0.2287
    146  O         35.3960  -19.6440   -7.1950 O.2   128  ARG128     -0.2864
    147  CB        37.8410  -18.8710   -8.4750 C.3   128  ARG128      0.0334
    148  CG        38.5300  -18.2370   -9.6710 C.3   128  ARG128      0.0492
    149  CD        39.6460  -19.1120  -10.2000 C.3   128  ARG128      0.2205
    150  NE        39.7580  -19.0090  -11.6510 N.pl3 128  ARG128     -0.0865
    151  CZ        40.5100  -19.8080  -12.3990 C.cat 128  ARG128      0.5346
    152  NH1       41.2240  -20.7710  -11.8330 N.pl3 128  ARG128      0.1354
    153  NH2       40.5420  -19.6450  -13.7140 N.pl3 128  ARG128      0.1354
    154  N         36.3350  -21.6710   -3.8990 N.3   130  PRO130     -0.2116
    155  CA        37.1910  -21.9350   -2.7410 C.3   130  PRO130      0.1372
    156  C         36.6110  -23.0190   -1.8410 C.2   130  PRO130      0.2244
    157  O         35.4180  -22.9790   -1.5350 O.2   130  PRO130     -0.2868
    158  CB        37.2280  -20.5850   -2.0260 C.3   130  PRO130      0.0268
    159  CG        35.9090  -19.9640   -2.3550 C.3   130  PRO130      0.0207
    160  CD        35.5570  -20.4290   -3.7470 C.3   130  PRO130      0.0892
    161  N         31.1530  -13.2150  -21.2050 N.3   200  ARG200     -0.1245
    162  CA        31.7790  -13.8210  -20.0340 C.3   200  ARG200      0.1563
    163  C         32.8190  -14.8660  -20.4400 C.2   200  ARG200      0.2260
    164  O         33.3180  -15.6150  -19.6000 O.2   200  ARG200     -0.2867
    165  CB        30.7280  -14.4390  -19.1140 C.3   200  ARG200      0.0307
    166  CG        29.8650  -15.4950  -19.7610 C.3   200  ARG200      0.0489
    167  CD        28.7650  -15.9200  -18.8130 C.3   200  ARG200      0.2205
    168  NE        27.8570  -14.8200  -18.5070 N.pl3 200  ARG200     -0.0865
    169  CZ        26.7510  -14.5580  -19.1950 C.cat 200  ARG200      0.5346
    170  NH1       26.4190  -15.3200  -20.2280 N.pl3 200  ARG200      0.1354
    171  NH2       25.9780  -13.5380  -18.8510 N.pl3 200  ARG200      0.1354
    172  N         41.8890  -14.9580  -20.8480 N.3   219  LYS219     -0.1245
    173  CA        41.6800  -14.0490  -19.7210 C.3   219  LYS219      0.1561
    174  C         42.8660  -14.0580  -18.7690 C.2   219  LYS219      0.2260
    175  O         43.1050  -13.0910  -18.0500 O.2   219  LYS219     -0.2867
    176  CB        40.4160  -14.4230  -18.9470 C.3   219  LYS219      0.0271
    177  CG        39.2050  -13.5670  -19.2580 C.3   219  LYS219      0.0035
    178  CD        38.2010  -13.6350  -18.1190 C.3   219  LYS219      0.0206
    179  CE        36.9250  -12.8840  -18.4530 C.3   219  LYS219      0.1093
    180  NZ        35.9470  -12.9350  -17.3320 N.3   219  LYS219     -0.1314
@<TRIPOS>BOND
     1   161   162    1
     2   172   173    1
     3   163   162    1
     4   163   164    2
     5   170   169    1
     6   162   165    1
     7   166   165    1
     8   166   167    1
     9   173   176    1
    10   173   174    1
    11   177   176    1
    12   177   178    1
    13   169   171    1
    14   169   168    2
    15   167   168    1
    16   174   175    2
    17   124   123    1
    18   179   178    1
    19   179   180    1
    20   123   122    1
    21   142   141   ar
    22   142   140   ar
    23   122   121    1
    24   141   139   ar
    25    61    59   am
    26    57    56    2
    27   140   138   ar
    28    54    55    1
    29   121   120    1
    30    55    56    1
    31    55    58    1
    32    11     9    1
    33    10     9    1
    34    37    35    1
    35     9     8    2
    36   139   138   ar
    37    59    58    1
    38    59    60    2
    39    44    43    1
    40    45    43    1
    41   138   137    1
    42   120   117    1
    43    42    41    2
    44    40    43    1
    45    40    39    1
    46    40    41    1
    47    34    33    2
    48    35    36    1
    49    35    32    1
    50    39    33   am
    51    33    32    1
    52    41    46   am
    53     8     7    1
    54   117   118    1
    55   117   116    1
    56   153   151    1
    57    38    36    1
    58   119   118    2
    59   137   134    1
    60    32    31    1
    61   118   125   am
    62     7     6    1
    63    49    48    2
    64    84    83    1
    65    46    47    1
    66    48    47    1
    67   125   126    1
    68   151   152    1
    69   151   150    2
    70   134   133    1
    71   134   135    1
    72   133   127   am
    73    31    26   am
    74    81    83   ar
    75    81    79   ar
    76   127   128    2
    77   127   126    1
    78    47    50    1
    79   126   129    1
    80    83    82   ar
    81    29    28    1
    82     5     6    1
    83     5     2    1
    84   150   149    1
    85    26    27    2
    86    26    25    1
    87   135   136    2
    88   135   143   am
    89    79    78   ar
    90    28    25    1
    91    28    30    1
    92    82    80   ar
    93     2     1    1
    94     2     3    1
    95    50    51    1
    96   129   130    1
    97   129   131    1
    98   149   148    1
    99     4     3    2
   100   130   132    1
   101   143   144    1
   102    25    24    1
   103    78    80   ar
   104    78    77    1
   105    51    52   ar
   106    51    53   ar
   107   148   147    1
   108    76    75    2
   109    74    77    1
   110    74    75    1
   111    74    73    1
   112   144   147    1
   113   144   145    1
   114    93    92    1
   115   145   146    2
   116    90    89    1
   117    90    91    1
   118    89    86    1
   119    92    91    1
   120    19    18    2
   121    21    20    1
   122    21    22    1
   123    86    85    1
   124    86    87    1
   125    18    17    1
   126    20    17    1
   127   115   113    1
   128    62    63    1
   129    65    64    2
   130    63    64    1
   131    63    66    1
   132   114   113    1
   133    88    87    2
   134    22    23    1
   135    17    16    1
   136    87    94   am
   137   113   110    1
   138    68    67    1
   139    68    69    1
   140    67    66    1
   141    16    14   am
   142   154   160    1
   143   154   155    1
   144   160   159    1
   145    97    96    2
   146    71    70    1
   147    94   100    1
   148    94    95    1
   149   100    99    1
   150    69    70    2
   151   109   110    1
   152   109   103   am
   153   110   111    1
   154    70    72    1
   155   155   158    1
   156   155   156    1
   157   112   111    2
   158    96    95    1
   159    96   101   am
   160    14    13    1
   161    14    15    2
   162   159   158    1
   163    95    98    1
   164   102   103    1
   165   102   101    1
   166   102   105    1
   167    99    98    1
   168   107   106    1
   169   103   104    2
   170    13    12    1
   171   156   157    2
   172   105   106    1
   173   106   108    1
