@<TRIPOS>MOLECULE
tmp/4rf7B00.pdb
 117 112 0 0 0
SMALL
GASTEIGER

@<TRIPOS>ATOM
      1  N          6.6950   34.5940  135.7430 N.3    60  SER60      -0.1217
      2  CA         7.5240   35.1130  134.6550 C.3    60  SER60       0.1889
      3  C          7.4650   36.6370  134.5780 C.2    60  SER60       0.2288
      4  O          8.4540   37.2870  134.2270 O.2    60  SER60      -0.2866
      5  CB         7.1110   34.5040  133.3150 C.3    60  SER60       0.2089
      6  OG         8.0450   34.8340  132.3050 O.3    60  SER60      -0.2183
      7  N         10.3230   43.5230  132.6490 N.3    66  ASP66      -0.1225
      8  CA        10.1320   44.1710  131.3560 C.3    66  ASP66       0.1805
      9  C          9.0730   43.4570  130.5120 C.2    66  ASP66       0.2598
     10  O          8.8420   43.8220  129.3590 O.2    66  ASP66      -0.2718
     11  CB        11.4550   44.2420  130.5890 C.3    66  ASP66       0.1424
     12  CG        12.0740   42.8740  130.3570 C.2    66  ASP66       0.3668
     13  OD1       11.9610   41.9970  131.2410 O.co2  66  ASP66      -0.2456
     14  OD2       12.6800   42.6790  129.2830 O.co2  66  ASP66      -0.2456
     15  N          8.4310   42.4460  131.0950 N.am   67  SER67      -0.1938
     16  CA         7.3760   41.7010  130.4090 C.3    67  SER67       0.2055
     17  C          6.2360   42.6230  129.9840 C.2    67  SER67       0.2644
     18  O          5.8700   43.5470  130.7140 O.2    67  SER67      -0.2714
     19  CB         6.8260   40.5880  131.3110 C.3    67  SER67       0.2130
     20  OG         7.8270   39.6530  131.6750 O.3    67  SER67      -0.2179
     21  N          5.6750   42.3710  128.8040 N.am   68  GLY68      -0.1939
     22  CA         4.5270   43.1290  128.3400 C.3    68  GLY68       0.2014
     23  C          3.2220   42.5280  128.8380 C.2    68  GLY68       0.2639
     24  O          2.2620   43.2480  129.1370 O.2    68  GLY68      -0.2714
     25  N          3.1930   41.2000  128.9270 N.am   69  VAL69      -0.1963
     26  CA         2.0130   40.4780  129.3900 C.3    69  VAL69       0.1727
     27  C          2.2460   39.9330  130.8020 C.2    69  VAL69       0.2617
     28  O          1.5500   40.3200  131.7440 O.2    69  VAL69      -0.2715
     29  CB         1.6450   39.3430  128.4210 C.3    69  VAL69       0.0290
     30  CG1        0.4710   38.5370  128.9610 C.3    69  VAL69       0.0023
     31  CG2        1.3170   39.9100  127.0320 C.3    69  VAL69       0.0023
     32  N          3.2140   39.0310  130.9440 N.am   70  GLY70      -0.1940
     33  CA         3.7000   38.6380  132.2580 C.3    70  GLY70       0.2014
     34  C          3.0090   37.4860  132.9670 C.2    70  GLY70       0.2639
     35  O          3.2650   37.2460  134.1550 O.2    70  GLY70      -0.2714
     36  N          2.1340   36.7780  132.2590 N.am   71  VAL71      -0.1963
     37  CA         1.5010   35.5880  132.8210 C.3    71  VAL71       0.1727
     38  C          1.4870   34.4420  131.8150 C.2    71  VAL71       0.2616
     39  O          1.4760   34.6670  130.6050 O.2    71  VAL71      -0.2715
     40  CB         0.0530   35.8550  133.2900 C.3    71  VAL71       0.0290
     41  CG1        0.0180   36.8350  134.4520 C.3    71  VAL71       0.0023
     42  CG2       -0.8010   36.3530  132.1290 C.3    71  VAL71       0.0023
     43  N          1.5000   33.2160  132.3290 N.am   72  TYR72      -0.1974
     44  CA         1.2870   32.0260  131.5140 C.3    72  TYR72       0.1639
     45  C          0.2950   31.1270  132.2480 C.2    72  TYR72       0.2290
     46  O          0.2960   31.0710  133.4800 O.2    72  TYR72      -0.2864
     47  CB         2.6000   31.2710  131.2800 C.3    72  TYR72       0.0560
     48  CG         3.6130   32.0110  130.4310 C.ar   72  TYR72      -0.0198
     49  CD1        4.4380   32.9760  130.9900 C.ar   72  TYR72      -0.0009
     50  CD2        3.7560   31.7300  129.0770 C.ar   72  TYR72      -0.0009
     51  CE1        5.3700   33.6520  130.2270 C.ar   72  TYR72       0.0417
     52  CE2        4.6890   32.4010  128.3020 C.ar   72  TYR72       0.0417
     53  CZ         5.4920   33.3600  128.8850 C.ar   72  TYR72       0.1957
     54  OH         6.4210   34.0370  128.1290 O.3    72  TYR72      -0.2866
     55  N         -5.2850   42.9980  126.2880 N.3    93  TYR93      -0.1241
     56  CA        -4.4380   42.6150  125.1610 C.3    93  TYR93       0.1605
     57  C         -5.2500   42.4180  123.8870 C.2    93  TYR93       0.2264
     58  O         -4.8470   42.8650  122.8120 O.2    93  TYR93      -0.2867
     59  CB        -3.6600   41.3270  125.4760 C.3    93  TYR93       0.0534
     60  CG        -2.6790   40.9190  124.3880 C.ar   93  TYR93      -0.0201
     61  CD1       -3.0840   40.1460  123.3050 C.ar   93  TYR93      -0.0009
     62  CD2       -1.3510   41.3110  124.4460 C.ar   93  TYR93      -0.0009
     63  CE1       -2.1960   39.7820  122.3100 C.ar   93  TYR93       0.0417
     64  CE2       -0.4510   40.9500  123.4570 C.ar   93  TYR93       0.0417
     65  CZ        -0.8810   40.1860  122.3920 C.ar   93  TYR93       0.1957
     66  OH         0.0040   39.8210  121.4030 O.3    93  TYR93      -0.2866
     67  N         11.9250   34.2320  129.7220 N.3   198  PHE198     -0.1241
     68  CA        10.4820   34.3130  129.9120 C.3   198  PHE198      0.1605
     69  C          9.8730   32.9170  130.0520 C.2   198  PHE198      0.2264
     70  O          9.0300   32.6850  130.9190 O.2   198  PHE198     -0.2867
     71  CB         9.8270   35.0670  128.7480 C.3   198  PHE198      0.0534
     72  CG        10.2860   36.4940  128.6120 C.ar  198  PHE198     -0.0203
     73  CD1        9.7330   37.4920  129.4020 C.ar  198  PHE198     -0.0042
     74  CD2       11.2670   36.8390  127.6900 C.ar  198  PHE198     -0.0042
     75  CE1       10.1530   38.8120  129.2800 C.ar  198  PHE198     -0.0003
     76  CE2       11.6910   38.1560  127.5620 C.ar  198  PHE198     -0.0003
     77  CZ        11.1340   39.1430  128.3590 C.ar  198  PHE198     -0.0000
     78  N          6.6830   26.3380  123.3400 N.3   229  GLU229     -0.1245
     79  CA         5.9040   27.1870  124.2510 C.3   229  GLU229      0.1567
     80  C          4.4760   26.6510  124.3950 C.2   229  GLU229      0.2260
     81  O          3.7980   26.8940  125.3970 O.2   229  GLU229     -0.2867
     82  CB         5.8890   28.6390  123.7620 C.3   229  GLU229      0.0388
     83  CG         5.0730   29.5790  124.6390 C.3   229  GLU229      0.1160
     84  CD         5.0390   31.0010  124.1150 C.2   229  GLU229      0.3649
     85  OE1        6.0650   31.4640  123.5730 O.co2 229  GLU229     -0.2457
     86  OE2        3.9830   31.6560  124.2540 O.co2 229  GLU229     -0.2457
     87  N          3.1710   24.1760  117.6070 N.3   233  ARG233     -0.1245
     88  CA         3.2990   25.3880  116.8140 C.3   233  ARG233      0.1563
     89  C          3.2960   24.9380  115.3560 C.2   233  ARG233      0.2260
     90  O          4.2830   24.3840  114.8720 O.2   233  ARG233     -0.2867
     91  CB         4.6150   26.0910  117.1380 C.3   233  ARG233      0.0307
     92  CG         4.7940   27.4430  116.4680 C.3   233  ARG233      0.0489
     93  CD         4.1530   28.5540  117.2810 C.3   233  ARG233      0.2205
     94  NE         4.9010   29.8010  117.1490 N.pl3 233  ARG233     -0.0865
     95  CZ         4.7280   30.8730  117.9150 C.cat 233  ARG233      0.5346
     96  NH1        3.8270   30.8680  118.8870 N.pl3 233  ARG233      0.1354
     97  NH2        5.4670   31.9530  117.7080 N.pl3 233  ARG233      0.1354
     98  N          0.4930   31.2560  126.7230 N.3   275  CYS275     -0.1235
     99  CA         0.4200   32.7040  126.8530 C.3   275  CYS275      0.1677
    100  C         -0.9340   33.1880  126.3560 C.2   275  CYS275      0.2270
    101  O         -1.3730   32.8000  125.2690 O.2   275  CYS275     -0.2867
    102  CB         1.5340   33.3790  126.0530 C.3   275  CYS275      0.0956
    103  SG         1.5240   35.1920  126.1520 S.3   275  CYS275     -0.0801
    104  N         -1.7390   35.7270  125.0020 N.3   277  SER277     -0.1202
    105  CA        -1.6070   36.4390  123.7350 C.3   277  SER277      0.2020
    106  C         -1.9660   35.5570  122.5430 C.2   277  SER277      0.2618
    107  O         -2.3740   36.0560  121.4960 O.2   277  SER277     -0.2717
    108  CB        -0.1770   36.9470  123.5640 C.3   277  SER277      0.2103
    109  OG         0.7320   35.8640  123.4670 O.3   277  SER277     -0.2182
    110  N         -1.8090   34.2450  122.7060 N.am  278  ASN278     -0.1974
    111  CA        -2.0220   33.3080  121.6050 C.3   278  ASN278      0.1688
    112  C         -3.3880   32.6170  121.6140 C.2   278  ASN278      0.2292
    113  O         -3.5730   31.5960  120.9580 O.2   278  ASN278     -0.2864
    114  CB        -0.9000   32.2610  121.5800 C.3   278  ASN278      0.1181
    115  CG         0.4190   32.8290  121.0860 C.2   278  ASN278      0.2629
    116  OD1        0.4680   33.5230  120.0660 O.2   278  ASN278     -0.2716
    117  ND2        1.4970   32.5440  121.8130 N.am  278  ASN278     -0.0877
@<TRIPOS>BOND
     1    90    89    2
     2    89    88    1
     3    92    91    1
     4    92    93    1
     5    88    91    1
     6    88    87    1
     7    94    93    1
     8    94    95    2
     9    97    95    1
    10    95    96    1
    11   116   115    2
    12   113   112    2
    13   115   114    1
    14   115   117   am
    15    66    65    1
    16   107   106    2
    17   114   111    1
    18   111   112    1
    19   111   110    1
    20    63    65   ar
    21    63    61   ar
    22    65    64   ar
    23   106   110   am
    24   106   105    1
    25    58    57    2
    26    61    60   ar
    27    78    79    1
    28    64    62   ar
    29   109   108    1
    30   108   105    1
    31    85    84   ar
    32   105   104    1
    33    82    79    1
    34    82    83    1
    35    57    56    1
    36    84    86   ar
    37    84    83    1
    38    79    80    1
    39    60    62   ar
    40    60    59    1
    41    80    81    2
    42    56    59    1
    43    56    55    1
    44   101   100    2
    45   102   103    1
    46   102    99    1
    47   100    99    1
    48    98    99    1
    49    31    29    1
    50    76    74   ar
    51    76    77   ar
    52    74    72   ar
    53    54    53    1
    54    52    53   ar
    55    52    50   ar
    56    22    21    1
    57    22    23    1
    58    77    75   ar
    59    29    30    1
    60    29    26    1
    61    72    71    1
    62    72    73   ar
    63    71    68    1
    64    21    17   am
    65    23    25   am
    66    23    24    2
    67    53    51   ar
    68    25    26    1
    69    50    48   ar
    70    75    73   ar
    71    14    12   ar
    72    10     9    2
    73    26    27    1
    74    67    68    1
    75    68    69    1
    76    17    16    1
    77    17    18    2
    78    69    70    2
    79    51    49   ar
    80    12    11    1
    81    12    13   ar
    82    16    15    1
    83    16    19    1
    84    48    49   ar
    85    48    47    1
    86     9    15   am
    87     9     8    1
    88    11     8    1
    89    39    38    2
    90    27    32   am
    91    27    28    2
    92    32    33    1
    93    47    44    1
    94    19    20    1
    95     8     7    1
    96    44    45    1
    97    44    43    1
    98    38    43   am
    99    38    37    1
   100    42    40    1
   101    45    46    2
   102    33    34    1
   103    36    37    1
   104    36    34   am
   105     6     5    1
   106    37    40    1
   107    34    35    2
   108    40    41    1
   109     5     2    1
   110     4     3    2
   111     3     2    1
   112     2     1    1
