@<TRIPOS>MOLECULE
tmp/4rf7B02.pdb
 115 106 0 0 0
SMALL
GASTEIGER

@<TRIPOS>ATOM
      1  N          2.4800   36.4150   89.2790 N.3   120  ALA120     -0.1231
      2  CA         3.6260   36.9520   88.5540 C.3   120  ALA120      0.1694
      3  C          4.6760   37.5210   89.5070 C.2   120  ALA120      0.2592
      4  O          5.7440   37.9520   89.0690 O.2   120  ALA120     -0.2718
      5  CB         3.1780   38.0150   87.5630 C.3   120  ALA120      0.0304
      6  N          4.3540   37.5380   90.8010 N.am  121  ASN121     -0.1960
      7  CA         5.2760   37.9910   91.8380 C.3   121  ASN121      0.1819
      8  C          5.8140   39.4060   91.5980 C.2   121  ASN121      0.2621
      9  O          7.0100   39.6590   91.7530 O.2   121  ASN121     -0.2715
     10  CB         6.4290   36.9930   91.9800 C.3   121  ASN121      0.1195
     11  CG         5.9680   35.5550   91.8600 C.2   121  ASN121      0.2630
     12  OD1        6.3800   34.8340   90.9500 O.2   121  ASN121     -0.2716
     13  ND2        5.1130   35.1270   92.7810 N.am  121  ASN121     -0.0877
     14  N          4.9230   40.3200   91.2230 N.am  122  ARG122     -0.1977
     15  CA         5.2990   41.7080   90.9910 C.3   122  ARG122      0.1597
     16  C          5.4340   42.4810   92.3020 C.2   122  ARG122      0.2287
     17  O          6.1360   43.4880   92.3650 O.2   122  ARG122     -0.2864
     18  CB         4.2640   42.4040   90.1050 C.3   122  ARG122      0.0334
     19  CG         4.1610   41.8750   88.6740 C.3   122  ARG122      0.0492
     20  CD         3.0750   42.6120   87.9050 C.3   122  ARG122      0.2205
     21  NE         2.9420   42.1370   86.5280 N.pl3 122  ARG122     -0.0865
     22  CZ         3.5600   42.6820   85.4840 C.cat 122  ARG122      0.5346
     23  NH1        4.3580   43.7280   85.6550 N.pl3 122  ARG122      0.1354
     24  NH2        3.3820   42.1840   84.2670 N.pl3 122  ARG122      0.1354
     25  N          6.0820   44.3570   98.6690 N.3   290  LYS290     -0.1245
     26  CA         6.7800   45.5990   98.3660 C.3   290  LYS290      0.1561
     27  C          5.7890   46.6700   97.9170 C.2   290  LYS290      0.2260
     28  O          5.3110   46.6570   96.7830 O.2   290  LYS290     -0.2867
     29  CB         7.8490   45.3670   97.2950 C.3   290  LYS290      0.0271
     30  CG         8.5600   46.6280   96.8350 C.3   290  LYS290      0.0035
     31  CD         9.9050   46.2870   96.2150 C.3   290  LYS290      0.0206
     32  CE        10.4970   47.4790   95.4850 C.3   290  LYS290      0.1093
     33  NZ        11.8730   47.1860   94.9980 N.3   290  LYS290     -0.1314
     34  N          4.0420   55.0340   84.8940 N.3   367  ARG367     -0.1245
     35  CA         4.3000   54.3870   83.6100 C.3   367  ARG367      0.1563
     36  C          3.3960   54.8970   82.4840 C.2   367  ARG367      0.2260
     37  O          3.5020   54.4480   81.3440 O.2   367  ARG367     -0.2867
     38  CB         4.1750   52.8650   83.7480 C.3   367  ARG367      0.0307
     39  CG         5.2260   52.2420   84.6530 C.3   367  ARG367      0.0489
     40  CD         5.1850   50.7290   84.5930 C.3   367  ARG367      0.2205
     41  NE         6.3810   50.1280   85.1810 N.pl3 367  ARG367     -0.0865
     42  CZ         6.7060   48.8460   85.0620 C.cat 367  ARG367      0.5346
     43  NH1        5.9240   48.0230   84.3790 N.pl3 367  ARG367      0.1354
     44  NH2        7.8160   48.3860   85.6250 N.pl3 367  ARG367      0.1354
     45  N          2.1280   41.0500   80.0460 N.3   404  ILE404     -0.1245
     46  CA         3.3450   41.8160   79.8000 C.3   404  ILE404      0.1561
     47  C          3.0350   43.0990   79.0310 C.2   404  ILE404      0.2260
     48  O          2.4140   43.0630   77.9670 O.2   404  ILE404     -0.2867
     49  CB         4.4160   40.9990   79.0500 C.3   404  ILE404      0.0252
     50  CG1        4.6050   39.6290   79.7030 C.3   404  ILE404      0.0019
     51  CG2        5.7370   41.7570   79.0360 C.3   404  ILE404      0.0019
     52  CD1        5.0620   39.6930   81.1610 C.3   404  ILE404      0.0001
     53  N          7.0450   46.9190   80.8980 N.3   408  ASP408     -0.1239
     54  CA         7.6900   45.7330   81.4600 C.3   408  ASP408      0.1674
     55  C          8.9350   45.4020   80.6440 C.2   408  ASP408      0.2266
     56  O          9.9980   45.1020   81.1950 O.2   408  ASP408     -0.2867
     57  CB         6.7380   44.5290   81.4380 C.3   408  ASP408      0.1410
     58  CG         5.6620   44.6020   82.5110 C.2   408  ASP408      0.3668
     59  OD1        5.9320   45.1620   83.5920 O.co2 408  ASP408     -0.2456
     60  OD2        4.5480   44.0830   82.2730 O.co2 408  ASP408     -0.2456
     61  N         11.7600   48.2050   80.9490 N.3   411  ASN411     -0.1240
     62  CA        12.0560   48.6360   82.3170 C.3   411  ASN411      0.1653
     63  C         13.5450   48.6330   82.6780 C.2   411  ASN411      0.2266
     64  O         14.0250   49.5550   83.3400 O.2   411  ASN411     -0.2867
     65  CB        11.2440   47.8210   83.3350 C.3   411  ASN411      0.1155
     66  CG        11.2390   48.4510   84.7220 C.2   411  ASN411      0.2627
     67  OD1       10.5590   49.4530   84.9590 O.2   411  ASN411     -0.2716
     68  ND2       11.9920   47.8610   85.6450 N.am  411  ASN411     -0.0877
     69  N          9.0810   39.5260   77.7920 N.3   426  GLY426     -0.1225
     70  CA         8.4640   38.7550   78.8600 C.3   426  GLY426      0.1811
     71  C          7.9070   37.4260   78.3770 C.2   426  GLY426      0.2280
     72  O          7.9030   36.4370   79.1180 O.2   426  GLY426     -0.2866
     73  N         11.7850   36.6370   81.9310 N.3   494  PRO494     -0.2102
     74  CA        11.3080   37.8290   82.6460 C.3   494  PRO494      0.1504
     75  C          9.8170   37.7940   82.9940 C.2   494  PRO494      0.2576
     76  O          9.4200   38.4840   83.9350 O.2   494  PRO494     -0.2718
     77  CB        11.5710   38.9640   81.6500 C.3   494  PRO494      0.0282
     78  CG        12.6630   38.4560   80.7640 C.3   494  PRO494      0.0208
     79  CD        12.3840   36.9840   80.6280 C.3   494  PRO494      0.0893
     80  N          9.0130   37.0220   82.2610 N.am  495  GLY495     -0.1957
     81  CA         7.5690   37.0460   82.4510 C.3   495  GLY495      0.1869
     82  C          6.9660   35.8960   83.2470 C.2   495  GLY495      0.2309
     83  O          5.7460   35.8370   83.4250 O.2   495  GLY495     -0.2863
     84  N         17.9440   42.2200   87.1220 N.3   552  GLU552     -0.1231
     85  CA        17.0710   42.5580   88.2460 C.3   552  GLU552      0.1699
     86  C         15.9120   43.4520   87.8140 C.2   552  GLU552      0.2592
     87  O         14.7530   43.1750   88.1210 O.2   552  GLU552     -0.2718
     88  CB        17.8690   43.2440   89.3600 C.3   552  GLU552      0.0402
     89  CG        17.0120   43.7630   90.5070 C.3   552  GLU552      0.1161
     90  CD        16.3550   42.6480   91.3060 C.2   552  GLU552      0.3649
     91  OE1       16.9890   41.5880   91.4830 O.co2 552  GLU552     -0.2457
     92  OE2       15.2060   42.8330   91.7630 O.co2 552  GLU552     -0.2457
     93  N         16.2290   44.5240   87.0940 N.am  553  ALA553     -0.1966
     94  CA        15.2050   45.4490   86.6170 C.3   553  ALA553      0.1728
     95  C         14.2990   44.8240   85.5460 C.2   553  ALA553      0.2616
     96  O         13.1960   45.3100   85.3000 O.2   553  ALA553     -0.2715
     97  CB        15.8450   46.7290   86.1050 C.3   553  ALA553      0.0334
     98  N         14.7620   43.7460   84.9190 N.am  554  ALA554     -0.1963
     99  CA        13.9870   43.0790   83.8720 C.3   554  ALA554      0.1728
    100  C         12.9980   42.0710   84.4490 C.2   554  ALA554      0.2616
    101  O         12.1510   41.5400   83.7230 O.2   554  ALA554     -0.2715
    102  CB        14.9100   42.3960   82.8830 C.3   554  ALA554      0.0334
    103  N         13.1190   41.7970   85.7460 N.am  555  GLY555     -0.1955
    104  CA        12.2380   40.8510   86.4080 C.3   555  GLY555      0.1869
    105  C         12.7740   39.4330   86.3850 C.2   555  GLY555      0.2309
    106  O         12.0370   38.4780   86.6350 O.2   555  GLY555     -0.2863
    107  N         13.2030   37.3160   90.2090 N.3   558  LYS558     -0.1245
    108  CA        12.0510   37.0960   91.0910 C.3   558  LYS558      0.1561
    109  C         12.1630   35.8090   91.9010 C.2   558  LYS558      0.2260
    110  O         12.4960   34.7530   91.3530 O.2   558  LYS558     -0.2867
    111  CB        10.7440   37.0630   90.2910 C.3   558  LYS558      0.0271
    112  CG        10.3600   38.3770   89.6190 C.3   558  LYS558      0.0035
    113  CD         8.8710   38.3900   89.2700 C.3   558  LYS558      0.0206
    114  CE         8.5430   39.4290   88.2100 C.3   558  LYS558      0.1093
    115  NZ         9.0560   39.0240   86.8750 N.3   558  LYS558     -0.1314
@<TRIPOS>BOND
     1    69    70    1
     2    48    47    2
     3    71    70    1
     4    71    72    2
     5    47    46    1
     6    51    49    1
     7    49    50    1
     8    49    46    1
     9    50    52    1
    10    46    45    1
    11    79    78    1
    12    79    73    1
    13    55    56    2
    14    55    54    1
    15    78    77    1
    16    53    54    1
    17    61    62    1
    18    37    36    2
    19    57    54    1
    20    57    58    1
    21    77    74    1
    22    73    74    1
    23    80    81    1
    24    80    75   am
    25    60    58   ar
    26    62    63    1
    27    62    65    1
    28    81    82    1
    29    36    35    1
    30    58    59   ar
    31    74    75    1
    32    63    64    2
    33   102    99    1
    34    75    76    2
    35    82    83    2
    36    65    66    1
    37    35    38    1
    38    35    34    1
    39   101   100    2
    40    38    39    1
    41    99   100    1
    42    99    98    1
    43    24    22    1
    44    43    42    1
    45   100   103   am
    46    40    39    1
    47    40    41    1
    48    66    67    2
    49    66    68   am
    50    98    95   am
    51    42    41    2
    52    42    44    1
    53    96    95    2
    54    22    23    1
    55    22    21    2
    56    95    94    1
    57   103   104    1
    58    97    94    1
    59   105   104    1
    60   105   106    2
    61    21    20    1
    62    94    93    1
    63   115   114    1
    64    93    86   am
    65    84    85    1
    66     5     2    1
    67    86    87    2
    68    86    85    1
    69    20    19    1
    70   114   113    1
    71    85    88    1
    72     2     1    1
    73     2     3    1
    74    19    18    1
    75     4     3    2
    76   113   112    1
    77    88    89    1
    78     3     6   am
    79   112   111    1
    80    18    15    1
    81   107   108    1
    82   111   108    1
    83    89    90    1
    84     6     7    1
    85    12    11    2
    86    15    14    1
    87    15    16    1
    88   108   109    1
    89    14     8   am
    90    90    91   ar
    91    90    92   ar
    92   110   109    2
    93     8     9    2
    94     8     7    1
    95     7    10    1
    96    11    10    1
    97    11    13   am
    98    16    17    2
    99    33    32    1
   100    32    31    1
   101    31    30    1
   102    28    27    2
   103    30    29    1
   104    29    26    1
   105    27    26    1
   106    26    25    1
