@<TRIPOS>MOLECULE
tmp/4rf7B01.pdb
 94 88 0 0 0
SMALL
GASTEIGER

@<TRIPOS>ATOM
      1  N          6.3550   36.5860   99.7430 N.3   126  SER126     -0.1202
      2  CA         6.1430   35.3670  100.5140 C.3   126  SER126      0.2020
      3  C          4.9300   35.4420  101.4420 C.2   126  SER126      0.2619
      4  O          4.4480   36.5290  101.7790 O.2   126  SER126     -0.2717
      5  CB         7.4050   35.0200  101.3080 C.3   126  SER126      0.2103
      6  OG         7.7290   36.0420  102.2320 O.3   126  SER126     -0.2182
      7  N          4.4440   34.2720  101.8470 N.am  127  THR127     -0.1938
      8  CA         3.2420   34.1700  102.6620 C.3   127  THR127      0.2028
      9  C          3.4750   33.1340  103.7580 C.2   127  THR127      0.2642
     10  O          4.1980   32.1570  103.5470 O.2   127  THR127     -0.2714
     11  CB         2.0390   33.7630  101.8030 C.3   127  THR127      0.1808
     12  OG1        1.9690   34.6070  100.6480 O.3   127  THR127     -0.2208
     13  CG2        0.7430   33.8860  102.5880 C.3   127  THR127      0.0379
     14  N          2.8700   33.3460  104.9240 N.am  128  ARG128     -0.1977
     15  CA         3.1360   32.4990  106.0810 C.3   128  ARG128      0.1597
     16  C          1.9630   32.5300  107.0540 C.2   128  ARG128      0.2287
     17  O          1.4700   33.6070  107.4080 O.2   128  ARG128     -0.2864
     18  CB         4.4060   32.9910  106.7810 C.3   128  ARG128      0.0334
     19  CG         4.8100   32.2120  108.0250 C.3   128  ARG128      0.0492
     20  CD         6.0040   32.8770  108.6980 C.3   128  ARG128      0.2205
     21  NE         6.4960   32.1120  109.8380 N.pl3 128  ARG128     -0.0865
     22  CZ         5.9520   32.1540  111.0500 C.cat 128  ARG128      0.5346
     23  NH1        6.4610   31.4300  112.0370 N.pl3 128  ARG128      0.1354
     24  NH2        4.8930   32.9200  111.2720 N.pl3 128  ARG128      0.1354
     25  N          9.3690   21.5550  102.4750 N.3   220  LYS220     -0.1245
     26  CA         9.7170   22.5920  103.4480 C.3   220  LYS220      0.1561
     27  C          8.7850   23.7990  103.3340 C.2   220  LYS220      0.2260
     28  O          9.2150   24.9510  103.3890 O.2   220  LYS220     -0.2867
     29  CB        11.1920   22.9960  103.3300 C.3   220  LYS220      0.0271
     30  CG        12.1500   21.8770  103.7270 C.3   220  LYS220      0.0035
     31  CD        13.6080   22.2710  103.5290 C.3   220  LYS220      0.0206
     32  CE        14.5330   21.1450  103.9770 C.3   220  LYS220      0.1093
     33  NZ        15.9520   21.3680  103.5880 N.3   220  LYS220     -0.1314
     34  N          4.0450   27.8270  105.0250 N.3   237  MET237     -0.1230
     35  CA         4.6990   28.9910  104.4410 C.3   237  MET237      0.1702
     36  C          5.2900   28.6610  103.0810 C.2   237  MET237      0.2592
     37  O          5.6850   27.5260  102.8310 O.2   237  MET237     -0.2718
     38  CB         5.7990   29.4980  105.3790 C.3   237  MET237      0.0401
     39  CG         6.9610   28.5240  105.5920 C.3   237  MET237      0.0596
     40  SD         6.4400   26.9710  106.3550 S.3   237  MET237     -0.1393
     41  CE         8.0160   26.1450  106.6100 C.3   237  MET237      0.0692
     42  N          5.3450   29.6540  102.2010 N.am  238  GLU238     -0.1966
     43  CA         5.9830   29.4810  100.9010 C.3   238  GLU238      0.1733
     44  C          6.2550   30.8400  100.2740 C.2   238  GLU238      0.2616
     45  O          5.6780   31.8500  100.6900 O.2   238  GLU238     -0.2715
     46  CB         5.1080   28.6310   99.9680 C.3   238  GLU238      0.0429
     47  CG         3.7810   29.2750   99.5900 C.3   238  GLU238      0.1163
     48  CD         2.8110   28.2920   98.9550 C.2   238  GLU238      0.3649
     49  OE1        1.9940   28.7190   98.1130 O.co2 238  GLU238     -0.2457
     50  OE2        2.8580   27.0930   99.3060 O.co2 238  GLU238     -0.2457
     51  N          7.1430   30.8710   99.2860 N.am  239  LYS239     -0.1977
     52  CA         7.3510   32.0870   98.5160 C.3   239  LYS239      0.1596
     53  C          6.0940   32.3560   97.7030 C.2   239  LYS239      0.2287
     54  O          5.2930   31.4460   97.4670 O.2   239  LYS239     -0.2864
     55  CB         8.5700   31.9560   97.5990 C.3   239  LYS239      0.0298
     56  CG         9.8910   31.7670   98.3480 C.3   239  LYS239      0.0038
     57  CD        11.0920   32.0430   97.4490 C.3   239  LYS239      0.0206
     58  CE        12.3680   32.1720   98.2700 C.3   239  LYS239      0.1093
     59  NZ        12.2720   33.2670   99.2750 N.3   239  LYS239     -0.1314
     60  N         -0.9260   33.6800  113.6980 N.3   284  ARG284     -0.1245
     61  CA        -0.2420   34.8020  113.0630 C.3   284  ARG284      0.1563
     62  C         -0.2290   34.5430  111.5560 C.2   284  ARG284      0.2260
     63  O          0.4280   33.6110  111.0820 O.2   284  ARG284     -0.2867
     64  CB         1.1930   34.9680  113.5810 C.3   284  ARG284      0.0307
     65  CG         1.8790   36.2440  113.0680 C.3   284  ARG284      0.0489
     66  CD         3.2950   36.4430  113.6070 C.3   284  ARG284      0.2205
     67  NE         3.8460   37.7310  113.1780 N.pl3 284  ARG284     -0.0865
     68  CZ         4.5140   37.9230  112.0420 C.cat 284  ARG284      0.5346
     69  NH1        4.7240   36.9110  111.2110 N.pl3 284  ARG284      0.1354
     70  NH2        4.9730   39.1290  111.7320 N.pl3 284  ARG284      0.1354
     71  N          0.7650   36.1750  107.8920 N.3   286  SER286     -0.1217
     72  CA         1.6280   37.2480  107.4020 C.3   286  SER286      0.1889
     73  C          1.9780   37.1770  105.9140 C.2   286  SER286      0.2288
     74  O          1.9920   36.1050  105.3040 O.2   286  SER286     -0.2866
     75  CB         2.9060   37.3350  108.2360 C.3   286  SER286      0.2089
     76  OG         3.6610   36.1440  108.1380 O.3   286  SER286     -0.2183
     77  N          4.8310   39.1380  103.1110 N.3   288  HIS288     -0.1241
     78  CA         5.8490   40.1190  102.7510 C.3   288  HIS288      0.1621
     79  C          5.4790   40.7130  101.3980 C.2   288  HIS288      0.2264
     80  O          5.2410   39.9720  100.4370 O.2   288  HIS288     -0.2867
     81  CB         7.2400   39.4810  102.6850 C.3   288  HIS288      0.0745
     82  CG         7.8400   39.2040  104.0300 C.ar  288  HIS288      0.0817
     83  ND1        9.0930   38.6470  104.1820 N.ar  288  HIS288     -0.2268
     84  CD2        7.3660   39.4060  105.2790 C.ar  288  HIS288      0.1154
     85  CE1        9.3630   38.5160  105.4680 C.ar  288  HIS288      0.1986
     86  NE2        8.3270   38.9760  106.1590 N.ar  288  HIS288     -0.2212
     87  N          6.2460   43.7320  106.1910 N.3   330  ASP330     -0.1239
     88  CA         5.6710   42.5290  106.7760 C.3   330  ASP330      0.1674
     89  C          4.2650   42.8810  107.2510 C.2   330  ASP330      0.2266
     90  O          4.1010   43.6020  108.2380 O.2   330  ASP330     -0.2867
     91  CB         6.5200   42.0430  107.9550 C.3   330  ASP330      0.1410
     92  CG         6.0420   40.7090  108.5160 C.2   330  ASP330      0.3668
     93  OD1        5.3440   39.9620  107.7970 O.co2 330  ASP330     -0.2456
     94  OD2        6.3780   40.3970  109.6770 O.co2 330  ASP330     -0.2456
@<TRIPOS>BOND
     1    57    58    1
     2    57    56    1
     3    54    53    2
     4    55    56    1
     5    55    52    1
     6    53    52    1
     7    49    48   ar
     8    58    59    1
     9    52    51    1
    10    48    50   ar
    11    48    47    1
    12    51    44   am
    13    47    46    1
    14     1     2    1
    15    46    43    1
    16    44    45    2
    17    44    43    1
    18    80    79    2
    19     2     5    1
    20     2     3    1
    21    12    11    1
    22    43    42    1
    23     5     6    1
    24    79    78    1
    25     3     4    2
    26     3     7   am
    27    11    13    1
    28    11     8    1
    29     7     8    1
    30    42    36   am
    31    25    26    1
    32     8     9    1
    33    81    78    1
    34    81    82    1
    35    78    77    1
    36    37    36    2
    37    36    35    1
    38    29    26    1
    39    29    30    1
    40    27    28    2
    41    27    26    1
    42    31    30    1
    43    31    32    1
    44    10     9    2
    45    33    32    1
    46     9    14   am
    47    82    83   ar
    48    82    84   ar
    49    83    85   ar
    50    35    34    1
    51    35    38    1
    52    14    15    1
    53    84    86   ar
    54    74    73    2
    55    38    39    1
    56    85    86   ar
    57    39    40    1
    58    73    72    1
    59    15    18    1
    60    15    16    1
    61    87    88    1
    62    40    41    1
    63    88    89    1
    64    88    91    1
    65    18    19    1
    66    16    17    2
    67    89    90    2
    68    72    71    1
    69    72    75    1
    70    93    92   ar
    71    91    92    1
    72    19    20    1
    73    76    75    1
    74    92    94   ar
    75    20    21    1
    76    21    22    2
    77    22    24    1
    78    22    23    1
    79    63    62    2
    80    69    68    1
    81    62    61    1
    82    70    68    1
    83    68    67    2
    84    61    64    1
    85    61    60    1
    86    65    64    1
    87    65    66    1
    88    67    66    1
