@<TRIPOS>MOLECULE
tmp/4rf8B02.pdb
 82 80 0 0 0
SMALL
GASTEIGER

@<TRIPOS>ATOM
      1  N         25.9310   16.5320   65.3530 N.3   450  PRO450     -0.2102
      2  CA        27.3900   16.5700   65.4890 C.3   450  PRO450      0.1504
      3  C         28.1110   15.8410   64.3600 C.2   450  PRO450      0.2576
      4  O         29.3040   16.0680   64.1640 O.2   450  PRO450     -0.2718
      5  CB        27.6340   15.8480   66.8190 C.3   450  PRO450      0.0282
      6  CG        26.4510   14.9610   66.9910 C.3   450  PRO450      0.0208
      7  CD        25.2990   15.7300   66.4160 C.3   450  PRO450      0.0893
      8  N         27.4000   14.9820   63.6340 N.am  451  GLU451     -0.1966
      9  CA        27.9970   14.2310   62.5320 C.3   451  GLU451      0.1733
     10  C         28.2040   15.0990   61.2920 C.2   451  GLU451      0.2616
     11  O         28.9150   14.7120   60.3630 O.2   451  GLU451     -0.2715
     12  CB        27.1460   13.0040   62.1910 C.3   451  GLU451      0.0429
     13  CG        27.0700   11.9670   63.3080 C.3   451  GLU451      0.1163
     14  CD        26.0380   10.8840   63.0420 C.2   451  GLU451      0.3649
     15  OE1       25.6510   10.1800   64.0000 O.co2 451  GLU451     -0.2457
     16  OE2       25.6120   10.7360   61.8770 O.co2 451  GLU451     -0.2457
     17  N         27.5770   16.2710   61.2850 N.am  452  LYS452     -0.1963
     18  CA        27.7180   17.2160   60.1810 C.3   452  LYS452      0.1728
     19  C         28.9580   18.0880   60.3620 C.2   452  LYS452      0.2616
     20  O         29.3220   18.8650   59.4770 O.2   452  LYS452     -0.2715
     21  CB        26.4560   18.0760   60.0380 C.3   452  LYS452      0.0311
     22  CG        25.2500   17.3070   59.4970 C.3   452  LYS452      0.0038
     23  CD        23.9510   18.0930   59.6450 C.3   452  LYS452      0.0206
     24  CE        23.4080   18.5500   58.3020 C.3   452  LYS452      0.1093
     25  NZ        22.0810   19.2190   58.4280 N.3   452  LYS452     -0.1314
     26  N         29.6060   17.9480   61.5150 N.am  453  VAL453     -0.1963
     27  CA        30.8420   18.6730   61.7980 C.3   453  VAL453      0.1727
     28  C         32.0580   17.8180   61.4540 C.2   453  VAL453      0.2616
     29  O         32.1850   16.6890   61.9320 O.2   453  VAL453     -0.2715
     30  CB        30.9210   19.1010   63.2760 C.3   453  VAL453      0.0290
     31  CG1       32.2490   19.7700   63.5650 C.3   453  VAL453      0.0023
     32  CG2       29.7740   20.0420   63.6180 C.3   453  VAL453      0.0023
     33  N         32.9400   18.3580   60.6170 N.am  454  ASP454     -0.1957
     34  CA        34.1770   17.6780   60.2490 C.3   454  ASP454      0.1840
     35  C         35.3230   18.3240   61.0190 C.2   454  ASP454      0.2622
     36  O         35.8810   19.3340   60.5840 O.2   454  ASP454     -0.2715
     37  CB        34.4200   17.7960   58.7430 C.3   454  ASP454      0.1450
     38  CG        35.4790   16.8300   58.2380 C.2   454  ASP454      0.3671
     39  OD1       36.1420   16.1720   59.0680 O.co2 454  ASP454     -0.2456
     40  OD2       35.6510   16.7380   57.0030 O.co2 454  ASP454     -0.2456
     41  N         35.6660   17.7440   62.1660 N.am  455  ALA455     -0.1964
     42  CA        36.6680   18.3330   63.0530 C.3   455  ALA455      0.1713
     43  C         37.6830   17.3230   63.5820 C.2   455  ALA455      0.2458
     44  O         37.5750   16.8740   64.7220 O.2   455  ALA455     -0.2730
     45  CB        35.9870   19.0350   64.2150 C.3   455  ALA455      0.0333
     46  N         38.6790   16.9680   62.7570 N.am  456  PRO456     -0.2716
     47  CA        39.7740   16.1230   63.2430 C.3   456  PRO456      0.1536
     48  C         40.5320   16.8340   64.3600 C.2   456  PRO456      0.2598
     49  O         40.8490   18.0130   64.2000 O.2   456  PRO456     -0.2715
     50  CB        40.6710   15.9770   62.0130 C.3   456  PRO456      0.0310
     51  CG        39.7610   16.2000   60.8460 C.3   456  PRO456      0.0237
     52  CD        38.7730   17.2310   61.3100 C.3   456  PRO456      0.0939
     53  N         40.8070   16.1340   65.4600 N.am  457  ASN457     -0.1973
     54  CA        41.4600   16.7240   66.6330 C.3   457  ASN457      0.1688
     55  C         42.7150   17.5330   66.2830 C.2   457  ASN457      0.2292
     56  O         43.7130   16.9840   65.8170 O.2   457  ASN457     -0.2864
     57  CB        41.7820   15.6360   67.6660 C.3   457  ASN457      0.1181
     58  CG        41.8960   16.1790   69.0850 C.2   457  ASN457      0.2629
     59  OD1       41.6180   17.3510   69.3430 O.2   457  ASN457     -0.2716
     60  ND2       42.2950   15.3190   70.0140 N.am  457  ASN457     -0.0877
     61  N         39.5620   18.7700   71.4370 N.3   583  ASP583     -0.1239
     62  CA        38.5680   17.9980   70.6920 C.3   583  ASP583      0.1674
     63  C         37.1730   18.6350   70.7010 C.2   583  ASP583      0.2266
     64  O         36.2640   18.1440   71.3710 O.2   583  ASP583     -0.2867
     65  CB        38.5090   16.5590   71.2120 C.3   583  ASP583      0.1410
     66  CG        38.0590   15.5740   70.1510 C.2   583  ASP583      0.3668
     67  OD1       37.4690   16.0120   69.1400 O.co2 583  ASP583     -0.2456
     68  OD2       38.2870   14.3600   70.3340 O.co2 583  ASP583     -0.2456
     69  N         35.0300   18.6200   68.3930 N.3   585  GLY585     -0.1210
     70  CA        34.0830   17.6870   67.8120 C.3   585  GLY585      0.1956
     71  C         33.4800   16.7930   68.8790 C.2   585  GLY585      0.2612
     72  O         32.2720   16.5440   68.8950 O.2   585  GLY585     -0.2717
     73  N         34.3330   16.3130   69.7800 N.am  586  SER586     -0.1952
     74  CA        33.8900   15.4810   70.8930 C.3   586  SER586      0.1924
     75  C         33.0480   16.2850   71.8750 C.2   586  SER586      0.2314
     76  O         32.0300   15.8030   72.3770 O.2   586  SER586     -0.2863
     77  CB        35.0890   14.8710   71.6180 C.3   586  SER586      0.2116
     78  OG        34.6950   14.2830   72.8420 O.3   586  SER586     -0.2180
     79  N         29.7510   16.8110   70.2960 N.3   589  GLY589     -0.1225
     80  CA        29.0350   15.5480   70.2600 C.3   589  GLY589      0.1811
     81  C         28.3240   15.2360   71.5660 C.2   589  GLY589      0.2280
     82  O         27.1680   14.8060   71.5680 O.2   589  GLY589     -0.2866
@<TRIPOS>BOND
     1    40    38   ar
     2    38    37    1
     3    38    39   ar
     4    24    25    1
     5    24    23    1
     6    37    34    1
     7    20    19    2
     8    22    23    1
     9    22    21    1
    10    21    18    1
    11    18    19    1
    12    18    17    1
    13    34    33    1
    14    34    35    1
    15    19    26   am
    16    11    10    2
    17    36    35    2
    18    33    28   am
    19    51    52    1
    20    51    50    1
    21    35    41   am
    22    17    10   am
    23    10     9    1
    24    52    46    1
    25    28    27    1
    26    28    29    2
    27    26    27    1
    28    27    30    1
    29    16    14   ar
    30    50    47    1
    31    41    42    1
    32    12     9    1
    33    12    13    1
    34     9     8    1
    35    46    47    1
    36    46    43   am
    37    14    13    1
    38    14    15   ar
    39    42    43    1
    40    42    45    1
    41    47    48    1
    42    30    31    1
    43    30    32    1
    44    43    44    2
    45     8     3   am
    46     4     3    2
    47    49    48    2
    48    48    53   am
    49     3     2    1
    50     1     2    1
    51     1     7    1
    52    53    54    1
    53     2     5    1
    54    56    55    2
    55    55    54    1
    56     7     6    1
    57    54    57    1
    58     5     6    1
    59    57    58    1
    60    70    69    1
    61    70    71    1
    62    71    72    2
    63    71    73   am
    64    58    59    2
    65    58    60   am
    66    67    66   ar
    67    73    74    1
    68    66    68   ar
    69    66    65    1
    70    80    79    1
    71    80    81    1
    72    62    63    1
    73    62    65    1
    74    62    61    1
    75    63    64    2
    76    74    77    1
    77    74    75    1
    78    81    82    2
    79    77    78    1
    80    75    76    2
