@<TRIPOS>MOLECULE
tmp/4rf8B01.pdb
 86 82 0 0 0
SMALL
GASTEIGER

@<TRIPOS>ATOM
      1  N         24.3950   42.1680   60.8220 N.3   437  PRO437     -0.2102
      2  CA        23.3520   42.5730   59.8770 C.3   437  PRO437      0.1504
      3  C         22.2640   41.5240   59.6370 C.2   437  PRO437      0.2575
      4  O         21.7100   41.4960   58.5400 O.2   437  PRO437     -0.2718
      5  CB        24.1450   42.7810   58.5850 C.3   437  PRO437      0.0282
      6  CG        25.2040   41.7110   58.6540 C.3   437  PRO437      0.0208
      7  CD        25.5270   41.5230   60.1300 C.3   437  PRO437      0.0893
      8  N         21.9580   40.6840   60.6220 N.am  438  TYR438     -0.1977
      9  CA        20.8630   39.7240   60.4660 C.3   438  TYR438      0.1639
     10  C         19.5180   40.4370   60.3880 C.2   438  TYR438      0.2290
     11  O         19.2760   41.4080   61.1080 O.2   438  TYR438     -0.2864
     12  CB        20.8490   38.7030   61.6090 C.3   438  TYR438      0.0560
     13  CG        19.6420   37.7820   61.6210 C.ar  438  TYR438     -0.0198
     14  CD1       19.5780   36.6720   60.7880 C.ar  438  TYR438     -0.0009
     15  CD2       18.5760   38.0190   62.4780 C.ar  438  TYR438     -0.0009
     16  CE1       18.4810   35.8310   60.8030 C.ar  438  TYR438      0.0417
     17  CE2       17.4800   37.1860   62.5020 C.ar  438  TYR438      0.0417
     18  CZ        17.4370   36.0950   61.6650 C.ar  438  TYR438      0.1957
     19  OH        16.3380   35.2700   61.6980 O.3   438  TYR438     -0.2866
     20  N         15.0400   37.0050   57.1140 N.3   442  ASN442     -0.1225
     21  CA        15.9180   35.9090   56.7100 C.3   442  ASN442      0.1785
     22  C         15.5640   34.5920   57.3890 C.2   442  ASN442      0.2597
     23  O         15.7540   33.5180   56.8140 O.2   442  ASN442     -0.2718
     24  CB        17.3810   36.2430   57.0150 C.3   442  ASN442      0.1169
     25  CG        17.8630   37.4880   56.2960 C.2   442  ASN442      0.2627
     26  OD1       18.7640   38.1800   56.7680 O.2   442  ASN442     -0.2716
     27  ND2       17.2610   37.7830   55.1520 N.am  442  ASN442     -0.0877
     28  N         15.0550   34.6950   58.6150 N.am  443  LYS443     -0.1980
     29  CA        14.7850   33.5410   59.4770 C.3   443  LYS443      0.1596
     30  C         16.0380   32.7360   59.8380 C.2   443  LYS443      0.2287
     31  O         17.1250   32.9710   59.3030 O.2   443  LYS443     -0.2864
     32  CB        13.6790   32.6410   58.9110 C.3   443  LYS443      0.0298
     33  CG        12.2730   33.0760   59.3280 C.3   443  LYS443      0.0038
     34  CD        11.5510   33.7910   58.2030 C.3   443  LYS443      0.0206
     35  CE        10.2310   34.3860   58.6770 C.3   443  LYS443      0.1093
     36  NZ        10.4360   35.5830   59.5400 N.3   443  LYS443     -0.1314
     37  N         34.4380   35.3000   61.8880 N.3   649  HIS649     -0.1241
     38  CA        33.5230   35.9000   62.8570 C.3   649  HIS649      0.1621
     39  C         33.7830   35.3820   64.2700 C.2   649  HIS649      0.2264
     40  O         32.8590   35.0080   64.9920 O.2   649  HIS649     -0.2867
     41  CB        32.0650   35.6700   62.4420 C.3   649  HIS649      0.0745
     42  CG        31.7840   36.0120   61.0120 C.ar  649  HIS649      0.0817
     43  ND1       31.8050   37.3070   60.5390 N.ar  649  HIS649     -0.2268
     44  CD2       31.4820   35.2290   59.9500 C.ar  649  HIS649      0.1154
     45  CE1       31.5280   37.3050   59.2470 C.ar  649  HIS649      0.1986
     46  NE2       31.3270   36.0570   58.8650 N.ar  649  HIS649     -0.2212
     47  N         28.8100   35.1890   66.2650 N.3   667  ARG667     -0.1245
     48  CA        27.4910   35.0190   65.6540 C.3   667  ARG667      0.1563
     49  C         26.5460   34.1060   66.4310 C.2   667  ARG667      0.2260
     50  O         26.9740   33.1410   67.0690 O.2   667  ARG667     -0.2867
     51  CB        27.6320   34.5050   64.2170 C.3   667  ARG667      0.0307
     52  CG        28.4380   35.4170   63.2960 C.3   667  ARG667      0.0489
     53  CD        28.2890   34.9980   61.8440 C.3   667  ARG667      0.2205
     54  NE        26.9080   35.1250   61.3900 N.pl3 667  ARG667     -0.0865
     55  CZ        26.4300   34.5630   60.2850 C.cat 667  ARG667      0.5346
     56  NH1       27.2210   33.8290   59.5190 N.pl3 667  ARG667      0.1354
     57  NH2       25.1580   34.7290   59.9530 N.pl3 667  ARG667      0.1354
     58  N         21.1330   33.4580   62.2290 N.3   670  GLY670     -0.1210
     59  CA        21.3260   33.3380   60.7940 C.3   670  GLY670      0.1956
     60  C         22.3140   32.2580   60.3950 C.2   670  GLY670      0.2611
     61  O         22.6860   32.1510   59.2260 O.2   670  GLY670     -0.2717
     62  N         22.7490   31.4660   61.3700 N.am  671  LEU671     -0.1979
     63  CA        23.6160   30.3210   61.1120 C.3   671  LEU671      0.1596
     64  C         23.2430   29.2150   62.0860 C.2   671  LEU671      0.2287
     65  O         22.6870   29.4910   63.1460 O.2   671  LEU671     -0.2864
     66  CB        25.0970   30.6950   61.2650 C.3   671  LEU671      0.0297
     67  CG        25.7290   30.6940   62.6610 C.3   671  LEU671      0.0022
     68  CD1       27.2290   30.9230   62.5740 C.3   671  LEU671      0.0001
     69  CD2       25.1010   31.7410   63.5620 C.3   671  LEU671      0.0001
     70  N         27.1450   25.0430   61.8180 N.3   675  GLN675     -0.1245
     71  CA        27.8960   26.0460   61.0750 C.3   675  GLN675      0.1566
     72  C         28.7870   26.8830   61.9850 C.2   675  GLN675      0.2260
     73  O         29.8680   27.3020   61.5840 O.2   675  GLN675     -0.2867
     74  CB        26.9380   26.9500   60.2930 C.3   675  GLN675      0.0367
     75  CG        26.2440   26.2550   59.1220 C.3   675  GLN675      0.0905
     76  CD        25.1900   27.1220   58.4630 C.2   675  GLN675      0.2608
     77  OE1       24.5270   27.9220   59.1220 O.2   675  GLN675     -0.2717
     78  NE2       25.0310   26.9680   57.1550 N.am  675  GLN675     -0.0878
     79  N         32.8920   26.6910   61.8700 N.3   679  ASP679     -0.1239
     80  CA        33.5960   27.9600   61.6870 C.3   679  ASP679      0.1674
     81  C         34.6110   28.2130   62.8020 C.2   679  ASP679      0.2266
     82  O         35.7020   28.7300   62.5600 O.2   679  ASP679     -0.2867
     83  CB        32.6030   29.1240   61.6230 C.3   679  ASP679      0.1410
     84  CG        31.8180   29.1570   60.3260 C.2   679  ASP679      0.3668
     85  OD1       32.2450   28.5110   59.3470 O.co2 679  ASP679     -0.2456
     86  OD2       30.7710   29.8390   60.2880 O.co2 679  ASP679     -0.2456
@<TRIPOS>BOND
     1    27    25   am
     2    25    26    2
     3    25    24    1
     4    21    24    1
     5    21    20    1
     6    21    22    1
     7    23    22    2
     8    78    76   am
     9    22    28   am
    10    34    35    1
    11    34    33    1
    12    76    75    1
    13    76    77    2
    14     4     3    2
    15     5     6    1
    16     5     2    1
    17    28    29    1
    18     6     7    1
    19    35    36    1
    20    46    45   ar
    21    46    44   ar
    22    32    33    1
    23    32    29    1
    24    75    74    1
    25    61    60    2
    26    45    43   ar
    27    31    30    2
    28    85    84   ar
    29    29    30    1
    30    56    55    1
    31     3     2    1
    32     3     8   am
    33     2     1    1
    34    44    42   ar
    35    57    55    1
    36     7     1    1
    37    55    54    2
    38    86    84   ar
    39    74    71    1
    40    84    83    1
    41    10     9    1
    42    10    11    2
    43    60    59    1
    44    60    62   am
    45     9     8    1
    46     9    12    1
    47    43    42   ar
    48    14    16   ar
    49    14    13   ar
    50    59    58    1
    51    16    18   ar
    52    42    41    1
    53    71    70    1
    54    71    72    1
    55    63    66    1
    56    63    62    1
    57    63    64    1
    58    66    67    1
    59    54    53    1
    60    73    72    2
    61    12    13    1
    62    13    15   ar
    63    83    80    1
    64    18    19    1
    65    18    17   ar
    66    80    79    1
    67    80    81    1
    68    53    52    1
    69    37    38    1
    70    64    65    2
    71    41    38    1
    72    15    17   ar
    73    82    81    2
    74    68    67    1
    75    67    69    1
    76    38    39    1
    77    52    51    1
    78    51    48    1
    79    39    40    2
    80    48    47    1
    81    48    49    1
    82    49    50    2
