@<TRIPOS>MOLECULE
tmp/4rf8B00.pdb
 131 125 0 0 0
SMALL
GASTEIGER

@<TRIPOS>ATOM
      1  N          7.6100   36.0010  100.9550 N.3   125  SER125     -0.1202
      2  CA         7.4430   34.7890  101.7420 C.3   125  SER125      0.2020
      3  C          6.1990   34.8530  102.6170 C.2   125  SER125      0.2619
      4  O          5.6900   35.9360  102.9250 O.2   125  SER125     -0.2717
      5  CB         8.6800   34.5330  102.6060 C.3   125  SER125      0.2103
      6  OG         8.8940   35.5920  103.5220 O.3   125  SER125     -0.2182
      7  N          5.7240   33.6770  103.0130 N.am  126  THR126     -0.1938
      8  CA         4.5250   33.5440  103.8220 C.3   126  THR126      0.2028
      9  C          4.8050   32.5700  104.9630 C.2   126  THR126      0.2642
     10  O          5.5450   31.6010  104.7870 O.2   126  THR126     -0.2714
     11  CB         3.3550   33.0410  102.9630 C.3   126  THR126      0.1808
     12  OG1        3.1170   33.9680  101.8960 O.3   126  THR126     -0.2208
     13  CG2        2.0880   32.9020  103.7900 C.3   126  THR126      0.0379
     14  N          4.2250   32.8310  106.1310 N.am  127  ARG127     -0.1977
     15  CA         4.4930   32.0230  107.3150 C.3   127  ARG127      0.1597
     16  C          3.2990   32.0540  108.2600 C.2   127  ARG127      0.2287
     17  O          2.7870   33.1280  108.5850 O.2   127  ARG127     -0.2864
     18  CB         5.7380   32.5560  108.0310 C.3   127  ARG127      0.0334
     19  CG         6.0920   31.8440  109.3330 C.3   127  ARG127      0.0492
     20  CD         7.2240   32.5780  110.0420 C.3   127  ARG127      0.2205
     21  NE         7.7280   31.8740  111.2180 N.pl3 127  ARG127     -0.0865
     22  CZ         7.2780   32.0590  112.4560 C.cat 127  ARG127      0.5346
     23  NH1        7.8040   31.3740  113.4610 N.pl3 127  ARG127      0.1354
     24  NH2        6.3020   32.9270  112.6920 N.pl3 127  ARG127      0.1354
     25  N          2.0440   30.4040  112.0600 N.3   129  ARG129     -0.1245
     26  CA         2.4820   29.7160  113.2710 C.3   129  ARG129      0.1563
     27  C          1.2970   29.5520  114.2150 C.2   129  ARG129      0.2260
     28  O          0.4970   30.4720  114.3590 O.2   129  ARG129     -0.2867
     29  CB         3.5910   30.5380  113.9540 C.3   129  ARG129      0.0307
     30  CG         4.0870   30.0140  115.3130 C.3   129  ARG129      0.0489
     31  CD         3.2920   30.5730  116.5030 C.3   129  ARG129      0.2205
     32  NE         3.6820   31.9270  116.8940 N.pl3 129  ARG129     -0.0865
     33  CZ         3.0560   32.6440  117.8240 C.cat 129  ARG129      0.5346
     34  NH1        2.0030   32.1420  118.4540 N.pl3 129  ARG129      0.1354
     35  NH2        3.4770   33.8660  118.1240 N.pl3 129  ARG129      0.1354
     36  N         17.5910   28.1730  110.2560 N.3   188  HIS188     -0.1241
     37  CA        16.8040   28.8840  111.2620 C.3   188  HIS188      0.1621
     38  C         15.7090   27.9730  111.8200 C.2   188  HIS188      0.2264
     39  O         14.5730   28.4020  112.0220 O.2   188  HIS188     -0.2867
     40  CB        16.1910   30.1700  110.6920 C.3   188  HIS188      0.0745
     41  CG        17.1920   31.1230  110.1150 C.ar  188  HIS188      0.0817
     42  ND1       16.8340   32.1580  109.2780 N.ar  188  HIS188     -0.2268
     43  CD2       18.5360   31.2010  110.2570 C.ar  188  HIS188      0.1154
     44  CE1       17.9150   32.8320  108.9270 C.ar  188  HIS188      0.1986
     45  NE2       18.9610   32.2720  109.5080 N.ar  188  HIS188     -0.2212
     46  N          8.3070   22.7880  116.6610 N.3   224  TRP224     -0.1241
     47  CA         9.1230   22.8510  117.8670 C.3   224  TRP224      0.1605
     48  C          8.3880   22.1320  118.9870 C.2   224  TRP224      0.2264
     49  O          7.2180   22.4120  119.2570 O.2   224  TRP224     -0.2867
     50  CB         9.4080   24.2970  118.2700 C.3   224  TRP224      0.0550
     51  CG        10.4600   24.9520  117.4310 C.ar  224  TRP224      0.0003
     52  CD1       11.1390   24.3970  116.3840 C.ar  224  TRP224      0.0946
     53  CD2       10.9570   26.2890  117.5660 C.ar  224  TRP224      0.0152
     54  NE1       12.0250   25.3060  115.8600 N.ar  224  TRP224     -0.2442
     55  CE2       11.9330   26.4770  116.5690 C.ar  224  TRP224      0.0810
     56  CE3       10.6680   27.3470  118.4340 C.ar  224  TRP224      0.0012
     57  CZ2       12.6240   27.6820  116.4130 C.ar  224  TRP224      0.0191
     58  CZ3       11.3540   28.5400  118.2800 C.ar  224  TRP224      0.0001
     59  CH2       12.3200   28.6980  117.2790 C.ar  224  TRP224      0.0015
     60  N          4.9670   24.2390  119.0120 N.3   232  ARG232     -0.1245
     61  CA         4.9760   25.3980  118.1300 C.3   232  ARG232      0.1563
     62  C          4.9700   24.8350  116.7140 C.2   232  ARG232      0.2260
     63  O          5.9260   24.1780  116.2970 O.2   232  ARG232     -0.2867
     64  CB         6.2170   26.2640  118.3580 C.3   232  ARG232      0.0307
     65  CG         5.9150   27.7530  118.5420 C.3   232  ARG232      0.0489
     66  CD         5.2760   28.0140  119.9020 C.3   232  ARG232      0.2205
     67  NE         4.6640   29.3370  120.0150 N.pl3 232  ARG232     -0.0865
     68  CZ         5.3320   30.4620  120.2560 C.cat 232  ARG232      0.5346
     69  NH1        6.6510   30.4440  120.3920 N.pl3 232  ARG232      0.1354
     70  NH2        4.6780   31.6120  120.3490 N.pl3 232  ARG232      0.1354
     71  N          5.3310   27.2800  106.3250 N.3   236  MET236     -0.1245
     72  CA         5.9020   28.4360  105.6390 C.3   236  MET236      0.1570
     73  C          6.4240   28.0840  104.2590 C.2   236  MET236      0.2261
     74  O          6.7490   26.9320  103.9830 O.2   236  MET236     -0.2867
     75  CB         7.0380   29.0530  106.4620 C.3   236  MET236      0.0387
     76  CG         8.2580   28.1570  106.6250 C.3   236  MET236      0.0595
     77  SD         7.8830   26.6680  107.5690 S.3   236  MET236     -0.1393
     78  CE         9.4990   25.8950  107.6390 C.3   236  MET236      0.0692
     79  N          0.1030   33.3050  114.8050 N.3   283  ARG283     -0.1245
     80  CA         0.7280   34.4350  114.1370 C.3   283  ARG283      0.1563
     81  C          0.8660   34.1050  112.6510 C.2   283  ARG283      0.2260
     82  O          1.6480   33.2310  112.2670 O.2   283  ARG283     -0.2867
     83  CB         2.0960   34.7410  114.7500 C.3   283  ARG283      0.0307
     84  CG         2.7640   35.9850  114.1860 C.3   283  ARG283      0.0489
     85  CD         4.1440   36.2110  114.7870 C.3   283  ARG283      0.2205
     86  NE         4.6940   37.5060  114.4000 N.pl3 283  ARG283     -0.0865
     87  CZ         5.4060   37.7190  113.2990 C.cat 283  ARG283      0.5346
     88  NH1        5.6610   36.7190  112.4670 N.pl3 283  ARG283      0.1354
     89  NH2        5.8640   38.9330  113.0280 N.pl3 283  ARG283      0.1354
     90  N          1.8480   35.6720  108.9810 N.3   285  SER285     -0.1202
     91  CA         2.5880   36.8200  108.4690 C.3   285  SER285      0.2020
     92  C          3.0590   36.6970  107.0200 C.2   285  SER285      0.2619
     93  O          3.0740   35.6100  106.4370 O.2   285  SER285     -0.2717
     94  CB         3.7860   37.1240  109.3690 C.3   285  SER285      0.2103
     95  OG         4.7680   36.1100  109.2740 O.3   285  SER285     -0.2182
     96  N          3.4500   37.8360  106.4590 N.am  286  VAL286     -0.1965
     97  CA         3.9410   37.9190  105.0940 C.3   286  VAL286      0.1727
     98  C          5.0390   38.9770  105.0300 C.2   286  VAL286      0.2616
     99  O          4.9150   40.0390  105.6420 O.2   286  VAL286     -0.2715
    100  CB         2.7930   38.2760  104.1180 C.3   286  VAL286      0.0290
    101  CG1        3.3020   39.0750  102.9370 C.3   286  VAL286      0.0023
    102  CG2        2.0790   37.0210  103.6440 C.3   286  VAL286      0.0023
    103  N          6.1230   38.6690  104.3240 N.am  287  HIS287     -0.1973
    104  CA         7.1260   39.6710  103.9990 C.3   287  HIS287      0.1656
    105  C          6.7460   40.2640  102.6480 C.2   287  HIS287      0.2291
    106  O          6.6320   39.5370  101.6600 O.2   287  HIS287     -0.2864
    107  CB         8.5260   39.0500  103.9370 C.3   287  HIS287      0.0771
    108  CG         9.0840   38.6720  105.2760 C.ar  287  HIS287      0.0820
    109  ND1        8.4190   38.9170  106.4590 N.ar  287  HIS287     -0.2267
    110  CD2       10.2470   38.0710  105.6160 C.ar  287  HIS287      0.1154
    111  CE1        9.1450   38.4800  107.4680 C.ar  287  HIS287      0.1986
    112  NE2       10.2640   37.9610  106.9860 N.ar  287  HIS287     -0.2212
    113  N          5.9260   45.7050  110.6970 N.3   311  ARG311     -0.1245
    114  CA         7.2290   45.9750  111.2880 C.3   311  ARG311      0.1563
    115  C          8.3330   45.8280  110.2500 C.2   311  ARG311      0.2260
    116  O          8.3190   44.8990  109.4380 O.2   311  ARG311     -0.2867
    117  CB         7.4920   45.0870  112.5120 C.3   311  ARG311      0.0307
    118  CG         7.6300   43.6010  112.2240 C.3   311  ARG311      0.0489
    119  CD         8.0910   42.8460  113.4660 C.3   311  ARG311      0.2205
    120  NE         8.4600   41.4660  113.1660 N.pl3 311  ARG311     -0.0865
    121  CZ         9.6670   41.0850  112.7590 C.cat 311  ARG311      0.5346
    122  NH1       10.6330   41.9810  112.6000 N.pl3 311  ARG311      0.1354
    123  NH2        9.9070   39.8050  112.5100 N.pl3 311  ARG311      0.1354
    124  N          7.2970   43.1590  107.4910 N.3   319  ASP319     -0.1239
    125  CA         6.6090   41.9900  108.0170 C.3   319  ASP319      0.1674
    126  C          5.1990   42.4170  108.4010 C.2   319  ASP319      0.2266
    127  O          5.0160   43.2160  109.3210 O.2   319  ASP319     -0.2867
    128  CB         7.3480   41.4410  109.2410 C.3   319  ASP319      0.1410
    129  CG         6.6300   40.2630  109.8830 C.2   319  ASP319      0.3668
    130  OD1        6.9150   39.1100  109.4990 O.co2 319  ASP319     -0.2456
    131  OD2        5.7920   40.4910  110.7810 O.co2 319  ASP319     -0.2456
@<TRIPOS>BOND
     1     1     2    1
     2   106   105    2
     3     2     5    1
     4     2     3    1
     5    12    11    1
     6     5     6    1
     7     3     4    2
     8     3     7   am
     9   105   104    1
    10   101   100    1
    11    11    13    1
    12    11     8    1
    13     7     8    1
    14   102   100    1
    15     8     9    1
    16   107   104    1
    17   107   108    1
    18    74    73    2
    19   104   103    1
    20   100    97    1
    21    73    72    1
    22   103    98   am
    23    10     9    2
    24     9    14   am
    25    98    97    1
    26    98    99    2
    27    97    96    1
    28   108   110   ar
    29   108   109   ar
    30   110   112   ar
    31    72    71    1
    32    72    75    1
    33    14    15    1
    34    93    92    2
    35   109   111   ar
    36    96    92   am
    37    75    76    1
    38    76    77    1
    39   112   111   ar
    40    92    91    1
    41    15    18    1
    42    15    16    1
    43   124   125    1
    44    77    78    1
    45   125   126    1
    46   125   128    1
    47    18    19    1
    48    16    17    2
    49   126   127    2
    50    91    90    1
    51    91    94    1
    52    44    42   ar
    53    44    45   ar
    54   128   129    1
    55    95    94    1
    56    42    41   ar
    57    19    20    1
    58   116   115    2
    59   130   129   ar
    60    45    43   ar
    61   129   131   ar
    62    20    21    1
    63    41    43   ar
    64    41    40    1
    65   115   114    1
    66    36    37    1
    67    40    37    1
    68   113   114    1
    69    21    22    2
    70    37    38    1
    71   114   117    1
    72    38    39    2
    73    25    26    1
    74   118   117    1
    75   118   119    1
    76    82    81    2
    77    22    24    1
    78    22    23    1
    79    88    87    1
    80   123   121    1
    81   122   121    1
    82    81    80    1
    83   121   120    2
    84    89    87    1
    85   120   119    1
    86    26    29    1
    87    26    27    1
    88    87    86    2
    89    29    30    1
    90    80    83    1
    91    80    79    1
    92    84    83    1
    93    84    85    1
    94    27    28    2
    95    86    85    1
    96    30    31    1
    97    54    52   ar
    98    54    55   ar
    99    63    62    2
   100    52    51   ar
   101    57    55   ar
   102    57    59   ar
   103    31    32    1
   104    55    53   ar
   105    46    47    1
   106    62    61    1
   107    32    33    2
   108    59    58   ar
   109    51    53   ar
   110    51    50    1
   111    53    56   ar
   112    33    35    1
   113    33    34    1
   114    47    50    1
   115    47    48    1
   116    61    64    1
   117    61    60    1
   118    58    56   ar
   119    64    65    1
   120    65    66    1
   121    48    49    2
   122    66    67    1
   123    67    68    2
   124    68    70    1
   125    68    69    1
