@<TRIPOS>MOLECULE
tmp/4rf9B00.pdb
 137 128 0 0 0
SMALL
GASTEIGER

@<TRIPOS>ATOM
      1  N          6.1750   36.6330   99.7790 N.3   126  SER126     -0.1202
      2  CA         5.9610   35.4250  100.5750 C.3   126  SER126      0.2020
      3  C          4.7360   35.5320  101.4800 C.2   126  SER126      0.2619
      4  O          4.3320   36.6260  101.8710 O.2   126  SER126     -0.2717
      5  CB         7.2070   35.1050  101.4080 C.3   126  SER126      0.2103
      6  OG         7.6310   36.2330  102.1510 O.3   126  SER126     -0.2182
      7  N          4.1530   34.3830  101.7990 N.am  127  THR127     -0.1938
      8  CA         2.9970   34.3110  102.6800 C.3   127  THR127      0.2028
      9  C          3.2660   33.2810  103.7740 C.2   127  THR127      0.2642
     10  O          3.9500   32.2860  103.5420 O.2   127  THR127     -0.2714
     11  CB         1.7210   33.9230  101.9030 C.3   127  THR127      0.1808
     12  OG1        1.5680   34.7940  100.7780 O.3   127  THR127     -0.2208
     13  CG2        0.4870   34.0250  102.7910 C.3   127  THR127      0.0379
     14  N          2.7340   33.5290  104.9660 N.am  128  ARG128     -0.1977
     15  CA         2.9770   32.6560  106.1060 C.3   128  ARG128      0.1597
     16  C          1.7890   32.6430  107.0560 C.2   128  ARG128      0.2287
     17  O          1.2270   33.6890  107.3760 O.2   128  ARG128     -0.2864
     18  CB         4.2290   33.1110  106.8460 C.3   128  ARG128      0.0334
     19  CG         4.6440   32.2120  107.9940 C.3   128  ARG128      0.0492
     20  CD         5.8060   32.8340  108.7420 C.3   128  ARG128      0.2205
     21  NE         6.4050   31.9320  109.7220 N.pl3 128  ARG128     -0.0865
     22  CZ         6.0180   31.8430  110.9890 C.cat 128  ARG128      0.5346
     23  NH1        6.6300   31.0030  111.8110 N.pl3 128  ARG128      0.1354
     24  NH2        5.0240   32.5970  111.4380 N.pl3 128  ARG128      0.1354
     25  N          0.6170   30.8340  110.8330 N.3   130  ARG130     -0.1245
     26  CA         0.9510   30.0390  112.0090 C.3   130  ARG130      0.1563
     27  C         -0.2760   29.8890  112.8970 C.2   130  ARG130      0.2260
     28  O         -1.0530   30.8260  113.0380 O.2   130  ARG130     -0.2867
     29  CB         2.0860   30.7140  112.7960 C.3   130  ARG130      0.0307
     30  CG         2.4340   30.0670  114.1420 C.3   130  ARG130      0.0489
     31  CD         1.6620   30.6840  115.3170 C.3   130  ARG130      0.2205
     32  NE         2.2110   31.9620  115.7550 N.pl3 130  ARG130     -0.0865
     33  CZ         1.6310   32.7520  116.6550 C.cat 130  ARG130      0.5346
     34  NH1        0.4770   32.3980  117.2040 N.pl3 130  ARG130      0.1354
     35  NH2        2.2010   33.8990  117.0020 N.pl3 130  ARG130      0.1354
     36  N          6.3800   22.7620  115.1890 N.3   225  TRP225     -0.1241
     37  CA         7.1560   22.7500  116.4230 C.3   225  TRP225      0.1605
     38  C          6.3800   22.0090  117.5080 C.2   225  TRP225      0.2264
     39  O          5.2450   22.3640  117.8300 O.2   225  TRP225     -0.2867
     40  CB         7.5020   24.1700  116.8700 C.3   225  TRP225      0.0550
     41  CG         8.6090   24.8000  116.0720 C.ar  225  TRP225      0.0003
     42  CD1        9.2120   24.2880  114.9600 C.ar  225  TRP225      0.0946
     43  CD2        9.2480   26.0550  116.3320 C.ar  225  TRP225      0.0152
     44  NE1       10.1840   25.1510  114.5100 N.ar  225  TRP225     -0.2442
     45  CE2       10.2260   26.2430  115.3350 C.ar  225  TRP225      0.0810
     46  CE3        9.0860   27.0410  117.3120 C.ar  225  TRP225      0.0012
     47  CZ2       11.0380   27.3750  115.2890 C.ar  225  TRP225      0.0191
     48  CZ3        9.8940   28.1640  117.2630 C.ar  225  TRP225      0.0001
     49  CH2       10.8560   28.3210  116.2590 C.ar  225  TRP225      0.0015
     50  N          7.0150   23.2050  122.2730 N.3   228  GLU228     -0.1231
     51  CA         7.8530   24.3610  122.5590 C.3   228  GLU228      0.1699
     52  C          7.1730   25.2180  123.6240 C.2   228  GLU228      0.2592
     53  O          7.2790   24.9310  124.8150 O.2   228  GLU228     -0.2718
     54  CB         8.1260   25.1790  121.2920 C.3   228  GLU228      0.0402
     55  CG         9.2200   26.2330  121.4530 C.3   228  GLU228      0.1161
     56  CD         8.7120   27.6490  121.2590 C.2   228  GLU228      0.3649
     57  OE1        9.4950   28.6010  121.4720 O.co2 228  GLU228     -0.2457
     58  OE2        7.5300   27.8170  120.8900 O.co2 228  GLU228     -0.2457
     59  N          6.4690   26.2610  123.1900 N.am  229  GLU229     -0.1979
     60  CA         5.7130   27.1090  124.1060 C.3   229  GLU229      0.1602
     61  C          4.3030   26.5590  124.2720 C.2   229  GLU229      0.2287
     62  O          3.6640   26.7460  125.3050 O.2   229  GLU229     -0.2864
     63  CB         5.6590   28.5480  123.6000 C.3   229  GLU229      0.0415
     64  CG         4.9260   29.4960  124.5340 C.3   229  GLU229      0.1163
     65  CD         4.8850   30.9140  124.0090 C.2   229  GLU229      0.3649
     66  OE1        5.9220   31.3930  123.5080 O.co2 229  GLU229     -0.2457
     67  OE2        3.8130   31.5480  124.0980 O.co2 229  GLU229     -0.2457
     68  N          2.9420   24.1690  117.5180 N.3   233  ARG233     -0.1245
     69  CA         3.0650   25.4030  116.7570 C.3   233  ARG233      0.1563
     70  C          3.0980   25.0040  115.2860 C.2   233  ARG233      0.2260
     71  O          4.0980   24.4740  114.8020 O.2   233  ARG233     -0.2867
     72  CB         4.3460   26.1440  117.1330 C.3   233  ARG233      0.0307
     73  CG         4.4120   27.5740  116.6260 C.3   233  ARG233      0.0489
     74  CD         5.8400   27.9590  116.2900 C.3   233  ARG233      0.2205
     75  NE         5.9720   29.3800  115.9950 N.pl3 233  ARG233     -0.0865
     76  CZ         7.0030   29.9120  115.3450 C.cat 233  ARG233      0.5346
     77  NH1        7.9880   29.1380  114.9100 N.pl3 233  ARG233      0.1354
     78  NH2        7.0450   31.2170  115.1220 N.pl3 233  ARG233      0.1354
     79  N          3.8630   27.9160  104.9940 N.3   237  MET237     -0.1245
     80  CA         4.5010   29.0630  104.3590 C.3   237  MET237      0.1570
     81  C          5.0520   28.7260  102.9820 C.2   237  MET237      0.2261
     82  O          5.3680   27.5750  102.6940 O.2   237  MET237     -0.2867
     83  CB         5.6320   29.5960  105.2380 C.3   237  MET237      0.0387
     84  CG         6.8080   28.6320  105.4000 C.3   237  MET237      0.0595
     85  SD         6.3800   27.1360  106.3220 S.3   237  MET237     -0.1393
     86  CE         7.9510   26.2730  106.3900 C.3   237  MET237      0.0692
     87  N         -2.0600   34.2690  122.6380 N.3   278  ASN278     -0.1240
     88  CA        -2.2960   33.3440  121.5340 C.3   278  ASN278      0.1653
     89  C         -3.6270   32.5980  121.6260 C.2   278  ASN278      0.2266
     90  O         -3.7830   31.5320  121.0380 O.2   278  ASN278     -0.2867
     91  CB        -1.1450   32.3350  121.4320 C.3   278  ASN278      0.1155
     92  CG         0.1270   32.9490  120.8780 C.2   278  ASN278      0.2627
     93  OD1        0.0930   33.7210  119.9200 O.2   278  ASN278     -0.2716
     94  ND2        1.2610   32.6050  121.4800 N.am  278  ASN278     -0.0877
     95  N         -1.0750   33.7930  113.6650 N.3   284  ARG284     -0.1245
     96  CA        -0.4110   34.9170  113.0340 C.3   284  ARG284      0.1563
     97  C         -0.3340   34.6520  111.5340 C.2   284  ARG284      0.2260
     98  O          0.3590   33.7370  111.0910 O.2   284  ARG284     -0.2867
     99  CB         0.9870   35.1370  113.6040 C.3   284  ARG284      0.0307
    100  CG         1.6690   36.3550  113.0090 C.3   284  ARG284      0.0489
    101  CD         3.0510   36.5850  113.5850 C.3   284  ARG284      0.2205
    102  NE         3.6140   37.8580  113.1420 N.pl3 284  ARG284     -0.0865
    103  CZ         4.3010   38.0220  112.0160 C.cat 284  ARG284      0.5346
    104  NH1        4.5150   36.9910  111.2110 N.pl3 284  ARG284      0.1354
    105  NH2        4.7740   39.2180  111.6930 N.pl3 284  ARG284      0.1354
    106  N          0.6680   36.3010  107.8630 N.3   286  SER286     -0.1217
    107  CA         1.5330   37.3810  107.4020 C.3   286  SER286      0.1889
    108  C          1.8970   37.3070  105.9210 C.2   286  SER286      0.2288
    109  O          1.8950   36.2350  105.3190 O.2   286  SER286     -0.2866
    110  CB         2.8050   37.4240  108.2480 C.3   286  SER286      0.2089
    111  OG         3.3460   36.1250  108.3870 O.3   286  SER286     -0.2183
    112  N          4.7610   39.3220  103.1270 N.3   288  HIS288     -0.1241
    113  CA         5.7790   40.3100  102.7770 C.3   288  HIS288      0.1621
    114  C          5.4410   40.9540  101.4370 C.2   288  HIS288      0.2264
    115  O          5.3980   40.2750  100.4130 O.2   288  HIS288     -0.2867
    116  CB         7.1610   39.6560  102.7140 C.3   288  HIS288      0.0745
    117  CG         7.6900   39.2430  104.0510 C.ar  288  HIS288      0.0817
    118  ND1        8.9140   38.6280  104.2120 N.ar  288  HIS288     -0.2268
    119  CD2        7.1600   39.3600  105.2910 C.ar  288  HIS288      0.1154
    120  CE1        9.1140   38.3830  105.4950 C.ar  288  HIS288      0.1986
    121  NE2        8.0650   38.8170  106.1710 N.ar  288  HIS288     -0.2212
    122  N         10.2990   44.8800  107.7970 N.3   314  ILE314     -0.1245
    123  CA        11.3880   43.9350  108.0230 C.3   314  ILE314      0.1561
    124  C         11.2660   42.7240  107.1010 C.2   314  ILE314      0.2260
    125  O         11.3980   42.8440  105.8820 O.2   314  ILE314     -0.2867
    126  CB        11.4480   43.4600  109.4940 C.3   314  ILE314      0.0252
    127  CG1       12.8960   43.4540  109.9930 C.3   314  ILE314      0.0019
    128  CG2       10.7950   42.0880  109.6530 C.3   314  ILE314      0.0019
    129  CD1       13.4780   44.8390  110.2000 C.3   314  ILE314      0.0001
    130  N          6.0440   43.8620  106.1540 N.3   321  ASP321     -0.1239
    131  CA         5.4080   42.7050  106.7500 C.3   321  ASP321      0.1674
    132  C          4.0120   43.1100  107.1990 C.2   321  ASP321      0.2266
    133  O          3.8510   43.9080  108.1230 O.2   321  ASP321     -0.2867
    134  CB         6.2270   42.2060  107.9460 C.3   321  ASP321      0.1410
    135  CG         5.7280   40.8710  108.4850 C.2   321  ASP321      0.3668
    136  OD1        4.5460   40.5370  108.2690 O.co2 321  ASP321     -0.2456
    137  OD2        6.5210   40.1570  109.1300 O.co2 321  ASP321     -0.2456
@<TRIPOS>BOND
     1     1     2    1
     2   115   114    2
     3     2     5    1
     4     2     3    1
     5    12    11    1
     6     5     6    1
     7   114   113    1
     8     3     7   am
     9     3     4    2
    10     7     8    1
    11    11     8    1
    12    11    13    1
    13     8     9    1
    14    82    81    2
    15   116   113    1
    16   116   117    1
    17   113   112    1
    18    81    80    1
    19    10     9    2
    20     9    14   am
    21   117   118   ar
    22   117   119   ar
    23   118   120   ar
    24    80    79    1
    25    80    83    1
    26    14    15    1
    27    83    84    1
    28   119   121   ar
    29   109   108    2
    30    84    85    1
    31   120   121   ar
    32   125   124    2
    33   108   107    1
    34    15    18    1
    35    15    16    1
    36   130   131    1
    37    85    86    1
    38   131   132    1
    39   131   134    1
    40    18    19    1
    41    16    17    2
    42   124   123    1
    43   132   133    2
    44   107   106    1
    45   107   110    1
    46   122   123    1
    47   134   135    1
    48    19    20    1
    49   123   126    1
    50   110   111    1
    51   136   135   ar
    52   135   137   ar
    53    20    21    1
    54   126   128    1
    55   126   127    1
    56    21    22    2
    57   127   129    1
    58    25    26    1
    59    22    24    1
    60    22    23    1
    61    98    97    2
    62   104   103    1
    63    97    96    1
    64   105   103    1
    65    26    29    1
    66    26    27    1
    67   103   102    2
    68    29    30    1
    69    27    28    2
    70   100   101    1
    71   100    99    1
    72    96    99    1
    73    96    95    1
    74   102   101    1
    75    30    31    1
    76    44    42   ar
    77    44    45   ar
    78    71    70    2
    79    77    76    1
    80    42    41   ar
    81    78    76    1
    82    36    37    1
    83    70    69    1
    84    47    45   ar
    85    47    49   ar
    86    31    32    1
    87    45    43   ar
    88    76    75    2
    89    32    33    2
    90    75    74    1
    91    41    43   ar
    92    41    40    1
    93    49    48   ar
    94    74    73    1
    95    43    46   ar
    96    37    40    1
    97    37    38    1
    98    73    72    1
    99    33    35    1
   100    33    34    1
   101    69    72    1
   102    69    68    1
   103    48    46   ar
   104    38    39    2
   105    93    92    2
   106    92    91    1
   107    92    94   am
   108    58    56   ar
   109    90    89    2
   110    56    55    1
   111    56    57   ar
   112    54    55    1
   113    54    51    1
   114    91    88    1
   115    88    89    1
   116    88    87    1
   117    50    51    1
   118    51    52    1
   119    59    52   am
   120    59    60    1
   121    66    65   ar
   122    63    60    1
   123    63    64    1
   124    52    53    2
   125    65    67   ar
   126    65    64    1
   127    60    61    1
   128    61    62    2
