@<TRIPOS>MOLECULE
tmp/4rfbA00.pdb
 103 99 0 0 0
SMALL
GASTEIGER

@<TRIPOS>ATOM
      1  N        -12.0710  -14.4570   39.8740 N.3   124  LEU124     -0.1245
      2  CA       -13.3850  -13.9460   40.2080 C.3   124  LEU124      0.1561
      3  C        -14.4150  -14.5430   39.2840 C.2   124  LEU124      0.2260
      4  O        -15.5640  -14.7630   39.6800 O.2   124  LEU124     -0.2867
      5  CB       -13.4280  -12.4050   40.1450 C.3   124  LEU124      0.0270
      6  CG       -12.5800  -11.6810   41.2160 C.3   124  LEU124      0.0019
      7  CD1      -12.8130  -10.1850   41.1520 C.3   124  LEU124      0.0001
      8  CD2      -12.8930  -12.1710   42.6340 C.3   124  LEU124      0.0001
      9  N        -10.1370   -7.2030   53.3350 N.3   160  LYS160     -0.1231
     10  CA       -10.5390   -7.1740   51.9330 C.3   160  LYS160      0.1693
     11  C        -11.8190   -7.9460   51.5900 C.2   160  LYS160      0.2592
     12  O        -12.1450   -8.9690   52.2200 O.2   160  LYS160     -0.2718
     13  CB        -9.3670   -7.6550   51.0750 C.3   160  LYS160      0.0285
     14  CG        -8.1350   -6.7590   51.2320 C.3   160  LYS160      0.0035
     15  CD        -6.9680   -7.2830   50.4320 C.3   160  LYS160      0.0206
     16  CE        -5.6800   -6.5830   50.8600 C.3   160  LYS160      0.1093
     17  NZ        -5.7140   -5.1240   50.5830 N.3   160  LYS160     -0.1314
     18  N        -12.5560   -7.4370   50.6040 N.am  161  PHE161     -0.1962
     19  CA       -13.7410   -8.1100   50.1000 C.3   161  PHE161      0.1771
     20  C        -13.9220   -7.8540   48.6170 C.2   161  PHE161      0.2620
     21  O        -13.3220   -6.9120   48.0350 O.2   161  PHE161     -0.2715
     22  CB       -15.0140   -7.7150   50.8740 C.3   161  PHE161      0.0574
     23  CG       -15.3840   -6.2550   50.7370 C.ar  161  PHE161     -0.0200
     24  CD1      -16.2370   -5.8420   49.7450 C.ar  161  PHE161     -0.0042
     25  CD2      -14.8960   -5.3200   51.6320 C.ar  161  PHE161     -0.0042
     26  CE1      -16.5890   -4.4890   49.6050 C.ar  161  PHE161     -0.0003
     27  CE2      -15.2310   -3.9540   51.5080 C.ar  161  PHE161     -0.0003
     28  CZ       -16.0670   -3.5430   50.4850 C.ar  161  PHE161     -0.0000
     29  N        -14.7490   -8.6990   48.0040 N.am  162  TYR162     -0.1960
     30  CA       -15.0620   -8.6200   46.5920 C.3   162  TYR162      0.1771
     31  C        -16.5720   -8.8160   46.4580 C.2   162  TYR162      0.2620
     32  O        -17.1510   -9.6940   47.1190 O.2   162  TYR162     -0.2715
     33  CB       -14.3130   -9.6950   45.8290 C.3   162  TYR162      0.0574
     34  CG       -12.8420   -9.5740   46.0510 C.ar  162  TYR162     -0.0198
     35  CD1      -12.0670   -8.7640   45.2470 C.ar  162  TYR162     -0.0009
     36  CD2      -12.2380  -10.2160   47.1210 C.ar  162  TYR162     -0.0009
     37  CE1      -10.7000   -8.6060   45.4790 C.ar  162  TYR162      0.0417
     38  CE2      -10.8800  -10.0700   47.3450 C.ar  162  TYR162      0.0417
     39  CZ       -10.1330   -9.2810   46.5390 C.ar  162  TYR162      0.1957
     40  OH        -8.8050   -9.1500   46.8190 O.3   162  TYR162     -0.2866
     41  N        -17.2140   -7.9950   45.6550 N.am  163  THR163     -0.1951
     42  CA       -18.6720   -8.0750   45.5300 C.3   163  THR163      0.1897
     43  C        -19.1470   -8.4270   44.1290 C.2   163  THR163      0.2313
     44  O        -18.5570   -7.9740   43.1370 O.2   163  THR163     -0.2863
     45  CB       -19.3150   -6.7290   45.9140 C.3   163  THR163      0.1794
     46  OG1      -18.8730   -6.3290   47.2110 O.3   163  THR163     -0.2208
     47  CG2      -20.8470   -6.8110   45.9330 C.3   163  THR163      0.0378
     48  N        -22.7210   -8.2200   42.0930 N.3   165  GLU165     -0.1245
     49  CA       -24.0840   -7.6670   42.1060 C.3   165  GLU165      0.1567
     50  C        -24.9940   -8.5710   41.2800 C.2   165  GLU165      0.2260
     51  O        -24.7230   -8.7910   40.0910 O.2   165  GLU165     -0.2867
     52  CB       -24.0610   -6.2590   41.4960 C.3   165  GLU165      0.0388
     53  CG       -23.3900   -5.2210   42.3660 C.3   165  GLU165      0.1160
     54  CD       -24.1880   -4.8940   43.6350 C.2   165  GLU165      0.3649
     55  OE1      -25.4310   -5.1050   43.6560 O.co2 165  GLU165     -0.2457
     56  OE2      -23.5690   -4.4180   44.6210 O.co2 165  GLU165     -0.2457
     57  N        -26.5230   -7.5840   37.5960 N.3   168  LYS168     -0.1245
     58  CA       -25.7390   -7.4870   36.3710 C.3   168  LYS168      0.1561
     59  C        -24.7510   -8.6300   36.2430 C.2   168  LYS168      0.2260
     60  O        -24.4310   -9.2750   37.2120 O.2   168  LYS168     -0.2867
     61  CB       -25.0040   -6.1370   36.2760 C.3   168  LYS168      0.0271
     62  CG       -24.1130   -5.8230   37.4380 C.3   168  LYS168      0.0035
     63  CD       -23.3570   -4.4940   37.2790 C.3   168  LYS168      0.0206
     64  CE       -22.3750   -4.3710   38.4330 C.3   168  LYS168      0.1093
     65  NZ       -21.2970   -3.3540   38.3290 N.3   168  LYS168     -0.1314
     66  N        -18.4700   -8.0300   35.2170 N.3   171  GLN171     -0.1245
     67  CA       -17.8990   -7.3220   34.0820 C.3   171  GLN171      0.1566
     68  C        -16.6440   -7.9920   33.5600 C.2   171  GLN171      0.2260
     69  O        -15.8530   -8.5570   34.3360 O.2   171  GLN171     -0.2867
     70  CB       -17.6490   -5.8910   34.4480 C.3   171  GLN171      0.0367
     71  CG       -18.9420   -5.1980   34.8360 C.3   171  GLN171      0.0905
     72  CD       -18.6860   -4.0940   35.8250 C.2   171  GLN171      0.2608
     73  OE1      -19.1300   -4.1460   36.9730 O.2   171  GLN171     -0.2717
     74  NE2      -17.9120   -3.1090   35.4090 N.am  171  GLN171     -0.0878
     75  N        -13.7560   -7.0270   32.5280 N.3   173  HIS173     -0.1226
     76  CA       -12.4480   -6.6600   33.0530 C.3   173  HIS173      0.1752
     77  C        -12.1830   -7.1770   34.4420 C.2   173  HIS173      0.2595
     78  O        -11.0880   -7.0090   34.9120 O.2   173  HIS173     -0.2718
     79  CB       -12.2290   -5.1400   33.0430 C.3   173  HIS173      0.0759
     80  CG       -13.1580   -4.4040   33.9440 C.ar  173  HIS173      0.0818
     81  ND1      -14.4330   -4.0570   33.5610 N.ar  173  HIS173     -0.2268
     82  CD2      -13.0160   -3.9850   35.2200 C.ar  173  HIS173      0.1154
     83  CE1      -15.0260   -3.4300   34.5580 C.ar  173  HIS173      0.1986
     84  NE2      -14.1880   -3.3770   35.5750 N.ar  173  HIS173     -0.2212
     85  N        -13.1850   -7.7580   35.1070 N.am  174  ARG174     -0.1980
     86  CA       -13.0110   -8.3450   36.4310 C.3   174  ARG174      0.1597
     87  C        -12.8720   -9.8720   36.3510 C.2   174  ARG174      0.2287
     88  O        -12.4540  -10.5090   37.3170 O.2   174  ARG174     -0.2864
     89  CB       -14.1740   -7.9900   37.3670 C.3   174  ARG174      0.0334
     90  CG       -14.3260   -6.5260   37.7130 C.3   174  ARG174      0.0492
     91  CD       -15.5410   -6.2750   38.5650 C.3   174  ARG174      0.2205
     92  NE       -15.3610   -6.9120   39.8780 N.pl3 174  ARG174     -0.0865
     93  CZ       -16.3540   -7.2890   40.6780 C.cat 174  ARG174      0.5346
     94  NH1      -17.6160   -7.1760   40.3060 N.pl3 174  ARG174      0.1354
     95  NH2      -16.0600   -7.8330   41.8390 N.pl3 174  ARG174      0.1354
     96  N         -9.3900  -11.2290   37.1890 N.3   177  ASP177     -0.1239
     97  CA        -8.8000  -10.9210   38.4940 C.3   177  ASP177      0.1674
     98  C         -8.7720  -12.2050   39.3220 C.2   177  ASP177      0.2266
     99  O         -9.7040  -12.9900   39.2530 O.2   177  ASP177     -0.2867
    100  CB        -9.6250   -9.8570   39.2330 C.3   177  ASP177      0.1410
    101  CG        -9.5640   -8.4960   38.5710 C.2   177  ASP177      0.3668
    102  OD1       -8.6980   -8.2370   37.6880 O.co2 177  ASP177     -0.2456
    103  OD2      -10.3940   -7.6630   38.9640 O.co2 177  ASP177     -0.2456
@<TRIPOS>BOND
     1    75    76    1
     2    79    76    1
     3    79    80    1
     4    76    77    1
     5    68    67    1
     6    68    69    2
     7    81    80   ar
     8    81    83   ar
     9    80    82   ar
    10    67    70    1
    11    67    66    1
    12    77    78    2
    13    77    85   am
    14    70    71    1
    15    83    84   ar
    16    71    72    1
    17    85    86    1
    18    82    84   ar
    19    74    72   am
    20    72    73    2
    21    59    58    1
    22    59    60    2
    23    61    58    1
    24    61    62    1
    25    87    86    1
    26    87    88    2
    27    58    57    1
    28    86    89    1
    29    96    97    1
    30    63    62    1
    31    63    64    1
    32    89    90    1
    33   102   101   ar
    34    90    91    1
    35    65    64    1
    36    97   100    1
    37    97    98    1
    38    91    92    1
    39   101   103   ar
    40   101   100    1
    41    99    98    2
    42     3     4    2
    43     3     2    1
    44     1     2    1
    45    92    93    2
    46    51    50    2
    47     5     2    1
    48     5     6    1
    49    94    93    1
    50    93    95    1
    51     7     6    1
    52     6     8    1
    53    50    49    1
    54    52    49    1
    55    52    53    1
    56    48    49    1
    57    53    54    1
    58    44    43    2
    59    54    55   ar
    60    54    56   ar
    61    43    42    1
    62    35    37   ar
    63    35    34   ar
    64    37    39   ar
    65    42    41    1
    66    42    45    1
    67    41    31   am
    68    33    34    1
    69    33    30    1
    70    45    47    1
    71    45    46    1
    72    34    36   ar
    73    31    30    1
    74    31    32    2
    75    39    40    1
    76    39    38   ar
    77    30    29    1
    78    36    38   ar
    79    29    20   am
    80    21    20    2
    81    20    19    1
    82    26    24   ar
    83    26    28   ar
    84    24    23   ar
    85    19    18    1
    86    19    22    1
    87    15    16    1
    88    15    14    1
    89    28    27   ar
    90    17    16    1
    91    18    11   am
    92    23    22    1
    93    23    25   ar
    94    13    14    1
    95    13    10    1
    96    27    25   ar
    97    11    10    1
    98    11    12    2
    99    10     9    1
