@<TRIPOS>MOLECULE
tmp/4rfcA00.pdb
 168 163 0 0 0
SMALL
GASTEIGER

@<TRIPOS>ATOM
      1  N         31.1310    3.7910   19.0550 N.3    17  PHE17      -0.1241
      2  CA        30.0360    4.3120   19.8620 C.3    17  PHE17       0.1605
      3  C         30.1330    3.7800   21.2920 C.2    17  PHE17       0.2264
      4  O         29.4640    2.8160   21.6490 O.2    17  PHE17      -0.2867
      5  CB        28.6970    3.9470   19.2170 C.3    17  PHE17       0.0534
      6  CG        28.6330    4.3000   17.7540 C.ar   17  PHE17      -0.0203
      7  CD1       28.2470    5.5670   17.3520 C.ar   17  PHE17      -0.0042
      8  CD2       29.0130    3.3780   16.7830 C.ar   17  PHE17      -0.0042
      9  CE1       28.2120    5.9030   16.0070 C.ar   17  PHE17      -0.0003
     10  CE2       28.9850    3.7020   15.4340 C.ar   17  PHE17      -0.0003
     11  CZ        28.5850    4.9690   15.0430 C.ar   17  PHE17      -0.0000
     12  N          8.6390    6.9890   11.4060 N.3    89  GLN89      -0.1245
     13  CA         8.8650    5.8200   10.5680 C.3    89  GLN89       0.1566
     14  C          8.6200    4.5240   11.3340 C.2    89  GLN89       0.2260
     15  O          8.5720    4.5250   12.5710 O.2    89  GLN89      -0.2867
     16  CB        10.2980    5.8250   10.0050 C.3    89  GLN89       0.0367
     17  CG        11.3810    5.9830   11.0850 C.3    89  GLN89       0.0905
     18  CD        12.1520    4.6940   11.3830 C.2    89  GLN89       0.2608
     19  OE1       11.5960    3.5930   11.3900 O.2    89  GLN89      -0.2717
     20  NE2       13.4340    4.8400   11.6560 N.am   89  GLN89      -0.0878
     21  N         10.0610    0.2280   11.0050 N.3    91  HIS91      -0.1241
     22  CA        10.9660   -0.7090   10.3680 C.3    91  HIS91       0.1621
     23  C         10.9130   -2.0110   11.1380 C.2    91  HIS91       0.2264
     24  O         10.2680   -2.1020   12.1830 O.2    91  HIS91      -0.2867
     25  CB        12.4030   -0.1770   10.3540 C.3    91  HIS91       0.0745
     26  CG        12.9650    0.0370   11.7240 C.ar   91  HIS91       0.0817
     27  ND1       12.8040    1.2180   12.4150 N.ar   91  HIS91      -0.2268
     28  CD2       13.6480   -0.7920   12.5480 C.ar   91  HIS91       0.1154
     29  CE1       13.3670    1.1100   13.6070 C.ar   91  HIS91       0.1986
     30  NE2       13.8950   -0.0980   13.7080 N.ar   91  HIS91      -0.2212
     31  N         13.2090   -5.7500   12.4040 N.3    93  HIS93      -0.1241
     32  CA        14.4210   -6.5470   12.5230 C.3    93  HIS93       0.1621
     33  C         13.9830   -7.9910   12.3680 C.2    93  HIS93       0.2264
     34  O         12.9330   -8.3490   12.8700 O.2    93  HIS93      -0.2867
     35  CB        15.1040   -6.3170   13.8810 C.3    93  HIS93       0.0745
     36  CG        15.3980   -4.8750   14.1620 C.ar   93  HIS93       0.0817
     37  ND1       16.6390   -4.3110   13.9480 N.ar   93  HIS93      -0.2268
     38  CD2       14.6050   -3.8780   14.6250 C.ar   93  HIS93       0.1154
     39  CE1       16.5930   -3.0270   14.2640 C.ar   93  HIS93       0.1986
     40  NE2       15.3690   -2.7410   14.6710 N.ar   93  HIS93      -0.2212
     41  N          9.2500   -2.0100   14.9200 N.3   116  HIS116     -0.1241
     42  CA         9.5200   -0.8010   15.6750 C.3   116  HIS116      0.1621
     43  C          8.8220    0.3980   15.0320 C.2   116  HIS116      0.2264
     44  O          9.1900    0.8180   13.9390 O.2   116  HIS116     -0.2867
     45  CB        11.0260   -0.5500   15.7450 C.3   116  HIS116      0.0745
     46  CG        11.7480   -1.5090   16.6360 C.ar  116  HIS116      0.0817
     47  ND1       13.1120   -1.6910   16.5910 N.ar  116  HIS116     -0.2268
     48  CD2       11.2850   -2.3450   17.5970 C.ar  116  HIS116      0.1154
     49  CE1       13.4620   -2.5950   17.4900 C.ar  116  HIS116      0.1986
     50  NE2       12.3720   -3.0030   18.1170 N.ar  116  HIS116     -0.2212
     51  N          8.5030    4.2100   15.3830 N.3   118  VAL118     -0.1245
     52  CA         9.3640    5.2090   16.0060 C.3   118  VAL118      0.1561
     53  C          8.6420    6.5500   16.0890 C.2   118  VAL118      0.2260
     54  O          8.1660    7.0580   15.0710 O.2   118  VAL118     -0.2867
     55  CB        10.6900    5.3700   15.2180 C.3   118  VAL118      0.0252
     56  CG1       11.6270    6.3790   15.9000 C.3   118  VAL118      0.0019
     57  CG2       11.3800    4.0070   15.0410 C.3   118  VAL118      0.0019
     58  N         13.0670   15.5680   14.9540 N.3   127  PHE127     -0.1227
     59  CA        13.6340   14.2930   15.3630 C.3   127  PHE127      0.1736
     60  C         15.0960   14.4160   15.7680 C.2   127  PHE127      0.2596
     61  O         15.5270   13.7820   16.7240 O.2   127  PHE127     -0.2718
     62  CB        13.4690   13.2850   14.2260 C.3   127  PHE127      0.0547
     63  CG        14.0590   11.9410   14.5130 C.ar  127  PHE127     -0.0202
     64  CD1       13.3120   10.9730   15.1450 C.ar  127  PHE127     -0.0042
     65  CD2       15.3560   11.6410   14.1350 C.ar  127  PHE127     -0.0042
     66  CE1       13.8450    9.7250   15.3970 C.ar  127  PHE127     -0.0003
     67  CE2       15.8930   10.3950   14.3910 C.ar  127  PHE127     -0.0003
     68  CZ        15.1310    9.4370   15.0230 C.ar  127  PHE127     -0.0000
     69  N         15.8540   15.2350   15.0440 N.am  128  GLY128     -0.1957
     70  CA        17.2630   15.4140   15.3400 C.3   128  GLY128      0.1869
     71  C         17.4920   15.9960   16.7240 C.2   128  GLY128      0.2309
     72  O         18.4490   15.6380   17.4100 O.2   128  GLY128     -0.2863
     73  N         16.4100   13.1480   19.6120 N.3   131  VAL131     -0.1231
     74  CA        17.2860   12.0130   19.9400 C.3   131  VAL131      0.1692
     75  C         18.3760   12.3940   20.9430 C.2   131  VAL131      0.2591
     76  O         19.0590   11.5220   21.4940 O.2   131  VAL131     -0.2718
     77  CB        17.9520   11.4010   18.6820 C.3   131  VAL131      0.0266
     78  CG1       16.9210   10.6730   17.8510 C.3   131  VAL131      0.0020
     79  CG2       18.6990   12.4690   17.8580 C.3   131  VAL131      0.0020
     80  N         18.5190   13.6930   21.2020 N.am  132  GLN132     -0.1979
     81  CA        19.5320   14.1750   22.1260 C.3   132  GLN132      0.1601
     82  C         18.9450   14.3980   23.5190 C.2   132  GLN132      0.2287
     83  O         19.6030   14.9310   24.4000 O.2   132  GLN132     -0.2864
     84  CB        20.1600   15.4670   21.5870 C.3   132  GLN132      0.0394
     85  CG        20.5790   15.3810   20.1290 C.3   132  GLN132      0.0908
     86  CD        21.0220   16.7180   19.5680 C.2   132  GLN132      0.2608
     87  OE1       21.7060   17.4930   20.2400 O.2   132  GLN132     -0.2717
     88  NE2       20.6330   16.9970   18.3310 N.am  132  GLN132     -0.0878
     89  N         12.3550   10.0560   22.4120 N.3   137  LEU137     -0.1245
     90  CA        11.6460    9.1130   21.5460 C.3   137  LEU137      0.1561
     91  C         10.7610    8.1590   22.3240 C.2   137  LEU137      0.2260
     92  O         11.0290    7.8450   23.4820 O.2   137  LEU137     -0.2867
     93  CB        12.6190    8.2700   20.7040 C.3   137  LEU137      0.0270
     94  CG        13.6070    8.8830   19.7140 C.3   137  LEU137      0.0019
     95  CD1       14.1870    7.7970   18.8050 C.3   137  LEU137      0.0001
     96  CD2       12.9850    9.9890   18.8960 C.3   137  LEU137      0.0001
     97  N          9.4130    4.3400   21.2520 N.3   139  VAL139     -0.1245
     98  CA         9.3180    3.3100   20.2330 C.3   139  VAL139      0.1561
     99  C          8.3530    2.2210   20.6890 C.2   139  VAL139      0.2260
    100  O          8.4750    1.6790   21.7910 O.2   139  VAL139     -0.2867
    101  CB        10.6940    2.7050   19.8940 C.3   139  VAL139      0.0252
    102  CG1       10.5660    1.6960   18.7390 C.3   139  VAL139      0.0019
    103  CG2       11.6530    3.7950   19.4960 C.3   139  VAL139      0.0019
    104  N         18.2660    3.6850   21.3330 N.3   194  LEU194     -0.1231
    105  CA        18.2930    3.1780   19.9700 C.3   194  LEU194      0.1693
    106  C         19.0040    1.8280   19.9770 C.2   194  LEU194      0.2593
    107  O         19.9870    1.6470   20.7110 O.2   194  LEU194     -0.2718
    108  CB        19.0360    4.1550   19.0480 C.3   194  LEU194      0.0284
    109  CG        18.5940    5.6170   19.0870 C.3   194  LEU194      0.0019
    110  CD1       19.4420    6.4400   18.1400 C.3   194  LEU194      0.0001
    111  CD2       17.1200    5.7160   18.7230 C.3   194  LEU194      0.0001
    112  N         18.5490    0.8820   19.1620 N.am  195  THR195     -0.1939
    113  CA        19.2460   -0.4010   19.1070 C.3   195  THR195      0.2028
    114  C         20.2500   -0.4800   17.9670 C.2   195  THR195      0.2643
    115  O         20.8580   -1.5280   17.7410 O.2   195  THR195     -0.2714
    116  CB        18.2770   -1.5800   18.9630 C.3   195  THR195      0.1808
    117  OG1       17.5950   -1.4900   17.7080 O.3   195  THR195     -0.2208
    118  CG2       17.2650   -1.5890   20.1020 C.3   195  THR195      0.0379
    119  N         20.4020    0.6150   17.2360 N.am  196  THR196     -0.1937
    120  CA        21.4750    0.7300   16.2520 C.3   196  THR196      0.2013
    121  C         22.3010    1.9650   16.5630 C.2   196  THR196      0.2484
    122  O         21.8010    2.8880   17.2110 O.2   196  THR196     -0.2729
    123  CB        20.9420    0.8560   14.8160 C.3   196  THR196      0.1807
    124  OG1       20.2330    2.0910   14.6890 O.3   196  THR196     -0.2208
    125  CG2       20.0200   -0.3130   14.4620 C.3   196  THR196      0.0379
    126  N         23.5600    2.0010   16.0900 N.am  197  PRO197     -0.2715
    127  CA        24.3160    3.2520   16.2060 C.3   197  PRO197      0.1521
    128  C         23.4940    4.4260   15.6740 C.2   197  PRO197      0.2440
    129  O         22.8240    4.2860   14.6450 O.2   197  PRO197     -0.2731
    130  CB        25.5590    2.9840   15.3540 C.3   197  PRO197      0.0310
    131  CG        25.7800    1.4910   15.5270 C.3   197  PRO197      0.0237
    132  CD        24.3690    0.9200   15.4990 C.3   197  PRO197      0.0939
    133  N         23.5410    5.5790   16.3570 N.am  198  PRO198     -0.2727
    134  CA        24.4770    5.9380   17.4330 C.3   198  PRO198      0.1402
    135  C         24.1080    5.4840   18.8520 C.2   198  PRO198      0.2269
    136  O         24.7220    5.9880   19.7890 O.2   198  PRO198     -0.2865
    137  CB        24.4940    7.4680   17.3620 C.3   198  PRO198      0.0296
    138  CG        23.1600    7.8400   16.8250 C.3   198  PRO198      0.0237
    139  CD        22.7350    6.7280   15.9080 C.3   198  PRO198      0.0939
    140  N         21.9140    6.1060   21.0120 N.3   200  LEU200     -0.1245
    141  CA        21.6020    7.1650   21.9690 C.3   200  LEU200      0.1561
    142  C         20.5430    6.7370   22.9800 C.2   200  LEU200      0.2260
    143  O         19.5750    6.0530   22.6360 O.2   200  LEU200     -0.2867
    144  CB        21.1460    8.4260   21.2320 C.3   200  LEU200      0.0270
    145  CG        22.2400    9.0100   20.3380 C.3   200  LEU200      0.0019
    146  CD1       21.7010   10.1490   19.4830 C.3   200  LEU200      0.0001
    147  CD2       23.4330    9.4640   21.1920 C.3   200  LEU200      0.0001
    148  N         15.2230    6.7280   24.4230 N.3   203  VAL203     -0.1245
    149  CA        13.9900    6.0100   24.1030 C.3   203  VAL203      0.1561
    150  C         13.2080    5.5330   25.3230 C.2   203  VAL203      0.2260
    151  O         13.7520    4.8880   26.2170 O.2   203  VAL203     -0.2867
    152  CB        14.2650    4.7630   23.2330 C.3   203  VAL203      0.0252
    153  CG1       12.9490    4.0590   22.8980 C.3   203  VAL203      0.0019
    154  CG2       15.0250    5.1350   21.9530 C.3   203  VAL203      0.0019
    155  N         10.8050    2.7790   25.8310 N.3   205  TRP205     -0.1241
    156  CA        10.3490    1.6000   25.1140 C.3   205  TRP205      0.1605
    157  C          8.9910    1.1180   25.5900 C.2   205  TRP205      0.2264
    158  O          8.7540    1.0040   26.7850 O.2   205  TRP205     -0.2867
    159  CB        11.3800    0.4720   25.2600 C.3   205  TRP205      0.0550
    160  CG        12.4870    0.6060   24.2820 C.ar  205  TRP205      0.0003
    161  CD1       13.7110    1.1650   24.4870 C.ar  205  TRP205      0.0946
    162  CD2       12.4490    0.1930   22.9140 C.ar  205  TRP205      0.0152
    163  NE1       14.4460    1.1180   23.3240 N.ar  205  TRP205     -0.2442
    164  CE2       13.6900    0.5230   22.3450 C.ar  205  TRP205      0.0810
    165  CE3       11.4840   -0.4360   22.1220 C.ar  205  TRP205      0.0012
    166  CZ2       13.9940    0.2460   21.0110 C.ar  205  TRP205      0.0191
    167  CZ3       11.7860   -0.7140   20.7970 C.ar  205  TRP205      0.0001
    168  CH2       13.0300   -0.3640   20.2530 C.ar  205  TRP205      0.0015
@<TRIPOS>BOND
     1    16    13    1
     2    16    17    1
     3    25    22    1
     4    25    26    1
     5    22    21    1
     6    22    23    1
     7    13    14    1
     8    13    12    1
     9    17    18    1
    10    23    24    2
    11    14    15    2
    12    18    19    2
    13    18    20   am
    14    26    27   ar
    15    26    28   ar
    16    33    32    1
    17    33    34    2
    18    31    32    1
    19    27    29   ar
    20    32    35    1
    21    28    30   ar
    22    29    30   ar
    23    35    36    1
    24    44    43    2
    25    37    36   ar
    26    37    39   ar
    27    65    67   ar
    28    65    63   ar
    29    36    38   ar
    30    62    63    1
    31    62    59    1
    32    39    40   ar
    33    67    68   ar
    34   125   123    1
    35    63    64   ar
    36    38    40   ar
    37   129   128    2
    38   124   123    1
    39   123   120    1
    40    41    42    1
    41    58    59    1
    42    68    66   ar
    43    43    42    1
    44    57    55    1
    45    11    10   ar
    46    11     9   ar
    47    69    70    1
    48    69    60   am
    49    54    53    2
    50    64    66   ar
    51    55    56    1
    52    55    52    1
    53    70    71    1
    54   130   131    1
    55   130   127    1
    56    59    60    1
    57    51    52    1
    58    10     8   ar
    59   132   131    1
    60   132   126    1
    61   128   127    1
    62   128   133   am
    63    42    45    1
    64    45    46    1
    65    60    61    2
    66   139   133    1
    67   139   138    1
    68    52    53    1
    69     9     7   ar
    70   126   127    1
    71   126   121   am
    72   120   121    1
    73   120   119    1
    74   133   134    1
    75   121   122    2
    76    47    46   ar
    77    47    49   ar
    78    46    48   ar
    79    71    72    2
    80     8     6   ar
    81   138   137    1
    82   119   114   am
    83     7     6   ar
    84   137   134    1
    85   134   135    1
    86    49    50   ar
    87    48    50   ar
    88   117   116    1
    89   115   114    2
    90     6     5    1
    91    78    77    1
    92    79    77    1
    93   114   113    1
    94   110   109    1
    95    88    86   am
    96    77    74    1
    97   111   109    1
    98   102   101    1
    99    95    94    1
   100   135   136    2
   101    96    94    1
   102   116   113    1
   103   116   118    1
   104   108   109    1
   105   108   105    1
   106     1     2    1
   107   113   112    1
   108   112   106   am
   109     5     2    1
   110   146   145    1
   111   103   101    1
   112    86    85    1
   113    86    87    2
   114    73    74    1
   115    94    93    1
   116     2     3    1
   117   101    98    1
   118    74    75    1
   119   105   106    1
   120   105   104    1
   121   106   107    2
   122    85    84    1
   123    98    99    1
   124    98    97    1
   125   168   167   ar
   126   168   166   ar
   127   145   147    1
   128   145   144    1
   129    99   100    2
   130    93    90    1
   131   167   165   ar
   132    75    80   am
   133    75    76    2
   134   166   164   ar
   135   140   141    1
   136    80    81    1
   137   144   141    1
   138     3     4    2
   139    90    91    1
   140    90    89    1
   141    84    81    1
   142   154   152    1
   143   141   142    1
   144   165   162   ar
   145    81    82    1
   146    91    92    2
   147   164   162   ar
   148   164   163   ar
   149   143   142    2
   150   153   152    1
   151   162   160   ar
   152   152   149    1
   153   163   161   ar
   154    82    83    2
   155   149   148    1
   156   149   150    1
   157   160   161   ar
   158   160   159    1
   159   156   159    1
   160   156   157    1
   161   156   155    1
   162   150   151    2
   163   157   158    2
