@<TRIPOS>MOLECULE
tmp/4rfdA00.pdb
 167 162 0 0 0
SMALL
GASTEIGER

@<TRIPOS>ATOM
      1  N          2.6640    0.5120   76.2620 N.3    61  HIS61      -0.1241
      2  CA         2.5580   -0.2920   77.5110 C.3    61  HIS61       0.1621
      3  C          1.1420   -0.8360   77.7240 C.2    61  HIS61       0.2264
      4  O          0.9710   -1.8460   78.3850 O.2    61  HIS61      -0.2867
      5  CB         3.0750    0.4350   78.7760 C.3    61  HIS61       0.0745
      6  CG         2.6430    1.8520   78.9450 C.ar   61  HIS61       0.0817
      7  ND1        3.3780    2.9150   78.4590 N.ar   61  HIS61      -0.2268
      8  CD2        1.6190    2.3950   79.6440 C.ar   61  HIS61       0.1154
      9  CE1        2.7890    4.0450   78.8000 C.ar   61  HIS61       0.1986
     10  NE2        1.7230    3.7580   79.5230 N.ar   61  HIS61      -0.2212
     11  N         -9.2080    8.9190   81.1760 N.3    89  GLN89      -0.1245
     12  CA        -8.9720    7.7490   80.3360 C.3    89  GLN89       0.1566
     13  C         -9.2240    6.4740   81.1180 C.2    89  GLN89       0.2260
     14  O         -9.2330    6.4950   82.3500 O.2    89  GLN89      -0.2867
     15  CB        -7.5370    7.7510   79.7680 C.3    89  GLN89       0.0367
     16  CG        -6.4390    7.8720   80.8160 C.3    89  GLN89       0.0905
     17  CD        -5.7470    6.5630   81.1870 C.2    89  GLN89       0.2608
     18  OE1       -6.3170    5.4640   81.1170 O.2    89  GLN89      -0.2717
     19  NE2       -4.4910    6.6830   81.5790 N.am   89  GLN89      -0.0878
     20  N         -7.8420    2.2050   80.8540 N.3    91  HIS91      -0.1241
     21  CA        -6.9530    1.2280   80.2470 C.3    91  HIS91       0.1621
     22  C         -7.0190   -0.0600   81.0450 C.2    91  HIS91       0.2264
     23  O         -7.6680   -0.1240   82.0890 O.2    91  HIS91      -0.2867
     24  CB        -5.4960    1.7190   80.2160 C.3    91  HIS91       0.0745
     25  CG        -4.9360    1.9630   81.5750 C.ar   91  HIS91       0.0817
     26  ND1       -5.0670    3.1670   82.2290 N.ar   91  HIS91      -0.2268
     27  CD2       -4.3000    1.1340   82.4390 C.ar   91  HIS91       0.1154
     28  CE1       -4.5300    3.0740   83.4300 C.ar   91  HIS91       0.1986
     29  NE2       -4.0460    1.8500   83.5820 N.ar   91  HIS91      -0.2212
     30  N         -4.6810   -3.7930   82.3550 N.3    93  HIS93      -0.1241
     31  CA        -3.4880   -4.6120   82.4860 C.3    93  HIS93       0.1621
     32  C         -3.9200   -6.0450   82.3620 C.2    93  HIS93       0.2264
     33  O         -4.9780   -6.4090   82.8840 O.2    93  HIS93      -0.2867
     34  CB        -2.8120   -4.3920   83.8360 C.3    93  HIS93       0.0745
     35  CG        -2.5490   -2.9440   84.1360 C.ar   93  HIS93       0.0817
     36  ND1       -1.3080   -2.3680   83.9910 N.ar   93  HIS93      -0.2268
     37  CD2       -3.3790   -1.9570   84.5570 C.ar   93  HIS93       0.1154
     38  CE1       -1.3910   -1.0780   84.2970 C.ar   93  HIS93       0.1986
     39  NE2       -2.6390   -0.8090   84.6360 N.ar   93  HIS93      -0.2212
     40  N         -8.6440   -0.0300   84.7410 N.3   116  HIS116     -0.1241
     41  CA        -8.4030    1.1970   85.4970 C.3   116  HIS116      0.1621
     42  C         -9.0820    2.3840   84.8370 C.2   116  HIS116      0.2264
     43  O         -8.7120    2.7810   83.7240 O.2   116  HIS116     -0.2867
     44  CB        -6.8940    1.4610   85.6010 C.3   116  HIS116      0.0745
     45  CG        -6.1840    0.4920   86.4920 C.ar  116  HIS116      0.0817
     46  ND1       -4.8160    0.3230   86.4930 N.ar  116  HIS116     -0.2268
     47  CD2       -6.6830   -0.3610   87.4160 C.ar  116  HIS116      0.1154
     48  CE1       -4.5010   -0.5950   87.3960 C.ar  116  HIS116      0.1986
     49  NE2       -5.6100   -1.0090   87.9740 N.ar  116  HIS116     -0.2212
     50  N         -9.3910    6.1630   85.1620 N.3   118  VAL118     -0.1245
     51  CA        -8.5370    7.1610   85.7710 C.3   118  VAL118      0.1561
     52  C         -9.2370    8.5150   85.8100 C.2   118  VAL118      0.2260
     53  O         -9.6730    9.0290   84.7680 O.2   118  VAL118     -0.2867
     54  CB        -7.2120    7.2940   84.9950 C.3   118  VAL118      0.0252
     55  CG1       -6.2840    8.2880   85.6490 C.3   118  VAL118      0.0019
     56  CG2       -6.5110    5.9390   84.8900 C.3   118  VAL118      0.0019
     57  N         -4.7100   17.5280   84.7310 N.3   127  PHE127     -0.1227
     58  CA        -4.1480   16.2460   85.1340 C.3   127  PHE127      0.1736
     59  C         -2.6880   16.3450   85.5220 C.2   127  PHE127      0.2596
     60  O         -2.2680   15.7090   86.4890 O.2   127  PHE127     -0.2718
     61  CB        -4.3420   15.2200   84.0160 C.3   127  PHE127      0.0547
     62  CG        -3.7340   13.8870   84.2910 C.ar  127  PHE127     -0.0202
     63  CD1       -4.4530   12.8990   84.9430 C.ar  127  PHE127     -0.0042
     64  CD2       -2.4560   13.5930   83.8660 C.ar  127  PHE127     -0.0042
     65  CE1       -3.9010   11.6670   85.1810 C.ar  127  PHE127     -0.0003
     66  CE2       -1.9040   12.3530   84.1070 C.ar  127  PHE127     -0.0003
     67  CZ        -2.6320   11.3940   84.7650 C.ar  127  PHE127     -0.0000
     68  N         -1.9010   17.1450   84.7960 N.am  128  GLY128     -0.1957
     69  CA        -0.4980   17.3090   85.1200 C.3   128  GLY128      0.1869
     70  C         -0.2560   17.8590   86.5130 C.2   128  GLY128      0.2309
     71  O          0.6840   17.4570   87.1960 O.2   128  GLY128     -0.2863
     72  N         -1.3940   15.0850   89.3930 N.3   131  VAL131     -0.1231
     73  CA        -0.5400   13.9460   89.7540 C.3   131  VAL131      0.1692
     74  C          0.5670   14.3500   90.7210 C.2   131  VAL131      0.2591
     75  O          1.2700   13.4850   91.2400 O.2   131  VAL131     -0.2718
     76  CB         0.1300   13.2550   88.5480 C.3   131  VAL131      0.0266
     77  CG1       -0.9170   12.5640   87.6940 C.3   131  VAL131      0.0020
     78  CG2        0.9920   14.2400   87.7280 C.3   131  VAL131      0.0020
     79  N          0.7110   15.6510   90.9700 N.am  132  GLN132     -0.1979
     80  CA         1.7050   16.1420   91.9110 C.3   132  GLN132      0.1601
     81  C          1.1200   16.3390   93.3190 C.2   132  GLN132      0.2287
     82  O          1.7700   16.9180   94.2000 O.2   132  GLN132     -0.2864
     83  CB         2.2920   17.4620   91.3850 C.3   132  GLN132      0.0394
     84  CG         3.1130   17.3060   90.1140 C.3   132  GLN132      0.0908
     85  CD         4.3160   16.3600   90.3000 C.2   132  GLN132      0.2608
     86  OE1        4.8310   16.1950   91.4120 O.2   132  GLN132     -0.2717
     87  NE2        4.7650   15.7470   89.2100 N.am  132  GLN132     -0.0878
     88  N         -5.5680   12.0870   92.1570 N.3   137  LEU137     -0.1245
     89  CA        -6.2570   11.1340   91.2930 C.3   137  LEU137      0.1561
     90  C         -7.1640   10.1920   92.0880 C.2   137  LEU137      0.2260
     91  O         -6.9190    9.9190   93.2630 O.2   137  LEU137     -0.2867
     92  CB        -5.2520   10.2850   90.5090 C.3   137  LEU137      0.0270
     93  CG        -4.3110   10.9100   89.4790 C.3   137  LEU137      0.0019
     94  CD1       -3.7100    9.7950   88.6140 C.3   137  LEU137      0.0001
     95  CD2       -4.8980   11.9960   88.6340 C.3   137  LEU137      0.0001
     96  N         -8.5770    6.3910   91.0670 N.3   139  VAL139     -0.1245
     97  CA        -8.6270    5.3510   90.0700 C.3   139  VAL139      0.1561
     98  C         -9.5750    4.2660   90.5270 C.2   139  VAL139      0.2260
     99  O         -9.4480    3.7090   91.6310 O.2   139  VAL139     -0.2867
    100  CB        -7.2540    4.7410   89.7610 C.3   139  VAL139      0.0252
    101  CG1       -7.3900    3.7230   88.6420 C.3   139  VAL139      0.0019
    102  CG2       -6.2710    5.8030   89.3410 C.3   139  VAL139      0.0019
    103  N          0.3240    5.7020   91.1510 N.3   194  LEU194     -0.1231
    104  CA         0.3570    5.1830   89.7900 C.3   194  LEU194      0.1693
    105  C          1.0830    3.8410   89.8080 C.2   194  LEU194      0.2593
    106  O          2.0800    3.6870   90.5380 O.2   194  LEU194     -0.2718
    107  CB         1.0910    6.1460   88.8480 C.3   194  LEU194      0.0284
    108  CG         0.6940    7.6110   88.9040 C.3   194  LEU194      0.0019
    109  CD1        1.5460    8.3530   87.9050 C.3   194  LEU194      0.0001
    110  CD2       -0.7930    7.7660   88.5950 C.3   194  LEU194      0.0001
    111  N          0.6170    2.8790   89.0260 N.am  195  THR195     -0.1939
    112  CA         1.3220    1.5940   88.9740 C.3   195  THR195      0.2028
    113  C          2.3220    1.4800   87.8320 C.2   195  THR195      0.2643
    114  O          2.9460    0.4190   87.6530 O.2   195  THR195     -0.2714
    115  CB         0.3330    0.4400   88.8630 C.3   195  THR195      0.1808
    116  OG1       -0.2740    0.4920   87.5770 O.3   195  THR195     -0.2208
    117  CG2       -0.7040    0.5290   89.9690 C.3   195  THR195      0.0379
    118  N          2.4710    2.5590   87.0620 N.am  196  THR196     -0.1937
    119  CA         3.5620    2.7000   86.0780 C.3   196  THR196      0.2013
    120  C          4.3930    3.9190   86.4110 C.2   196  THR196      0.2484
    121  O          3.9020    4.8520   87.0450 O.2   196  THR196     -0.2729
    122  CB         3.0590    2.8720   84.6340 C.3   196  THR196      0.1807
    123  OG1        2.2050    4.0130   84.5710 O.3   196  THR196     -0.2208
    124  CG2        2.2920    1.6560   84.1780 C.3   196  THR196      0.0379
    125  N          5.6630    3.9110   85.9940 N.am  197  PRO197     -0.2715
    126  CA         6.4550    5.1310   86.0320 C.3   197  PRO197      0.1521
    127  C          5.6200    6.2890   85.4950 C.2   197  PRO197      0.2440
    128  O          4.9360    6.1250   84.4710 O.2   197  PRO197     -0.2731
    129  CB         7.6540    4.7670   85.1420 C.3   197  PRO197      0.0310
    130  CG         7.8380    3.3330   85.3980 C.3   197  PRO197      0.0237
    131  CD         6.4300    2.8010   85.4020 C.3   197  PRO197      0.0939
    132  N          5.6580    7.4460   86.1710 N.am  198  PRO198     -0.2727
    133  CA         6.5670    7.8340   87.2610 C.3   198  PRO198      0.1402
    134  C          6.1950    7.3990   88.6950 C.2   198  PRO198      0.2269
    135  O          6.8350    7.8460   89.6390 O.2   198  PRO198     -0.2865
    136  CB         6.5650    9.3620   87.1560 C.3   198  PRO198      0.0296
    137  CG         5.2150    9.6960   86.6190 C.3   198  PRO198      0.0237
    138  CD         4.8910    8.5950   85.6540 C.3   198  PRO198      0.0939
    139  N          4.0000    8.0800   90.8440 N.3   200  LEU200     -0.1245
    140  CA         3.6770    9.1430   91.7750 C.3   200  LEU200      0.1561
    141  C          2.6060    8.7180   92.7740 C.2   200  LEU200      0.2260
    142  O          1.6420    8.0360   92.4340 O.2   200  LEU200     -0.2867
    143  CB         3.2130   10.3840   91.0070 C.3   200  LEU200      0.0270
    144  CG         4.2830   10.9860   90.1080 C.3   200  LEU200      0.0019
    145  CD1        3.6430   12.0230   89.2110 C.3   200  LEU200      0.0001
    146  CD2        5.4240   11.5720   90.9190 C.3   200  LEU200      0.0001
    147  N         -2.7380    8.8020   94.2450 N.3   203  VAL203     -0.1245
    148  CA        -3.9830    8.0810   93.9200 C.3   203  VAL203      0.1561
    149  C         -4.7490    7.6010   95.1450 C.2   203  VAL203      0.2260
    150  O         -4.1830    6.9410   96.0270 O.2   203  VAL203     -0.2867
    151  CB        -3.7240    6.8180   93.0590 C.3   203  VAL203      0.0252
    152  CG1       -5.0410    6.1510   92.6970 C.3   203  VAL203      0.0019
    153  CG2       -2.9230    7.1290   91.7940 C.3   203  VAL203      0.0019
    154  N         -7.1460    4.8380   95.6280 N.3   205  TRP205     -0.1241
    155  CA        -7.5880    3.6560   94.9410 C.3   205  TRP205      0.1605
    156  C         -8.9420    3.1930   95.4480 C.2   205  TRP205      0.2264
    157  O         -9.1890    3.1290   96.6560 O.2   205  TRP205     -0.2867
    158  CB        -6.5610    2.5330   95.0840 C.3   205  TRP205      0.0550
    159  CG        -5.4840    2.6490   94.0940 C.ar  205  TRP205      0.0003
    160  CD1       -4.2520    3.1810   94.2730 C.ar  205  TRP205      0.0946
    161  CD2       -5.5470    2.2230   92.7360 C.ar  205  TRP205      0.0152
    162  NE1       -3.5430    3.1220   93.1090 N.ar  205  TRP205     -0.2442
    163  CE2       -4.3180    2.5440   92.1440 C.ar  205  TRP205      0.0810
    164  CE3       -6.5310    1.6180   91.9590 C.ar  205  TRP205      0.0012
    165  CZ2       -4.0350    2.2400   90.8240 C.ar  205  TRP205      0.0191
    166  CZ3       -6.2590    1.3470   90.6410 C.ar  205  TRP205      0.0001
    167  CH2       -5.0230    1.6720   90.0800 C.ar  205  TRP205      0.0015
@<TRIPOS>BOND
     1     1     2    1
     2     2     3    1
     3     2     5    1
     4     3     4    2
     5     7     9   ar
     6     7     6   ar
     7     5     6    1
     8     9    10   ar
     9     6     8   ar
    10    10     8   ar
    11    15    12    1
    12    15    16    1
    13    24    21    1
    14    24    25    1
    15    21    20    1
    16    21    22    1
    17    12    13    1
    18    12    11    1
    19    16    17    1
    20    22    23    2
    21    18    17    2
    22    13    14    2
    23    17    19   am
    24    25    26   ar
    25    25    27   ar
    26    26    28   ar
    27    30    31    1
    28    32    31    1
    29    32    33    2
    30    27    29   ar
    31    31    34    1
    32    28    29   ar
    33    43    42    2
    34    34    35    1
    35    64    66   ar
    36    64    62   ar
    37    36    35   ar
    38    36    38   ar
    39    61    62    1
    40    61    58    1
    41    66    67   ar
    42    35    37   ar
    43   124   122    1
    44    62    63   ar
    45    38    39   ar
    46   128   127    2
    47    37    39   ar
    48   123   122    1
    49   122   119    1
    50    57    58    1
    51    40    41    1
    52    67    65   ar
    53    53    52    2
    54    68    69    1
    55    68    59   am
    56    42    41    1
    57    56    54    1
    58    63    65   ar
    59    54    55    1
    60    54    51    1
    61    69    70    1
    62    58    59    1
    63   129   130    1
    64   129   126    1
    65    50    51    1
    66   130   131    1
    67   131   125    1
    68   127   126    1
    69   127   132   am
    70    41    44    1
    71    59    60    2
    72    44    45    1
    73   138   132    1
    74   138   137    1
    75    51    52    1
    76   125   126    1
    77   125   120   am
    78   119   120    1
    79   119   118    1
    80   132   133    1
    81   120   121    2
    82    45    46   ar
    83    45    47   ar
    84    46    48   ar
    85    70    71    2
    86   137   136    1
    87   118   113   am
    88   136   133    1
    89   133   134    1
    90    48    49   ar
    91    47    49   ar
    92   116   115    1
    93   114   113    2
    94    77    76    1
    95    78    76    1
    96   113   112    1
    97   109   108    1
    98    76    73    1
    99   110   108    1
   100    94    93    1
   101    95    93    1
   102   101   100    1
   103   134   135    2
   104   107   108    1
   105   107   104    1
   106   115   112    1
   107   115   117    1
   108   112   111    1
   109   111   105   am
   110    87    85   am
   111   145   144    1
   112   102   100    1
   113    72    73    1
   114    93    92    1
   115    73    74    1
   116   100    97    1
   117   104   105    1
   118   104   103    1
   119   105   106    2
   120    97    98    1
   121    97    96    1
   122   167   166   ar
   123   167   165   ar
   124   144   146    1
   125   144   143    1
   126    84    85    1
   127    84    83    1
   128    85    86    2
   129    92    89    1
   130    98    99    2
   131   166   164   ar
   132    74    79   am
   133    74    75    2
   134   165   163   ar
   135   139   140    1
   136    79    80    1
   137   143   140    1
   138    89    90    1
   139    89    88    1
   140    83    80    1
   141   140   141    1
   142   153   151    1
   143    80    81    1
   144   164   161   ar
   145    90    91    2
   146   163   161   ar
   147   163   162   ar
   148   142   141    2
   149   152   151    1
   150   161   159   ar
   151   151   148    1
   152   162   160   ar
   153    81    82    2
   154   148   147    1
   155   148   149    1
   156   159   160   ar
   157   159   158    1
   158   155   158    1
   159   155   156    1
   160   155   154    1
   161   149   150    2
   162   156   157    2
