@<TRIPOS>MOLECULE
tmp/4rfmA00.pdb
 159 151 0 0 0
SMALL
GASTEIGER

@<TRIPOS>ATOM
      1  N         25.5600    1.3180   -3.8400 N.3    12  GLN12      -0.1245
      2  CA        25.4620   -0.0930   -3.7310 C.3    12  GLN12       0.1566
      3  C         24.1660   -0.4750   -2.9940 C.2    12  GLN12       0.2260
      4  O         23.6530    0.2650   -2.1790 O.2    12  GLN12      -0.2867
      5  CB        26.6980   -0.5560   -2.9530 C.3    12  GLN12       0.0367
      6  CG        26.4860   -0.6060   -1.4500 C.3    12  GLN12       0.0905
      7  CD        27.6680   -0.1390   -0.6430 C.2    12  GLN12       0.2608
      8  OE1       28.1650    0.9740   -0.8210 O.2    12  GLN12      -0.2717
      9  NE2       28.0840   -0.9650    0.3030 N.am   12  GLN12      -0.0878
     10  N         22.1120   -2.1760   -0.1020 N.3    14  ILE14      -0.1231
     11  CA        22.3650   -2.3760    1.3190 C.3    14  ILE14       0.1692
     12  C         21.1240   -3.0460    1.8840 C.2    14  ILE14       0.2592
     13  O         20.0590   -2.9970    1.2720 O.2    14  ILE14      -0.2718
     14  CB        22.7020   -1.0490    2.0880 C.3    14  ILE14       0.0266
     15  CG1       21.5010   -0.0880    2.1010 C.3    14  ILE14       0.0019
     16  CG2       24.0080   -0.4260    1.5520 C.3    14  ILE14       0.0020
     17  CD1       21.8010    1.2810    2.6340 C.3    14  ILE14       0.0001
     18  N         21.2760   -3.6970    3.0390 N.am   15  GLY15      -0.1957
     19  CA        20.1440   -4.2990    3.7380 C.3    15  GLY15       0.1869
     20  C         19.8740   -5.7540    3.3600 C.2    15  GLY15       0.2309
     21  O         20.3650   -6.2700    2.3500 O.2    15  GLY15      -0.2863
     22  N         13.1710   -4.0260    4.0010 N.3    19  PHE19      -0.1241
     23  CA        12.5610   -2.8350    3.3860 C.3    19  PHE19       0.1605
     24  C         12.6080   -2.8470    1.8220 C.2    19  PHE19       0.2264
     25  O         12.4370   -1.8130    1.1860 O.2    19  PHE19      -0.2867
     26  CB        13.2250   -1.5710    3.9270 C.3    19  PHE19       0.0534
     27  CG        13.1530   -1.4470    5.4250 C.ar   19  PHE19      -0.0203
     28  CD1       12.0640   -0.8380    6.0360 C.ar   19  PHE19      -0.0042
     29  CD2       14.1830   -1.9030    6.2270 C.ar   19  PHE19      -0.0042
     30  CE1       12.0000   -0.6990    7.4170 C.ar   19  PHE19      -0.0003
     31  CE2       14.1260   -1.7510    7.6190 C.ar   19  PHE19      -0.0003
     32  CZ        13.0380   -1.1510    8.2060 C.ar   19  PHE19      -0.0000
     33  N         16.9350   -1.2750   -1.4890 N.3    22  VAL22      -0.1245
     34  CA        17.5100   -0.0670   -0.9320 C.3    22  VAL22       0.1561
     35  C         18.9270    0.0390   -1.4470 C.2    22  VAL22       0.2260
     36  O         19.6650   -0.9770   -1.4510 O.2    22  VAL22      -0.2867
     37  CB        17.5560   -0.1320    0.6310 C.3    22  VAL22       0.0252
     38  CG1       18.0330    1.1720    1.2620 C.3    22  VAL22       0.0019
     39  CG2       16.1930   -0.4000    1.1910 C.3    22  VAL22       0.0019
     40  N         22.5460    2.5050   -0.8680 N.3    24  LEU24      -0.1245
     41  CA        23.2760    3.6200   -0.2910 C.3    24  LEU24       0.1561
     42  C         23.3570    4.7170   -1.3610 C.2    24  LEU24       0.2260
     43  O         23.6160    4.4430   -2.5140 O.2    24  LEU24      -0.2867
     44  CB        24.6910    3.1890    0.1550 C.3    24  LEU24       0.0270
     45  CG        25.6030    4.2360    0.7540 C.3    24  LEU24       0.0019
     46  CD1       24.9300    4.8740    1.9520 C.3    24  LEU24       0.0001
     47  CD2       26.9320    3.6380    1.1840 C.3    24  LEU24       0.0001
     48  N         25.2150   11.1960    2.8660 N.3    32  LYS32      -0.1245
     49  CA        24.7220    9.8130    2.7150 C.3    32  LYS32       0.1561
     50  C         23.2130    9.7000    2.9620 C.2    32  LYS32       0.2260
     51  O         22.7130   10.2400    3.9250 O.2    32  LYS32      -0.2867
     52  CB        25.4230    8.8730    3.6450 C.3    32  LYS32       0.0271
     53  CG        26.6870    8.2880    3.0660 C.3    32  LYS32       0.0035
     54  CD        27.7320    8.0800    4.1450 C.3    32  LYS32       0.0206
     55  CE        27.1630    7.3040    5.3090 C.3    32  LYS32       0.1093
     56  NZ        28.2500    6.8800    6.2270 N.3    32  LYS32      -0.1314
     57  N         19.7000    6.7540    2.2570 N.3    34  ALA34      -0.1245
     58  CA        19.2480    5.4530    1.8620 C.3    34  ALA34       0.1562
     59  C         18.1650    5.7180    0.8250 C.2    34  ALA34       0.2260
     60  O         17.2440    6.5400    1.0370 O.2    34  ALA34      -0.2867
     61  CB        18.6830    4.7160    3.0420 C.3    34  ALA34       0.0290
     62  N         15.2340    4.1410   -1.5570 N.3    36  LYS36      -0.1245
     63  CA        14.4200    2.9900   -1.6630 C.3    36  LYS36       0.1561
     64  C         13.5420    3.0610   -2.9270 C.2    36  LYS36       0.2260
     65  O         12.7200    3.9850   -3.1130 O.2    36  LYS36      -0.2867
     66  CB        13.6190    2.8570   -0.3830 C.3    36  LYS36       0.0271
     67  CG        12.7170    1.6450   -0.4050 C.3    36  LYS36       0.0035
     68  CD        11.3320    2.0390   -0.8130 C.3    36  LYS36       0.0206
     69  CE        10.4100    1.8960    0.3750 C.3    36  LYS36       0.1093
     70  NZ        10.1680    0.4320    0.5280 N.3    36  LYS36      -0.1314
     71  N         13.0000    7.7330   11.7070 N.3    64  VAL64      -0.1245
     72  CA        13.8130    7.7990   10.4940 C.3    64  VAL64       0.1561
     73  C         13.1740    8.7630    9.5020 C.2    64  VAL64       0.2260
     74  O         12.0400    8.5480    9.0830 O.2    64  VAL64      -0.2867
     75  CB        13.9330    6.4400    9.8010 C.3    64  VAL64       0.0252
     76  CG1       14.8490    6.5850    8.6100 C.3    64  VAL64       0.0019
     77  CG2       14.5020    5.3600   10.7410 C.3    64  VAL64       0.0019
     78  N         15.7120    8.6280    2.1060 N.3    80  PHE80      -0.1227
     79  CA        15.5880    8.5380    3.5590 C.3    80  PHE80       0.1736
     80  C         16.9120    8.8830    4.2130 C.2    80  PHE80       0.2595
     81  O         17.9910    8.8200    3.5920 O.2    80  PHE80      -0.2718
     82  CB        15.2080    7.1180    4.0150 C.3    80  PHE80       0.0547
     83  CG        13.7810    6.7530    3.7940 C.ar   80  PHE80      -0.0202
     84  CD1       13.4110    5.8960    2.7590 C.ar   80  PHE80      -0.0042
     85  CD2       12.7880    7.2470    4.6300 C.ar   80  PHE80      -0.0042
     86  CE1       12.0900    5.5640    2.5600 C.ar   80  PHE80      -0.0003
     87  CE2       11.4700    6.9060    4.4380 C.ar   80  PHE80      -0.0003
     88  CZ        11.1120    6.0420    3.4230 C.ar   80  PHE80      -0.0000
     89  N         16.8080    9.2280    5.4790 N.am   81  GLU81      -0.1965
     90  CA        17.9250    9.2340    6.3890 C.3    81  GLU81       0.1733
     91  C         18.7030    7.9020    6.3450 C.2    81  GLU81       0.2616
     92  O         18.1360    6.8070    6.5170 O.2    81  GLU81      -0.2715
     93  CB        17.3530    9.4880    7.8230 C.3    81  GLU81       0.0429
     94  CG        18.3730    9.5860    8.9400 C.3    81  GLU81       0.1163
     95  CD        17.7570    9.9150   10.3020 C.2    81  GLU81       0.3649
     96  OE1       18.5880    9.9200   11.2600 O.co2  81  GLU81      -0.2457
     97  OE2       16.4890   10.1150   10.4610 O.co2  81  GLU81      -0.2457
     98  N         20.0220    7.9870    6.1510 N.am   82  PHE82      -0.1960
     99  CA        20.8440    6.8040    6.2350 C.3    82  PHE82       0.1771
    100  C         21.0990    6.4050    7.6850 C.2    82  PHE82       0.2619
    101  O         21.5100    7.2210    8.4670 O.2    82  PHE82      -0.2715
    102  CB        22.1540    6.9840    5.4850 C.3    82  PHE82       0.0574
    103  CG        23.0560    5.7920    5.5710 C.ar   82  PHE82      -0.0200
    104  CD1       22.7140    4.6310    4.9480 C.ar   82  PHE82      -0.0042
    105  CD2       24.2190    5.8290    6.3570 C.ar   82  PHE82      -0.0042
    106  CE1       23.5450    3.5190    5.0400 C.ar   82  PHE82      -0.0003
    107  CE2       25.0410    4.7390    6.4380 C.ar   82  PHE82      -0.0003
    108  CZ        24.7140    3.5760    5.7860 C.ar   82  PHE82      -0.0000
    109  N         20.8700    5.1250    8.0060 N.am   83  MET83      -0.1963
    110  CA        21.0300    4.5870    9.3440 C.3    83  MET83       0.1736
    111  C         22.2160    3.6130    9.3960 C.2    83  MET83       0.2616
    112  O         22.1750    2.4990    8.9040 O.2    83  MET83      -0.2715
    113  CB        19.7380    3.8900    9.7930 C.3    83  MET83       0.0427
    114  CG        18.5260    4.8260    9.8200 C.3    83  MET83       0.0599
    115  SD        18.6500    6.0980   11.0600 S.3    83  MET83      -0.1393
    116  CE        18.4580    5.1430   12.5500 C.3    83  MET83       0.0692
    117  N         23.2440    4.0540   10.0750 N.am   84  GLU84      -0.1963
    118  CA        24.5820    3.4850   10.0070 C.3    84  GLU84       0.1733
    119  C         24.5990    1.9860   10.2730 C.2    84  GLU84       0.2616
    120  O         25.3480    1.2450    9.6430 O.2    84  GLU84      -0.2715
    121  CB        25.4100    4.2510   11.0370 C.3    84  GLU84       0.0429
    122  CG        26.9150    4.1520   10.9900 C.3    84  GLU84       0.1163
    123  CD        27.5330    5.3190   11.7550 C.2    84  GLU84       0.3649
    124  OE1       26.7480    6.1050   12.3270 O.co2  84  GLU84      -0.2457
    125  OE2       28.7740    5.4830   11.7930 O.co2  84  GLU84      -0.2457
    126  N         23.7400    1.5180   11.1830 N.am   85  HIS85      -0.1959
    127  CA        23.8540    0.1530   11.6710 C.3    85  HIS85       0.1787
    128  C         22.6690   -0.7360   11.3520 C.2    85  HIS85       0.2621
    129  O         22.4490   -1.7420   12.0320 O.2    85  HIS85      -0.2715
    130  CB        24.0930    0.1480   13.1670 C.3    85  HIS85       0.0785
    131  CG        25.3060    0.9080   13.5970 C.ar   85  HIS85       0.0821
    132  ND1       26.5870    0.4910   13.2920 N.ar   85  HIS85      -0.2267
    133  CD2       25.4370    2.0450   14.3260 C.ar   85  HIS85       0.1154
    134  CE1       27.4540    1.3360   13.8270 C.ar   85  HIS85       0.1986
    135  NE2       26.7830    2.2850   14.4580 N.ar   85  HIS85      -0.2212
    136  N         21.9200   -0.3960   10.3050 N.am   86  GLY86      -0.1940
    137  CA        21.0080   -1.3500    9.7100 C.3    86  GLY86       0.2014
    138  C         19.7630   -1.6070   10.5310 C.2    86  GLY86       0.2639
    139  O         19.3890   -0.7740   11.3580 O.2    86  GLY86      -0.2714
    140  N         19.1400   -2.7540   10.2680 N.am   87  CYS87      -0.1967
    141  CA        17.8460   -3.1580   10.8600 C.3    87  CYS87       0.1712
    142  C         18.0810   -3.7540   12.2510 C.2    87  CYS87       0.2296
    143  O         18.9820   -4.5420   12.4500 O.2    87  CYS87      -0.2864
    144  CB        17.1400   -4.1450    9.9390 C.3    87  CYS87       0.0983
    145  SG        15.5460   -4.7180   10.5380 S.3    87  CYS87      -0.0798
    146  N         15.3500    0.8420   12.9240 N.3   134  LEU134     -0.1245
    147  CA        16.7120    0.9450   12.3930 C.3   134  LEU134      0.1561
    148  C         17.6230    1.5540   13.4380 C.2   134  LEU134      0.2260
    149  O         17.1730    2.2340   14.3550 O.2   134  LEU134     -0.2867
    150  CB        16.7370    1.7640   11.1220 C.3   134  LEU134      0.0270
    151  CG        16.2800    1.0450    9.8580 C.3   134  LEU134      0.0019
    152  CD1       15.6920    2.0440    8.8580 C.3   134  LEU134      0.0001
    153  CD2       17.3780    0.2220    9.1750 C.3   134  LEU134      0.0001
    154  N         10.6440    3.3280   11.8480 N.3   144  SER144     -0.1217
    155  CA        10.3360    3.5990   10.4620 C.3   144  SER144      0.1889
    156  C          8.9970    2.9820   10.0760 C.2   144  SER144      0.2288
    157  O          8.2660    2.4680   10.9390 O.2   144  SER144     -0.2866
    158  CB        11.4480    3.0280    9.5990 C.3   144  SER144      0.2089
    159  OG        11.3940    3.6610    8.3240 O.3   144  SER144     -0.2183
@<TRIPOS>BOND
     1     1     2    1
     2     2     3    1
     3     2     5    1
     4    65    64    2
     5     3     4    2
     6     5     6    1
     7    64    63    1
     8    43    42    2
     9    63    62    1
    10    63    66    1
    11    33    34    1
    12    36    35    2
    13     6     7    1
    14    35    34    1
    15    42    41    1
    16    34    37    1
    17    40    41    1
    18     8     7    2
    19    68    67    1
    20    68    69    1
    21     7     9   am
    22    67    66    1
    23    41    44    1
    24    10    11    1
    25    44    45    1
    26    69    70    1
    27    37    39    1
    28    37    38    1
    29    45    47    1
    30    45    46    1
    31    59    60    2
    32    59    58    1
    33    25    24    2
    34    13    12    2
    35    11    12    1
    36    11    14    1
    37    16    14    1
    38    24    23    1
    39    58    57    1
    40    58    61    1
    41    12    18   am
    42    14    15    1
    43    15    17    1
    44    78    79    1
    45    21    20    2
    46    86    84   ar
    47    86    88   ar
    48    49    48    1
    49    49    50    1
    50    49    52    1
    51    84    83   ar
    52    50    51    2
    53    18    19    1
    54    53    52    1
    55    53    54    1
    56    20    19    1
    57    23    26    1
    58    23    22    1
    59    88    87   ar
    60    79    82    1
    61    79    80    1
    62    81    80    2
    63    83    82    1
    64    83    85   ar
    65    26    27    1
    66    54    55    1
    67    80    89   am
    68    87    85   ar
    69   104   106   ar
    70   104   103   ar
    71   106   108   ar
    72    55    56    1
    73    27    28   ar
    74    27    29   ar
    75    89    90    1
    76   102   103    1
    77   102    99    1
    78   103   105   ar
    79   108   107   ar
    80    28    30   ar
    81    98    99    1
    82    98    91   am
    83    29    31   ar
    84    99   100    1
    85    91    90    1
    86    91    92    2
    87   105   107   ar
    88    90    93    1
    89    30    32   ar
    90    31    32   ar
    91   100   109   am
    92   100   101    2
    93    93    94    1
    94   109   110    1
    95   159   158    1
    96    76    75    1
    97   152   151    1
    98   112   111    2
    99    94    95    1
   100    74    73    2
   101   153   151    1
   102   110   111    1
   103   110   113    1
   104   111   117   am
   105    73    72    1
   106   158   155    1
   107   120   119    2
   108   137   136    1
   109   137   138    1
   110   113   114    1
   111    75    72    1
   112    75    77    1
   113   114   115    1
   114   151   150    1
   115   144   145    1
   116   144   141    1
   117   118   117    1
   118   118   119    1
   119   118   121    1
   120   156   155    1
   121   156   157    2
   122   140   138   am
   123   140   141    1
   124   119   126   am
   125    95    97   ar
   126    95    96   ar
   127   136   128   am
   128   155   154    1
   129    72    71    1
   130   138   139    2
   131   141   142    1
   132   122   121    1
   133   122   123    1
   134   115   116    1
   135   150   147    1
   136   126   127    1
   137   128   127    1
   138   128   129    2
   139   127   130    1
   140   123   125   ar
   141   123   124   ar
   142   142   143    2
   143   147   146    1
   144   147   148    1
   145   130   131    1
   146   132   131   ar
   147   132   134   ar
   148   148   149    2
   149   131   133   ar
   150   134   135   ar
   151   133   135   ar
