@<TRIPOS>MOLECULE
tmp/4rfqA00.pdb
 215 212 0 0 0
SMALL
GASTEIGER

@<TRIPOS>ATOM
      1  N         -0.1780    2.1370   24.6910 N.3    10  PRO10      -0.2116
      2  CA        -0.3560    3.3990   25.3750 C.3    10  PRO10       0.1372
      3  C         -1.3870    4.3560   24.7610 C.2    10  PRO10       0.2244
      4  O         -1.8340    5.2540   25.4620 O.2    10  PRO10      -0.2868
      5  CB         1.0410    3.9860   25.3610 C.3    10  PRO10       0.0268
      6  CG         1.9020    2.7760   25.5140 C.3    10  PRO10       0.0207
      7  CD         1.2390    1.7450   24.6400 C.3    10  PRO10       0.0892
      8  N         -1.6140   11.5170   28.1190 N.3    20  LEU20      -0.1231
      9  CA        -0.3040   11.9620   28.5310 C.3    20  LEU20       0.1693
     10  C          0.7340   11.6560   27.4490 C.2    20  LEU20       0.2592
     11  O          1.9150   11.8850   27.6620 O.2    20  LEU20      -0.2718
     12  CB         0.0890   11.2390   29.8320 C.3    20  LEU20       0.0284
     13  CG        -0.8770   11.3950   31.0030 C.3    20  LEU20       0.0019
     14  CD1       -0.4120   10.5810   32.1930 C.3    20  LEU20       0.0001
     15  CD2       -0.9990   12.8670   31.3660 C.3    20  LEU20       0.0001
     16  N          0.2950   11.1070   26.3150 N.am   21  GLU21      -0.1966
     17  CA         1.2010   10.6680   25.2460 C.3    21  GLU21       0.1718
     18  C          0.8840   11.4490   23.9920 C.2    21  GLU21       0.2458
     19  O         -0.2840   11.7570   23.7450 O.2    21  GLU21      -0.2730
     20  CB         1.0110    9.1870   24.9430 C.3    21  GLU21       0.0428
     21  CG         1.2030    8.2590   26.1150 C.3    21  GLU21       0.1163
     22  CD         2.6530    7.9200   26.4140 C.2    21  GLU21       0.3649
     23  OE1        2.9360    7.6460   27.5980 O.co2  21  GLU21      -0.2457
     24  OE2        3.5050    7.9010   25.4980 O.co2  21  GLU21      -0.2457
     25  N          1.9130   11.7550   23.1770 N.am   22  PRO22      -0.2727
     26  CA         1.6960   12.4890   21.9450 C.3    22  PRO22       0.1402
     27  C          0.8710   11.6720   20.9980 C.2    22  PRO22       0.2269
     28  O          1.1010   10.4750   20.8770 O.2    22  PRO22      -0.2865
     29  CB         3.1030   12.6850   21.3920 C.3    22  PRO22       0.0296
     30  CG         3.9470   11.6660   22.0460 C.3    22  PRO22       0.0237
     31  CD         3.3080   11.3190   23.3370 C.3    22  PRO22       0.0939
     32  N          0.3210    4.9640   36.0090 N.3    80  LYS80      -0.1231
     33  CA         0.5840    3.5970   35.5710 C.3    80  LYS80       0.1693
     34  C          2.0790    3.4000   35.3290 C.2    80  LYS80       0.2592
     35  O          2.7380    4.2530   34.7350 O.2    80  LYS80      -0.2718
     36  CB        -0.1680    3.2740   34.2800 C.3    80  LYS80       0.0285
     37  CG         0.0370    1.8240   33.8050 C.3    80  LYS80       0.0035
     38  CD        -0.6230    1.5660   32.4570 C.3    80  LYS80       0.0206
     39  CE        -0.0230    0.3610   31.7470 C.3    80  LYS80       0.1093
     40  NZ        -0.2660   -0.9560   32.4070 N.3    80  LYS80      -0.1314
     41  N          2.5970    2.2830   35.8050 N.am   81  ILE81      -0.1966
     42  CA         3.9450    1.8600   35.5180 C.3    81  ILE81       0.1727
     43  C          3.9470    0.6750   34.5510 C.2    81  ILE81       0.2616
     44  O          3.3970   -0.3500   34.8510 O.2    81  ILE81      -0.2715
     45  CB         4.6740    1.4290   36.7930 C.3    81  ILE81       0.0290
     46  CG1        4.6260    2.5680   37.8090 C.3    81  ILE81       0.0022
     47  CG2        6.1200    1.0740   36.4500 C.3    81  ILE81       0.0023
     48  CD1        5.3190    2.2460   39.1130 C.3    81  ILE81       0.0001
     49  N          4.6040    0.8140   33.4090 N.am   82  TRP82      -0.1974
     50  CA         4.5260   -0.2110   32.4010 C.3    82  TRP82       0.1640
     51  C          5.4410   -1.3940   32.7530 C.2    82  TRP82       0.2290
     52  O          6.4940   -1.2110   33.3730 O.2    82  TRP82      -0.2864
     53  CB         4.7930    0.3650   31.0050 C.3    82  TRP82       0.0576
     54  CG         3.6790    1.3030   30.6010 C.ar   82  TRP82       0.0006
     55  CD1        3.4880    2.5980   31.0450 C.ar   82  TRP82       0.0946
     56  CD2        2.5850    1.0260   29.7120 C.ar   82  TRP82       0.0152
     57  NE1        2.3470    3.1150   30.4930 N.ar   82  TRP82      -0.2442
     58  CE2        1.7810    2.1850   29.6660 C.ar   82  TRP82       0.0810
     59  CE3        2.2120   -0.0850   28.9430 C.ar   82  TRP82       0.0012
     60  CZ2        0.6170    2.2580   28.8970 C.ar   82  TRP82       0.0191
     61  CZ3        1.0630   -0.0060   28.1740 C.ar   82  TRP82       0.0001
     62  CH2        0.2730    1.1560   28.1640 C.ar   82  TRP82       0.0015
     63  N          9.3480   -1.7430   32.6680 N.3    85  THR85      -0.1218
     64  CA        10.1500   -1.0530   33.6630 C.3    85  THR85       0.1862
     65  C         10.7160   -2.0710   34.6790 C.2    85  THR85       0.2287
     66  O         11.8940   -2.0370   35.0250 O.2    85  THR85      -0.2866
     67  CB         9.3310    0.0450   34.3910 C.3    85  THR85       0.1770
     68  OG1        9.0300    1.1230   33.4880 O.3    85  THR85      -0.2211
     69  CG2       10.1140    0.6290   35.5740 C.3    85  THR85       0.0375
     70  N         16.9870    9.2420   31.7830 N.3   106  ASP106     -0.1239
     71  CA        15.8010    8.3890   31.7670 C.3   106  ASP106      0.1674
     72  C         14.8450    9.0200   30.7930 C.2   106  ASP106      0.2266
     73  O         14.1920   10.0370   31.0970 O.2   106  ASP106     -0.2867
     74  CB        15.1570    8.3310   33.1400 C.3   106  ASP106      0.1410
     75  CG        14.0320    7.2710   33.2460 C.2   106  ASP106      0.3668
     76  OD1       13.5720    6.6940   32.1890 O.co2 106  ASP106     -0.2456
     77  OD2       13.6290    7.0090   34.4270 O.co2 106  ASP106     -0.2456
     78  N         11.6240    9.2210   28.6600 N.3   108  GLY108     -0.1210
     79  CA        10.2710    8.7950   28.7250 C.3   108  GLY108      0.1956
     80  C         10.0660    8.1430   30.0590 C.2   108  GLY108      0.2612
     81  O          9.6220    7.0170   30.1250 O.2   108  GLY108     -0.2717
     82  N         10.3870    8.8760   31.1180 N.am  109  CYS109     -0.1956
     83  CA        10.5730    8.3080   32.4520 C.3   109  CYS109      0.1843
     84  C          9.3330    7.9150   33.2220 C.2   109  CYS109      0.2626
     85  O          9.4280    7.0820   34.1610 O.2   109  CYS109     -0.2714
     86  CB        11.3360    9.2820   33.3310 C.3   109  CYS109      0.0997
     87  SG        10.5130   10.8930   33.5100 S.3   109  CYS109     -0.0797
     88  N          8.1890    8.4960   32.8720 N.am  110  GLY110     -0.1940
     89  CA         6.9810    8.3880   33.7200 C.3   110  GLY110      0.2014
     90  C          7.3080    8.6060   35.1970 C.2   110  GLY110      0.2639
     91  O          7.7290    9.7050   35.6150 O.2   110  GLY110     -0.2714
     92  N          7.1510    7.5510   35.9820 N.am  111  SER111     -0.1949
     93  CA         7.3790    7.5870   37.4350 C.3   111  SER111      0.1924
     94  C          8.8350    7.7980   37.8290 C.2   111  SER111      0.2314
     95  O          9.1300    8.1980   38.9590 O.2   111  SER111     -0.2863
     96  CB         6.9000    6.2770   38.0550 C.3   111  SER111      0.2116
     97  OG         5.5300    6.0510   37.7330 O.3   111  SER111     -0.2180
     98  N         13.6260    4.2010   36.8170 N.3   114  LEU114     -0.1245
     99  CA        14.8860    3.8490   36.1900 C.3   114  LEU114      0.1561
    100  C         15.9360    4.8560   36.6050 C.2   114  LEU114      0.2260
    101  O         16.9690    4.4840   37.1200 O.2   114  LEU114     -0.2867
    102  CB        14.7600    3.8050   34.6760 C.3   114  LEU114      0.0270
    103  CG        13.7860    2.7590   34.1390 C.3   114  LEU114      0.0019
    104  CD1       13.7550    2.8440   32.6280 C.3   114  LEU114      0.0001
    105  CD2       14.1380    1.3470   34.5880 C.3   114  LEU114      0.0001
    106  N         13.2150   12.8160   31.6150 N.3   129  GLN129     -0.1231
    107  CA        12.3710   13.4190   30.6080 C.3   129  GLN129      0.1698
    108  C         11.0500   12.6380   30.4540 C.2   129  GLN129      0.2592
    109  O         11.0500   11.4110   30.2940 O.2   129  GLN129     -0.2718
    110  CB        13.1230   13.4520   29.2810 C.3   129  GLN129      0.0381
    111  CG        12.3310   13.9870   28.1000 C.3   129  GLN129      0.0905
    112  CD        11.4500   12.9440   27.4280 C.2   129  GLN129      0.2608
    113  OE1       11.7630   11.7330   27.4020 O.2   129  GLN129     -0.2717
    114  NE2       10.3570   13.4030   26.8460 N.am  129  GLN129     -0.0878
    115  N          9.9430   13.3640   30.4910 N.am  130  ASP130     -0.1960
    116  CA         8.6470   12.8470   30.0940 C.3   130  ASP130      0.1840
    117  C          8.0520   13.7960   29.0800 C.2   130  ASP130      0.2622
    118  O          8.4090   14.9590   29.0550 O.2   130  ASP130     -0.2715
    119  CB         7.6970   12.7640   31.2880 C.3   130  ASP130      0.1450
    120  CG         6.5450   11.7820   31.0480 C.2   130  ASP130      0.3671
    121  OD1        6.7450   10.5800   31.3190 O.co2 130  ASP130     -0.2456
    122  OD2        5.4520   12.2070   30.5870 O.co2 130  ASP130     -0.2456
    123  N          7.1230   13.3120   28.2570 N.am  131  TYR131     -0.1974
    124  CA         6.4280   14.1700   27.3210 C.3   131  TYR131      0.1639
    125  C          5.6120   15.1780   28.0890 C.2   131  TYR131      0.2290
    126  O          5.5700   16.3230   27.7280 O.2   131  TYR131     -0.2864
    127  CB         5.4950   13.3610   26.4380 C.3   131  TYR131      0.0560
    128  CG         4.6990   14.1780   25.4010 C.ar  131  TYR131     -0.0198
    129  CD1        5.3190   14.7890   24.3560 C.ar  131  TYR131     -0.0009
    130  CD2        3.3070   14.2700   25.4820 C.ar  131  TYR131     -0.0009
    131  CE1        4.6010   15.5200   23.4040 C.ar  131  TYR131      0.0417
    132  CE2        2.5680   14.9730   24.5380 C.ar  131  TYR131      0.0417
    133  CZ         3.2170   15.6120   23.5070 C.ar  131  TYR131      0.1957
    134  OH         2.4770   16.3080   22.5760 O.3   131  TYR131     -0.2866
    135  N          8.4040   17.5460   27.3780 N.3   168  GLY168     -0.1210
    136  CA         8.1070   17.8960   25.9790 C.3   168  GLY168      0.1956
    137  C          8.4760   16.8030   24.9960 C.2   168  GLY168      0.2612
    138  O          8.9910   15.7770   25.3820 O.2   168  GLY168     -0.2717
    139  N          8.2070   17.0430   23.7210 N.am  169  GLU169     -0.1965
    140  CA         8.5270   16.1090   22.6610 C.3   169  GLU169      0.1733
    141  C         10.0460   16.0000   22.4990 C.2   169  GLU169      0.2616
    142  O         10.7750   16.9780   22.7160 O.2   169  GLU169     -0.2715
    143  CB         7.8550   16.5530   21.3530 C.3   169  GLU169      0.0429
    144  CG         7.5990   15.4180   20.3700 C.3   169  GLU169      0.1163
    145  CD         8.8520   14.9860   19.6120 C.2   169  GLU169      0.3649
    146  OE1        9.0040   13.7750   19.3920 O.co2 169  GLU169     -0.2457
    147  OE2        9.6930   15.8540   19.2390 O.co2 169  GLU169     -0.2457
    148  N         10.5140   14.7970   22.1330 N.am  170  TRP170     -0.1974
    149  CA        11.9350   14.4910   22.0720 C.3   170  TRP170      0.1640
    150  C         12.7760   15.4800   21.2420 C.2   170  TRP170      0.2290
    151  O         13.8470   15.8560   21.6700 O.2   170  TRP170     -0.2864
    152  CB        12.1310   13.0740   21.5580 C.3   170  TRP170      0.0576
    153  CG        11.7460   12.0180   22.5620 C.ar  170  TRP170      0.0006
    154  CD1       11.9840   12.0400   23.8920 C.ar  170  TRP170      0.0946
    155  CD2       11.0910   10.7710   22.2940 C.ar  170  TRP170      0.0152
    156  NE1       11.4830   10.9190   24.4850 N.ar  170  TRP170     -0.2442
    157  CE2       10.9330   10.1170   23.5220 C.ar  170  TRP170      0.0810
    158  CE3       10.6150   10.1510   21.1330 C.ar  170  TRP170      0.0012
    159  CZ2       10.3180    8.8760   23.6280 C.ar  170  TRP170      0.0191
    160  CZ3       10.0010    8.9190   21.2430 C.ar  170  TRP170      0.0001
    161  CH2        9.8510    8.3000   22.4730 C.ar  170  TRP170      0.0015
    162  N         12.0460    2.7130   28.7880 N.3   193  SER193     -0.1202
    163  CA        11.1100    1.6190   28.8770 C.3   193  SER193      0.2020
    164  C          9.8280    1.9470   28.1190 C.2   193  SER193      0.2619
    165  O          9.1760    2.9180   28.4220 O.2   193  SER193     -0.2717
    166  CB        10.7840    1.3360   30.3410 C.3   193  SER193      0.2103
    167  OG         9.6700    0.4700   30.4480 O.3   193  SER193     -0.2182
    168  N          9.5120    1.1250   27.1230 N.am  194  GLU194     -0.1965
    169  CA         8.2830    1.1990   26.3450 C.3   194  GLU194      0.1733
    170  C          8.1070    2.4610   25.5370 C.2   194  GLU194      0.2617
    171  O          7.0160    3.0240   25.4640 O.2   194  GLU194     -0.2715
    172  CB         7.0720    0.9190   27.2270 C.3   194  GLU194      0.0429
    173  CG         7.2830   -0.3280   28.0560 C.3   194  GLU194      0.1163
    174  CD         6.1370   -1.3110   28.0410 C.2   194  GLU194      0.3649
    175  OE1        5.4100   -1.4010   27.0260 O.co2 194  GLU194     -0.2457
    176  OE2        5.9990   -2.0250   29.0620 O.co2 194  GLU194     -0.2457
    177  N          9.1690    2.8670   24.8710 N.am  195  THR195     -0.1951
    178  CA         9.1750    4.0890   24.0920 C.3   195  THR195      0.1897
    179  C          9.1840    3.8900   22.5820 C.2   195  THR195      0.2313
    180  O          9.1260    4.8750   21.8210 O.2   195  THR195     -0.2863
    181  CB        10.3810    4.9240   24.4730 C.3   195  THR195      0.1794
    182  OG1       11.5310    4.0640   24.5790 O.3   195  THR195     -0.2208
    183  CG2       10.1170    5.5730   25.7980 C.3   195  THR195      0.0378
    184  N          6.7270    2.0210   21.0790 N.3   197  TYR197     -0.1227
    185  CA         5.4010    1.5400   20.6880 C.3   197  TYR197      0.1736
    186  C          4.8800    2.2540   19.4550 C.2   197  TYR197      0.2595
    187  O          4.0660    1.7070   18.7310 O.2   197  TYR197     -0.2718
    188  CB         4.3950    1.6710   21.8280 C.3   197  TYR197      0.0548
    189  CG         4.0470    3.0870   22.2140 C.ar  197  TYR197     -0.0200
    190  CD1        3.0190    3.7650   21.5700 C.ar  197  TYR197     -0.0009
    191  CD2        4.7300    3.7480   23.2460 C.ar  197  TYR197     -0.0009
    192  CE1        2.7000    5.0550   21.9170 C.ar  197  TYR197      0.0417
    193  CE2        4.4140    5.0570   23.5880 C.ar  197  TYR197      0.0417
    194  CZ         3.4020    5.6980   22.9120 C.ar  197  TYR197      0.1957
    195  OH         3.0410    6.9780   23.2280 O.3   197  TYR197     -0.2866
    196  N          5.3580    3.4630   19.1960 N.am  198  ASN198     -0.1974
    197  CA         4.8140    4.2760   18.0960 C.3   198  ASN198      0.1688
    198  C          5.8300    4.5790   16.9790 C.2   198  ASN198      0.2292
    199  O          6.7350    5.4180   17.1860 O.2   198  ASN198     -0.2864
    200  CB         4.2730    5.5940   18.6380 C.3   198  ASN198      0.1181
    201  CG         3.3890    6.3040   17.6430 C.2   198  ASN198      0.2629
    202  OD1        3.3900    5.9790   16.4510 O.2   198  ASN198     -0.2716
    203  ND2        2.6130    7.2790   18.1270 N.am  198  ASN198     -0.0877
    204  N          7.2140    8.0870   15.7830 N.3   201  TYR201     -0.1241
    205  CA         8.2320    8.8530   16.5150 C.3   201  TYR201      0.1605
    206  C          9.6090    8.1980   16.5230 C.2   201  TYR201      0.2264
    207  O         10.4990    8.6120   17.2560 O.2   201  TYR201     -0.2867
    208  CB         7.7410    9.1860   17.9220 C.3   201  TYR201      0.0534
    209  CG         6.6120   10.2230   17.9300 C.ar  201  TYR201     -0.0201
    210  CD1        6.8830   11.6020   17.8290 C.ar  201  TYR201     -0.0009
    211  CD2        5.2860    9.8290   17.9950 C.ar  201  TYR201     -0.0009
    212  CE1        5.8510   12.5500   17.8280 C.ar  201  TYR201      0.0417
    213  CE2        4.2500   10.7560   18.0130 C.ar  201  TYR201      0.0417
    214  CZ         4.5280   12.1100   17.9280 C.ar  201  TYR201      0.1957
    215  OH         3.4750   12.9870   17.9420 O.3   201  TYR201     -0.2866
@<TRIPOS>BOND
     1   204   205    1
     2   202   201    2
     3   205   206    1
     4   205   208    1
     5   206   207    2
     6   198   199    2
     7   198   197    1
     8   201   203   am
     9   201   200    1
    10   212   210   ar
    11   212   214   ar
    12   210   209   ar
    13   208   209    1
    14   214   215    1
    15   214   213   ar
    16   209   211   ar
    17   211   213   ar
    18   197   200    1
    19   197   196    1
    20   187   186    2
    21   196   186   am
    22   147   145   ar
    23   146   145   ar
    24   186   185    1
    25   145   144    1
    26   144   143    1
    27   185   184    1
    28   185   188    1
    29    28    27    2
    30    27    26    1
    31   158   160   ar
    32   158   155   ar
    33   150   151    2
    34   150   149    1
    35   160   161   ar
    36   143   140    1
    37    29    26    1
    38    29    30    1
    39   152   149    1
    40   152   153    1
    41   190   192   ar
    42   190   189   ar
    43   180   179    2
    44   188   189    1
    45   192   194   ar
    46    26    25    1
    47    30    31    1
    48   149   148    1
    49   148   141   am
    50   189   191   ar
    51   155   153   ar
    52   155   157   ar
    53   161   159   ar
    54   141   140    1
    55   141   142    2
    56   153   154   ar
    57   134   133    1
    58   179   178    1
    59   140   139    1
    60   194   195    1
    61   194   193   ar
    62    25    31    1
    63    25    18   am
    64   191   193   ar
    65   131   133   ar
    66   131   129   ar
    67   133   132   ar
    68   157   159   ar
    69   157   156   ar
    70   139   137   am
    71    19    18    2
    72   154   156   ar
    73    18    17    1
    74   178   181    1
    75   178   177    1
    76   129   128   ar
    77   181   182    1
    78   181   183    1
    79   132   130   ar
    80     7     1    1
    81     7     6    1
    82     1     2    1
    83     3     2    1
    84     3     4    2
    85   177   170   am
    86    20    17    1
    87    20    21    1
    88   137   138    2
    89   137   136    1
    90    17    16    1
    91     5     2    1
    92     5     6    1
    93   128   130   ar
    94   128   127    1
    95   171   170    2
    96    24    22   ar
    97   170   169    1
    98   136   135    1
    99    21    22    1
   100    16    10   am
   101   169   168    1
   102   169   172    1
   103    22    23   ar
   104   127   124    1
   105   114   112   am
   106   175   174   ar
   107   168   164   am
   108   172   173    1
   109   124   125    1
   110   124   123    1
   111   113   112    2
   112   112   111    1
   113    10    11    2
   114    10     9    1
   115   126   125    2
   116   174   173    1
   117   174   176   ar
   118   111   110    1
   119   164   165    2
   120   164   163    1
   121     8     9    1
   122    62    61   ar
   123    62    60   ar
   124    61    59   ar
   125   123   117   am
   126     9    12    1
   127    78    79    1
   128    79    80    1
   129   162   163    1
   130   163   166    1
   131    60    58   ar
   132    59    56   ar
   133   118   117    2
   134   117   116    1
   135   110   107    1
   136    58    56   ar
   137    58    57   ar
   138    56    54   ar
   139    12    13    1
   140    80    81    2
   141    80    82   am
   142   116   115    1
   143   116   119    1
   144   109   108    2
   145   166   167    1
   146   108   115   am
   147   108   107    1
   148    57    55   ar
   149   122   120   ar
   150    54    53    1
   151    54    55   ar
   152   107   106    1
   153    72    73    2
   154    72    71    1
   155    13    15    1
   156    13    14    1
   157    53    50    1
   158   120   119    1
   159   120   121   ar
   160    82    83    1
   161    39    40    1
   162    39    38    1
   163    71    70    1
   164    71    74    1
   165    76    75   ar
   166    50    51    1
   167    50    49    1
   168    83    84    1
   169    83    86    1
   170    38    37    1
   171   104   103    1
   172    63    64    1
   173    51    52    2
   174    88    84   am
   175    88    89    1
   176    74    75    1
   177    84    85    2
   178    75    77   ar
   179    86    87    1
   180    49    43   am
   181    68    67    1
   182    64    67    1
   183    64    65    1
   184    89    90    1
   185    37    36    1
   186   103   105    1
   187   103   102    1
   188    36    33    1
   189    67    69    1
   190    43    44    2
   191    43    42    1
   192   102    99    1
   193    65    66    2
   194    35    34    2
   195    90    91    2
   196    90    92   am
   197    34    33    1
   198    34    41   am
   199    42    41    1
   200    42    45    1
   201    33    32    1
   202    92    93    1
   203    99   100    1
   204    99    98    1
   205    47    45    1
   206   100   101    2
   207    45    46    1
   208    93    94    1
   209    93    96    1
   210    97    96    1
   211    46    48    1
   212    94    95    2
