@<TRIPOS>MOLECULE
tmp/4rfrA00.pdb
 184 172 0 0 0
SMALL
GASTEIGER

@<TRIPOS>ATOM
      1  N          4.2250   -3.5280   -0.6650 N.3   105  LEU105     -0.1245
      2  CA         2.9760   -4.2080   -0.9860 C.3   105  LEU105      0.1561
      3  C          2.3710   -3.5290   -2.1970 C.2   105  LEU105      0.2260
      4  O          2.2240   -2.3110   -2.2120 O.2   105  LEU105     -0.2867
      5  CB         2.0120   -4.1380    0.1990 C.3   105  LEU105      0.0270
      6  CG         0.6170   -4.7320    0.0180 C.3   105  LEU105      0.0019
      7  CD1        0.6520   -6.2170   -0.3090 C.3   105  LEU105      0.0001
      8  CD2       -0.1960   -4.4840    1.2830 C.3   105  LEU105      0.0001
      9  N         -0.9360   -3.3100   -4.3680 N.3   107  ASN107     -0.1240
     10  CA        -2.3790   -3.5620   -4.3710 C.3   107  ASN107      0.1653
     11  C         -2.9460   -3.2110   -5.7360 C.2   107  ASN107      0.2266
     12  O         -2.6280   -2.1480   -6.2680 O.2   107  ASN107     -0.2867
     13  CB        -3.0960   -2.6910   -3.3170 C.3   107  ASN107      0.1155
     14  CG        -2.8740   -3.1380   -1.8770 C.2   107  ASN107      0.2627
     15  OD1       -3.1850   -2.3910   -0.9220 O.2   107  ASN107     -0.2716
     16  ND2       -2.3590   -4.3290   -1.6920 N.am  107  ASN107     -0.0877
     17  N         -6.6050   -2.7700   -7.7820 N.3   109  TYR109     -0.1241
     18  CA        -8.0450   -2.5960   -7.6730 C.3   109  TYR109      0.1605
     19  C         -8.6960   -2.6710   -9.0460 C.2   109  TYR109      0.2264
     20  O         -8.4510   -1.8230   -9.9020 O.2   109  TYR109     -0.2867
     21  CB        -8.3800   -1.2280   -7.0620 C.3   109  TYR109      0.0534
     22  CG        -7.9300   -1.0600   -5.6420 C.ar  109  TYR109     -0.0201
     23  CD1       -6.5940   -0.8220   -5.3370 C.ar  109  TYR109     -0.0009
     24  CD2       -8.8370   -1.1440   -4.5920 C.ar  109  TYR109     -0.0009
     25  CE1       -6.1700   -0.6840   -4.0270 C.ar  109  TYR109      0.0417
     26  CE2       -8.4210   -0.9860   -3.2810 C.ar  109  TYR109      0.0417
     27  CZ        -7.0910   -0.7800   -3.0040 C.ar  109  TYR109      0.1957
     28  OH        -6.6750   -0.6460   -1.7060 O.3   109  TYR109     -0.2866
     29  N        -10.9630   -1.7210    0.1420 N.3   115  LEU115     -0.1245
     30  CA       -10.1170   -2.1610    1.2380 C.3   115  LEU115      0.1561
     31  C        -10.7710   -1.6890    2.5200 C.2   115  LEU115      0.2260
     32  O        -10.9250   -0.4880    2.7400 O.2   115  LEU115     -0.2867
     33  CB        -8.7170   -1.5690    1.0710 C.3   115  LEU115      0.0270
     34  CG        -7.6150   -2.1010    1.9800 C.3   115  LEU115      0.0019
     35  CD1       -7.3650   -3.5770    1.7300 C.3   115  LEU115      0.0001
     36  CD2       -6.3500   -1.2930    1.7520 C.3   115  LEU115      0.0001
     37  N         -8.8120   -0.3920    8.4630 N.3   118  HIS118     -0.1241
     38  CA        -7.8730   -1.1380    9.2910 C.3   118  HIS118      0.1621
     39  C         -6.6700   -0.2770    9.6420 C.2   118  HIS118      0.2264
     40  O         -6.4940    0.8120    9.0890 O.2   118  HIS118     -0.2867
     41  CB        -7.3930   -2.3990    8.5680 C.3   118  HIS118      0.0745
     42  CG        -6.5460   -2.1180    7.3680 C.ar  118  HIS118      0.0817
     43  ND1       -7.0710   -1.6400    6.1900 N.ar  118  HIS118     -0.2268
     44  CD2       -5.2100   -2.2090    7.1750 C.ar  118  HIS118      0.1154
     45  CE1       -6.0970   -1.4730    5.3120 C.ar  118  HIS118      0.1986
     46  NE2       -4.9590   -1.8090    5.8860 N.ar  118  HIS118     -0.2212
     47  N         -2.2790   -0.5590   10.3020 N.3   120  ASP120     -0.1239
     48  CA        -1.0610   -1.3390   10.1680 C.3   120  ASP120      0.1674
     49  C         -0.2040   -1.0540   11.3810 C.2   120  ASP120      0.2266
     50  O          0.4270   -0.0190   11.4770 O.2   120  ASP120     -0.2867
     51  CB        -0.3310   -0.9910    8.8800 C.3   120  ASP120      0.1410
     52  CG        -1.0320   -1.5450    7.6580 C.2   120  ASP120      0.3668
     53  OD1       -2.1050   -1.0190    7.3200 O.co2 120  ASP120     -0.2456
     54  OD2       -0.5120   -2.5040    7.0340 O.co2 120  ASP120     -0.2456
     55  N          5.0240    5.1170    6.3420 N.3   130  ILE130     -0.1245
     56  CA         4.6680    4.3500    5.1580 C.3   130  ILE130      0.1561
     57  C          4.5680    5.3260    4.0090 C.2   130  ILE130      0.2260
     58  O          3.9920    6.3930    4.1620 O.2   130  ILE130     -0.2867
     59  CB         3.3640    3.5500    5.3690 C.3   130  ILE130      0.0252
     60  CG1        3.6740    2.3630    6.2960 C.3   130  ILE130      0.0019
     61  CG2        2.7780    3.0580    4.0490 C.3   130  ILE130      0.0019
     62  CD1        2.4810    1.5610    6.7580 C.3   130  ILE130      0.0001
     63  N          3.0530    5.7990    0.2910 N.3   132  SER132     -0.1217
     64  CA         1.9480    5.2680   -0.4960 C.3   132  SER132      0.1889
     65  C          1.9100    5.9590   -1.8530 C.2   132  SER132      0.2288
     66  O          1.8800    7.1750   -1.9130 O.2   132  SER132     -0.2866
     67  CB         0.6450    5.5170    0.2500 C.3   132  SER132      0.2089
     68  OG        -0.4590    5.0040   -0.4520 O.3   132  SER132     -0.2183
     69  N         -9.7920    7.5540   -0.6440 N.3   141  PHE141     -0.1241
     70  CA        -9.0880    7.0620    0.5250 C.3   141  PHE141      0.1605
     71  C         -9.7590    7.6210    1.7710 C.2   141  PHE141      0.2264
     72  O         -9.9580    8.8310    1.9000 O.2   141  PHE141     -0.2867
     73  CB        -7.6280    7.5050    0.4400 C.3   141  PHE141      0.0534
     74  CG        -6.7570    7.0530    1.5860 C.ar  141  PHE141     -0.0203
     75  CD1       -6.2950    5.7520    1.6510 C.ar  141  PHE141     -0.0042
     76  CD2       -6.3640    7.9470    2.5740 C.ar  141  PHE141     -0.0042
     77  CE1       -5.4650    5.3450    2.6850 C.ar  141  PHE141     -0.0003
     78  CE2       -5.5390    7.5470    3.6070 C.ar  141  PHE141     -0.0003
     79  CZ        -5.0890    6.2450    3.6570 C.ar  141  PHE141     -0.0000
     80  N         -7.3310   10.1340   -4.1780 N.3   157  LEU157     -0.1245
     81  CA        -5.9490    9.8850   -4.5670 C.3   157  LEU157      0.1561
     82  C         -5.9600    9.5660   -6.0380 C.2   157  LEU157      0.2260
     83  O         -6.6770    8.6680   -6.4800 O.2   157  LEU157     -0.2867
     84  CB        -5.3530    8.7150   -3.7840 C.3   157  LEU157      0.0270
     85  CG        -5.2480    8.9220   -2.2810 C.3   157  LEU157      0.0019
     86  CD1       -4.7650    7.6360   -1.6340 C.3   157  LEU157      0.0001
     87  CD2       -4.3420   10.0870   -1.9280 C.3   157  LEU157      0.0001
     88  N          3.1240    8.9000    5.1320 N.3   165  TRP165     -0.1241
     89  CA         2.3270    8.8210    6.3430 C.3   165  TRP165      0.1605
     90  C          3.2670    8.5900    7.5150 C.2   165  TRP165      0.2264
     91  O          3.6590    7.4640    7.7940 O.2   165  TRP165     -0.2867
     92  CB         1.2910    7.6970    6.2390 C.3   165  TRP165      0.0550
     93  CG         0.3260    7.8570    5.0890 C.ar  165  TRP165      0.0003
     94  CD1        0.4080    7.2670    3.8590 C.ar  165  TRP165      0.0946
     95  CD2       -0.8780    8.6320    5.0800 C.ar  165  TRP165      0.0152
     96  NE1       -0.6600    7.6490    3.0800 N.ar  165  TRP165     -0.2442
     97  CE2       -1.4670    8.4790    3.8090 C.ar  165  TRP165      0.0810
     98  CE3       -1.5070    9.4530    6.0210 C.ar  165  TRP165      0.0012
     99  CZ2       -2.6650    9.1140    3.4560 C.ar  165  TRP165      0.0191
    100  CZ3       -2.6950   10.0810    5.6720 C.ar  165  TRP165      0.0001
    101  CH2       -3.2590    9.9090    4.3990 C.ar  165  TRP165      0.0015
    102  N         -0.1320    9.9110   11.9370 N.3   169  SER169     -0.1202
    103  CA        -0.8980    9.4060   10.7940 C.3   169  SER169      0.2020
    104  C         -0.5100    7.9860   10.3770 C.2   169  SER169      0.2618
    105  O         -1.3130    7.2620    9.7810 O.2   169  SER169     -0.2717
    106  CB        -0.7840   10.3720    9.6020 C.3   169  SER169      0.2103
    107  OG         0.4550   10.2550    8.9060 O.3   169  SER169     -0.2182
    108  N          0.7360    7.6160   10.6660 N.am  170  ARG170     -0.1979
    109  CA         1.2510    6.2720   10.4310 C.3   170  ARG170      0.1597
    110  C          0.3490    5.1890   11.0320 C.2   170  ARG170      0.2287
    111  O          0.2810    4.0790   10.5160 O.2   170  ARG170     -0.2864
    112  CB         2.6680    6.1890   11.0110 C.3   170  ARG170      0.0334
    113  CG         3.3080    4.8150   11.0480 C.3   170  ARG170      0.0492
    114  CD         3.5190    4.2080    9.6730 C.3   170  ARG170      0.2205
    115  NE         4.1260    2.8900    9.8360 N.pl3 170  ARG170     -0.0865
    116  CZ         3.4510    1.7940   10.1610 C.cat 170  ARG170      0.5346
    117  NH1        2.1330    1.8340   10.3190 N.pl3 170  ARG170      0.1354
    118  NH2        4.1000    0.6500   10.3320 N.pl3 170  ARG170      0.1354
    119  N         -3.0760    5.7320   11.7640 N.3   172  PHE172     -0.1241
    120  CA        -4.4910    5.9570   11.5040 C.3   172  PHE172      0.1605
    121  C         -5.1540    4.7310   10.9040 C.2   172  PHE172      0.2264
    122  O         -4.5630    4.0140   10.0770 O.2   172  PHE172     -0.2867
    123  CB        -4.7230    7.1120   10.5240 C.3   172  PHE172      0.0534
    124  CG        -4.5100    8.4910   11.0950 C.ar  172  PHE172     -0.0203
    125  CD1       -4.2630    8.7200   12.4510 C.ar  172  PHE172     -0.0042
    126  CD2       -4.5880    9.5840   10.2460 C.ar  172  PHE172     -0.0042
    127  CE1       -4.0950   10.0080   12.9330 C.ar  172  PHE172     -0.0003
    128  CE2       -4.4090   10.8680   10.7240 C.ar  172  PHE172     -0.0003
    129  CZ        -4.1700   11.0830   12.0650 C.ar  172  PHE172     -0.0000
    130  N         -7.5010    3.3170    8.1590 N.3   174  HIS174     -0.1241
    131  CA        -7.6210    3.7640    6.7760 C.3   174  HIS174      0.1621
    132  C         -8.2160    2.6710    5.9100 C.2   174  HIS174      0.2264
    133  O         -8.2190    1.4920    6.2810 O.2   174  HIS174     -0.2867
    134  CB        -6.2450    4.1340    6.2320 C.3   174  HIS174      0.0745
    135  CG        -5.2690    3.0050    6.3230 C.ar  174  HIS174      0.0817
    136  ND1       -4.5550    2.7410    7.4730 N.ar  174  HIS174     -0.2268
    137  CD2       -4.9490    2.0220    5.4460 C.ar  174  HIS174      0.1154
    138  CE1       -3.8190    1.6620    7.2910 C.ar  174  HIS174      0.1986
    139  NE2       -4.0550    1.1960    6.0790 N.ar  174  HIS174     -0.2212
    140  N        -10.0010    2.0600    1.5040 N.3   176  ILE176     -0.1245
    141  CA       -10.2860    2.5440    0.1520 C.3   176  ILE176      0.1561
    142  C        -11.7120    2.1410   -0.1960 C.2   176  ILE176      0.2260
    143  O        -12.1130    0.9920   -0.0300 O.2   176  ILE176     -0.2867
    144  CB        -9.3130    1.9420   -0.8960 C.3   176  ILE176      0.0252
    145  CG1       -7.8770    2.4450   -0.6750 C.3   176  ILE176      0.0019
    146  CG2       -9.7870    2.2430   -2.3200 C.3   176  ILE176      0.0019
    147  CD1       -7.6210    3.8410   -1.1960 C.3   176  ILE176      0.0001
    148  N         -6.6110    0.4680  -10.7230 N.3   191  ARG191     -0.1245
    149  CA        -5.7440    1.3040   -9.9040 C.3   191  ARG191      0.1563
    150  C         -4.7100    0.3820   -9.2680 C.2   191  ARG191      0.2260
    151  O         -5.0350   -0.7340   -8.8500 O.2   191  ARG191     -0.2867
    152  CB        -6.5330    1.9990   -8.8070 C.3   191  ARG191      0.0307
    153  CG        -5.6760    2.7240   -7.7870 C.3   191  ARG191      0.0489
    154  CD        -6.5260    3.3600   -6.7000 C.3   191  ARG191      0.2205
    155  NE        -5.7160    4.1360   -5.7690 N.pl3 191  ARG191     -0.0865
    156  CZ        -5.3530    3.7660   -4.5410 C.cat 191  ARG191      0.5346
    157  NH1       -5.7150    2.5970   -4.0160 N.pl3 191  ARG191      0.1354
    158  NH2       -4.6180    4.5980   -3.8150 N.pl3 191  ARG191      0.1354
    159  N         -1.6990    0.5600   -6.1130 N.3   193  ASN193     -0.1240
    160  CA        -1.1130    1.3190   -5.0280 C.3   193  ASN193      0.1653
    161  C          0.1060    0.5820   -4.5140 C.2   193  ASN193      0.2266
    162  O          0.0370   -0.6200   -4.2830 O.2   193  ASN193     -0.2867
    163  CB        -2.1080    1.5310   -3.8960 C.3   193  ASN193      0.1155
    164  CG        -1.5220    2.3660   -2.7720 C.2   193  ASN193      0.2627
    165  OD1       -0.9700    1.8310   -1.8240 O.2   193  ASN193     -0.2716
    166  ND2       -1.5850    3.6780   -2.9110 N.am  193  ASN193     -0.0877
    167  N          2.6520    0.4440   -1.2980 N.3   195  THR195     -0.1218
    168  CA         2.9580    0.9070    0.0560 C.3   195  THR195      0.1862
    169  C          4.2870    0.3360    0.5160 C.2   195  THR195      0.2287
    170  O          4.4440   -0.8830    0.6850 O.2   195  THR195     -0.2866
    171  CB         1.8710    0.6280    1.1120 C.3   195  THR195      0.1770
    172  OG1        1.3730   -0.6940    0.9520 O.3   195  THR195     -0.2211
    173  CG2        0.7330    1.6450    1.0130 C.3   195  THR195      0.0375
    174  N          7.1470   -0.1370    3.2480 N.3   197  ARG197     -0.1245
    175  CA         7.1880   -0.3400    4.6880 C.3   197  ARG197      0.1563
    176  C          8.5620   -0.8050    5.1410 C.2   197  ARG197      0.2260
    177  O          9.2480   -1.5400    4.4210 O.2   197  ARG197     -0.2867
    178  CB         6.1890   -1.4330    5.0820 C.3   197  ARG197      0.0307
    179  CG         4.7510   -1.1720    4.6650 C.3   197  ARG197      0.0489
    180  CD         4.1880   -2.3010    3.7990 C.3   197  ARG197      0.2205
    181  NE         2.8560   -1.9560    3.3220 N.pl3 197  ARG197     -0.0865
    182  CZ         1.7480   -2.0200    4.0620 C.cat 197  ARG197      0.5346
    183  NH1        1.7900   -2.4820    5.3140 N.pl3 197  ARG197      0.1354
    184  NH2        0.5880   -1.6260    3.5470 N.pl3 197  ARG197      0.1354
@<TRIPOS>BOND
     1   148   149    1
     2   149   150    1
     3   149   152    1
     4    20    19    2
     5   150   151    2
     6    19    18    1
     7   152   153    1
     8   153   154    1
     9    17    18    1
    10    18    21    1
    11    21    22    1
    12   154   155    1
    13    83    82    2
    14    12    11    2
    15   159   160    1
    16    82    81    1
    17   155   156    2
    18    11    10    1
    19    22    23   ar
    20    22    24   ar
    21    23    25   ar
    22   160   161    1
    23   160   163    1
    24    24    26   ar
    25    81    80    1
    26    81    84    1
    27   156   157    1
    28   156   158    1
    29   161   162    2
    30    10     9    1
    31    10    13    1
    32    25    27   ar
    33   163   164    1
    34    84    85    1
    35    13    14    1
    36    26    27   ar
    37    27    28    1
    38   166   164   am
    39   164   165    2
    40   146   144    1
    41    85    87    1
    42    85    86    1
    43     4     3    2
    44     3     2    1
    45    66    65    2
    46    14    16   am
    47    14    15    2
    48    65    64    1
    49   167   168    1
    50   147   145    1
    51     2     1    1
    52     2     5    1
    53   144   145    1
    54   144   141    1
    55    69    70    1
    56    64    67    1
    57    64    63    1
    58    68    67    1
    59     7     6    1
    60   142   143    2
    61   142   141    1
    62     6     5    1
    63     6     8    1
    64   168   169    1
    65   168   171    1
    66    29    30    1
    67   141   140    1
    68    73    70    1
    69    73    74    1
    70   169   170    2
    71    70    71    1
    72   172   171    1
    73   173   171    1
    74    33    30    1
    75    33    34    1
    76    30    31    1
    77    74    75   ar
    78    74    76   ar
    79    75    77   ar
    80    35    34    1
    81    36    34    1
    82    71    72    2
    83    31    32    2
    84    76    78   ar
    85    77    79   ar
    86    96    97   ar
    87    96    94   ar
    88   174   175    1
    89   181   180    1
    90   181   182    2
    91    99    97   ar
    92    99   101   ar
    93   184   182    1
    94    78    79   ar
    95   180   179    1
    96    97    95   ar
    97    94    93   ar
    98    57    58    2
    99    57    56    1
   100    61    59    1
   101   182   183    1
   102   101   100   ar
   103   177   176    2
   104   179   178    1
   105   175   178    1
   106   175   176    1
   107    95    93   ar
   108    95    98   ar
   109    93    92    1
   110    88    89    1
   111    56    59    1
   112    56    55    1
   113    45    46   ar
   114    45    43   ar
   115    59    60    1
   116   137   139   ar
   117   137   135   ar
   118   100    98   ar
   119    46    44   ar
   120   132   133    2
   121   132   131    1
   122   139   138   ar
   123    43    42   ar
   124   134   135    1
   125   134   131    1
   126    92    89    1
   127    60    62    1
   128   135   136   ar
   129    89    90    1
   130   131   130    1
   131    54    52   ar
   132    44    42   ar
   133   138   136   ar
   134    53    52   ar
   135    42    41    1
   136    90    91    2
   137    52    51    1
   138    37    38    1
   139    41    38    1
   140    51    48    1
   141   107   106    1
   142    40    39    2
   143    38    39    1
   144   106   103    1
   145   114   115    1
   146   114   113    1
   147   105   104    2
   148   115   116    2
   149   122   121    2
   150   116   117    1
   151   116   118    1
   152    48    47    1
   153    48    49    1
   154   126   128   ar
   155   126   124   ar
   156   104   108   am
   157   104   103    1
   158   109   108    1
   159   109   112    1
   160   109   110    1
   161   111   110    2
   162   123   124    1
   163   123   120    1
   164   128   129   ar
   165   103   102    1
   166   121   120    1
   167   112   113    1
   168   124   125   ar
   169    49    50    2
   170   120   119    1
   171   129   127   ar
   172   125   127   ar
