@<TRIPOS>MOLECULE
tmp/4rfwA01.pdb
 195 185 0 0 0
SMALL
GASTEIGER

@<TRIPOS>ATOM
      1  N         65.7790   40.0240   35.5710 N.3    21  VAL21      -0.1245
      2  CA        66.3030   40.5800   34.3340 C.3    21  VAL21       0.1561
      3  C         65.7120   39.8790   33.1090 C.2    21  VAL21       0.2260
      4  O         65.4360   40.5100   32.0860 O.2    21  VAL21      -0.2867
      5  CB        67.8390   40.4720   34.2840 C.3    21  VAL21       0.0252
      6  CG1       68.3530   41.0660   32.9980 C.3    21  VAL21       0.0019
      7  CG2       68.4600   41.1870   35.4830 C.3    21  VAL21       0.0019
      8  N         62.1930   40.9430   32.4920 N.3    24  ILE24      -0.1231
      9  CA        62.2060   42.2800   31.9190 C.3    24  ILE24       0.1692
     10  C         62.5250   42.2360   30.4250 C.2    24  ILE24       0.2592
     11  O         61.9020   42.9500   29.6420 O.2    24  ILE24      -0.2718
     12  CB        63.2180   43.2000   32.6460 C.3    24  ILE24       0.0266
     13  CG1       62.7840   43.3680   34.1010 C.3    24  ILE24       0.0019
     14  CG2       63.2830   44.5600   31.9510 C.3    24  ILE24       0.0020
     15  CD1       63.7490   44.1440   34.9970 C.3    24  ILE24       0.0001
     16  N         63.4750   41.4000   30.0180 N.am   25  CYS25      -0.1970
     17  CA        63.8100   41.3140   28.6100 C.3    25  CYS25       0.1712
     18  C         62.6710   40.7280   27.8110 C.2    25  CYS25       0.2296
     19  O         62.4410   41.1070   26.6670 O.2    25  CYS25      -0.2864
     20  CB        65.0860   40.5070   28.4100 C.3    25  CYS25       0.0983
     21  SG        66.5000   41.4610   28.9670 S.3    25  CYS25      -0.0798
     22  N         59.4890   41.0320   28.6020 N.3    27  ALA27      -0.1231
     23  CA        58.4440   42.0370   28.5630 C.3    27  ALA27       0.1694
     24  C         58.7980   43.1160   27.5500 C.2    27  ALA27       0.2591
     25  O         57.9090   43.7130   26.9330 O.2    27  ALA27      -0.2718
     26  CB        58.2600   42.6400   29.9440 C.3    27  ALA27       0.0304
     27  N         60.0940   43.3630   27.3710 N.am   28  ALA28      -0.1980
     28  CA        60.5700   44.3620   26.4140 C.3    28  ALA28       0.1597
     29  C         60.2860   43.8920   24.9880 C.2    28  ALA28       0.2287
     30  O         59.8350   44.6780   24.1520 O.2    28  ALA28      -0.2864
     31  CB        62.0650   44.6030   26.5850 C.3    28  ALA28       0.0319
     32  N         56.5230   44.2050   24.3250 N.3    31  GLN31      -0.1245
     33  CA        56.1030   45.5720   24.0470 C.3    31  GLN31       0.1566
     34  C         56.6070   46.1660   22.7390 C.2    31  GLN31       0.2260
     35  O         56.0040   47.1020   22.2150 O.2    31  GLN31      -0.2867
     36  CB        56.4510   46.4810   25.2250 C.3    31  GLN31       0.0367
     37  CG        55.6350   46.1910   26.4760 C.3    31  GLN31       0.0905
     38  CD        54.1470   46.0960   26.1910 C.2    31  GLN31       0.2608
     39  OE1       53.5970   45.0030   26.0460 O.2    31  GLN31      -0.2717
     40  NE2       53.4890   47.2440   26.0960 N.am   31  GLN31      -0.0878
     41  N         62.7950   53.5430   20.7120 N.3    61  TRP61      -0.1227
     42  CA        62.1030   52.4200   21.3230 C.3    61  TRP61       0.1737
     43  C         62.4250   52.2350   22.8050 C.2    61  TRP61       0.2595
     44  O         61.5430   51.9360   23.6070 O.2    61  TRP61      -0.2718
     45  CB        62.3840   51.1050   20.5760 C.3    61  TRP61       0.0564
     46  CG        63.7620   50.5370   20.7710 C.ar   61  TRP61       0.0003
     47  CD1       64.8700   50.7940   20.0090 C.ar   61  TRP61       0.0946
     48  CD2       64.1900   49.6480   21.8160 C.ar   61  TRP61       0.0152
     49  NE1       65.9560   50.1170   20.5140 N.ar   61  TRP61      -0.2442
     50  CE2       65.5710   49.4050   21.6210 C.ar   61  TRP61       0.0810
     51  CE3       63.5460   49.0310   22.8940 C.ar   61  TRP61       0.0012
     52  CZ2       66.3180   48.5720   22.4660 C.ar   61  TRP61       0.0191
     53  CZ3       64.2850   48.2000   23.7380 C.ar   61  TRP61       0.0001
     54  CH2       65.6640   47.9790   23.5200 C.ar   61  TRP61       0.0015
     55  N         63.6820   52.4280   23.1670 N.am   62  ASN62      -0.1974
     56  CA        64.0870   52.2490   24.5540 C.3    62  ASN62       0.1688
     57  C         63.5100   53.3210   25.4860 C.2    62  ASN62       0.2292
     58  O         63.0010   52.9950   26.5640 O.2    62  ASN62      -0.2864
     59  CB        65.6230   52.1530   24.6430 C.3    62  ASN62       0.1181
     60  CG        66.3300   53.4180   24.1850 C.2    62  ASN62       0.2629
     61  OD1       65.8110   54.1880   23.3730 O.2    62  ASN62      -0.2716
     62  ND2       67.5340   53.6330   24.7050 N.am   62  ASN62      -0.0877
     63  N         59.5430   52.9290   25.7860 N.3    65  LEU65      -0.1231
     64  CA        59.1130   51.8330   26.6440 C.3    65  LEU65       0.1693
     65  C         59.4160   52.0610   28.1210 C.2    65  LEU65       0.2591
     66  O         58.6310   51.6600   28.9760 O.2    65  LEU65      -0.2718
     67  CB        59.7470   50.5060   26.1900 C.3    65  LEU65       0.0284
     68  CG        59.4320   50.0180   24.7720 C.3    65  LEU65       0.0019
     69  CD1       60.1220   48.6810   24.5290 C.3    65  LEU65       0.0001
     70  CD2       57.9290   49.8760   24.5940 C.3    65  LEU65       0.0001
     71  N         60.5490   52.6820   28.4240 N.am   66  ILE66      -0.1980
     72  CA        60.9110   52.9480   29.8150 C.3    66  ILE66       0.1595
     73  C         59.9040   53.9370   30.4220 C.2    66  ILE66       0.2287
     74  O         59.4900   53.7840   31.5720 O.2    66  ILE66      -0.2864
     75  CB        62.3440   53.5400   29.9070 C.3    66  ILE66       0.0276
     76  CG1       63.3780   52.4570   29.5690 C.3    66  ILE66       0.0022
     77  CG2       62.5640   54.1840   31.2730 C.3    66  ILE66       0.0022
     78  CD1       64.8020   52.9840   29.3730 C.3    66  ILE66       0.0001
     79  N         56.7840   54.3960   29.5060 N.3    68  SER68      -0.1202
     80  CA        55.5120   53.7130   29.6630 C.3    68  SER68       0.2020
     81  C         55.4160   52.8100   30.8880 C.2    68  SER68       0.2618
     82  O         54.4390   52.8890   31.6110 O.2    68  SER68      -0.2717
     83  CB        55.1740   52.8890   28.4150 C.3    68  SER68       0.2103
     84  OG        54.7680   53.7010   27.3410 O.3    68  SER68      -0.2182
     85  N         56.3910   51.9430   31.1320 N.am   69  PHE69      -0.1975
     86  CA        56.2720   51.0720   32.2970 C.3    69  PHE69       0.1639
     87  C         56.4940   51.8380   33.6010 C.2    69  PHE69       0.2290
     88  O         56.0970   51.3950   34.6850 O.2    69  PHE69      -0.2864
     89  CB        57.2050   49.8400   32.1880 C.3    69  PHE69       0.0560
     90  CG        58.6760   50.1310   32.3780 C.ar   69  PHE69      -0.0200
     91  CD1       59.1450   50.6290   33.5860 C.ar   69  PHE69      -0.0042
     92  CD2       59.5970   49.8600   31.3620 C.ar   69  PHE69      -0.0042
     93  CE1       60.5070   50.8560   33.7880 C.ar   69  PHE69      -0.0003
     94  CE2       60.9710   50.0910   31.5580 C.ar   69  PHE69      -0.0003
     95  CZ        61.4200   50.5880   32.7730 C.ar   69  PHE69      -0.0000
     96  N         53.1090   53.4390   34.3700 N.3    72  ARG72      -0.1245
     97  CA        52.2480   52.3360   34.7640 C.3    72  ARG72       0.1563
     98  C         52.5650   51.8880   36.1910 C.2    72  ARG72       0.2260
     99  O         51.7210   51.3040   36.8750 O.2    72  ARG72      -0.2867
    100  CB        52.4620   51.1360   33.8380 C.3    72  ARG72       0.0307
    101  CG        51.5940   49.9310   34.1900 C.3    72  ARG72       0.0489
    102  CD        52.0830   48.6120   33.5620 C.3    72  ARG72       0.2205
    103  NE        52.2250   48.6760   32.1120 N.pl3  72  ARG72      -0.0865
    104  CZ        53.3570   48.4190   31.4630 C.cat  72  ARG72       0.5346
    105  NH1       54.4480   48.0660   32.1380 N.pl3  72  ARG72       0.1354
    106  NH2       53.4120   48.5260   30.1440 N.pl3  72  ARG72       0.1354
    107  N         58.4850   48.1780   39.8490 N.3    80  ILE80      -0.1245
    108  CA        57.7640   48.4880   38.6250 C.3    80  ILE80       0.1561
    109  C         56.8110   47.3810   38.2230 C.2    80  ILE80       0.2260
    110  O         56.9220   46.2410   38.6800 O.2    80  ILE80      -0.2867
    111  CB        58.7180   48.7570   37.4140 C.3    80  ILE80       0.0252
    112  CG1       59.5590   47.5170   37.1130 C.3    80  ILE80       0.0019
    113  CG2       59.6100   49.9620   37.6930 C.3    80  ILE80       0.0019
    114  CD1       60.4170   47.6720   35.8670 C.3    80  ILE80       0.0001
    115  N         55.4260   45.1500   35.0830 N.3    82  LEU82      -0.1231
    116  CA        55.7300   44.7640   33.7050 C.3    82  LEU82       0.1693
    117  C         54.4730   44.5120   32.8680 C.2    82  LEU82       0.2591
    118  O         53.4240   44.1440   33.3970 O.2    82  LEU82      -0.2718
    119  CB        56.6310   43.5260   33.6910 C.3    82  LEU82       0.0284
    120  CG        57.8370   43.5500   34.6380 C.3    82  LEU82       0.0019
    121  CD1       58.6360   42.2610   34.4280 C.3    82  LEU82       0.0001
    122  CD2       58.7100   44.8050   34.4050 C.3    82  LEU82       0.0001
    123  N         54.5660   44.7290   31.5620 N.am   83  ALA83      -0.1980
    124  CA        53.4150   44.5070   30.6940 C.3    83  ALA83       0.1597
    125  C         52.9150   43.0680   30.8650 C.2    83  ALA83       0.2287
    126  O         51.7100   42.8110   30.7770 O.2    83  ALA83      -0.2864
    127  CB        53.7910   44.7740   29.2380 C.3    83  ALA83       0.0319
    128  N         71.2430   44.8440   38.9930 N.3    98  VAL98      -0.1245
    129  CA        70.8410   46.0350   38.2500 C.3    98  VAL98       0.1561
    130  C         70.1580   47.0340   39.1820 C.2    98  VAL98       0.2260
    131  O         69.3150   47.8140   38.7520 O.2    98  VAL98      -0.2867
    132  CB        69.8900   45.6600   37.0750 C.3    98  VAL98       0.0252
    133  CG1       70.6120   44.7690   36.0810 C.3    98  VAL98       0.0019
    134  CG2       68.6770   44.9340   37.6080 C.3    98  VAL98       0.0019
    135  N         70.6400   51.1150   38.3060 N.3   101  ILE101     -0.1231
    136  CA        69.7640   51.6590   37.2700 C.3   101  ILE101      0.1692
    137  C         68.3030   51.6500   37.7000 C.2   101  ILE101      0.2592
    138  O         67.5610   52.6170   37.4540 O.2   101  ILE101     -0.2718
    139  CB        69.9320   50.8970   35.9070 C.3   101  ILE101      0.0266
    140  CG1       69.0850   51.5830   34.8350 C.3   101  ILE101      0.0019
    141  CG2       69.4840   49.4310   36.0070 C.3   101  ILE101      0.0020
    142  CD1       69.5060   52.9960   34.5220 C.3   101  ILE101      0.0001
    143  N         67.8940   50.5660   38.3540 N.am  102  PHE102     -0.1976
    144  CA        66.5340   50.4170   38.8330 C.3   102  PHE102      0.1639
    145  C         66.1920   51.5810   39.7550 C.2   102  PHE102      0.2290
    146  O         65.1580   52.2130   39.5840 O.2   102  PHE102     -0.2864
    147  CB        66.3880   49.0900   39.5720 C.3   102  PHE102      0.0560
    148  CG        64.9740   48.6230   39.6860 C.ar  102  PHE102     -0.0200
    149  CD1       64.3510   47.9920   38.6190 C.ar  102  PHE102     -0.0042
    150  CD2       64.2600   48.8120   40.8630 C.ar  102  PHE102     -0.0042
    151  CE1       63.0400   47.5520   38.7240 C.ar  102  PHE102     -0.0003
    152  CE2       62.9530   48.3810   40.9790 C.ar  102  PHE102     -0.0003
    153  CZ        62.3370   47.7490   39.9110 C.ar  102  PHE102     -0.0000
    154  N         65.4850   54.6610   37.9720 N.3   105  VAL105     -0.1245
    155  CA        64.1660   54.6180   37.3620 C.3   105  VAL105      0.1561
    156  C         63.0570   55.0130   38.3750 C.2   105  VAL105      0.2260
    157  O         62.1240   55.7640   38.0340 O.2   105  VAL105     -0.2867
    158  CB        63.8540   53.2150   36.8350 C.3   105  VAL105      0.0252
    159  CG1       62.4240   53.1450   36.4210 C.3   105  VAL105      0.0019
    160  CG2       64.7510   52.8750   35.6580 C.3   105  VAL105      0.0019
    161  N         70.3460   51.8220   30.2770 N.3   188  CYS188     -0.1235
    162  CA        69.6350   50.5550   30.1030 C.3   188  CYS188      0.1677
    163  C         70.1120   49.8240   28.8860 C.2   188  CYS188      0.2270
    164  O         70.1570   48.5930   28.8570 O.2   188  CYS188     -0.2867
    165  CB        68.1260   50.7610   29.9430 C.3   188  CYS188      0.0956
    166  SG        67.1970   50.9940   31.4710 S.3   188  CYS188     -0.0801
    167  N         73.2750   47.9090   29.4730 N.3   191  HIS191     -0.1226
    168  CA        73.0080   46.6430   30.1600 C.3   191  HIS191      0.1752
    169  C         72.6070   45.5570   29.1650 C.2   191  HIS191      0.2595
    170  O         73.1430   44.4460   29.2050 O.2   191  HIS191     -0.2718
    171  CB        71.9070   46.8120   31.2170 C.3   191  HIS191      0.0759
    172  CG        72.3640   47.5130   32.4550 C.ar  191  HIS191      0.0818
    173  ND1       72.9900   46.8610   33.4960 N.ar  191  HIS191     -0.2268
    174  CD2       72.3090   48.8200   32.8090 C.ar  191  HIS191      0.1154
    175  CE1       73.3020   47.7370   34.4380 C.ar  191  HIS191      0.1986
    176  NE2       72.8970   48.9310   34.0460 N.ar  191  HIS191     -0.2212
    177  N         71.6650   45.8820   28.2820 N.am  192  LEU192     -0.1980
    178  CA        71.1970   44.9530   27.2550 C.3   192  LEU192      0.1596
    179  C         72.3600   44.4880   26.3750 C.2   192  LEU192      0.2287
    180  O         72.4800   43.2980   26.0820 O.2   192  LEU192     -0.2864
    181  CB        70.1470   45.6260   26.3810 C.3   192  LEU192      0.0297
    182  CG        68.7890   45.8080   27.0290 C.3   192  LEU192      0.0022
    183  CD1       67.9720   46.7940   26.2060 C.3   192  LEU192      0.0001
    184  CD2       68.0950   44.4420   27.1420 C.3   192  LEU192      0.0001
    185  N         74.3920   42.0070   28.4760 N.3   195  PHE195     -0.1241
    186  CA        73.6830   40.7390   28.6260 C.3   195  PHE195      0.1605
    187  C         73.8330   39.8910   27.3650 C.2   195  PHE195      0.2264
    188  O         74.0770   38.6890   27.4410 O.2   195  PHE195     -0.2867
    189  CB        72.1950   41.0000   28.9270 C.3   195  PHE195      0.0534
    190  CG        71.9510   41.7590   30.2150 C.ar  195  PHE195     -0.0203
    191  CD1       70.7330   42.3990   30.4430 C.ar  195  PHE195     -0.0042
    192  CD2       72.9440   41.8450   31.1930 C.ar  195  PHE195     -0.0042
    193  CE1       70.5090   43.1190   31.6250 C.ar  195  PHE195     -0.0003
    194  CE2       72.7280   42.5600   32.3710 C.ar  195  PHE195     -0.0003
    195  CZ        71.5070   43.2010   32.5890 C.ar  195  PHE195     -0.0000
@<TRIPOS>BOND
     1    47    49   ar
     2    47    46   ar
     3    49    50   ar
     4    45    46    1
     5    45    42    1
     6    41    42    1
     7    46    48   ar
     8    42    43    1
     9    50    48   ar
    10    50    52   ar
    11    48    51   ar
    12    35    34    2
    13    52    54   ar
    14    34    33    1
    15    43    55   am
    16    43    44    2
    17    51    53   ar
    18    55    56    1
    19    61    60    2
    20    54    53   ar
    21    33    32    1
    22    33    36    1
    23    30    29    2
    24    60    59    1
    25    60    62   am
    26    69    68    1
    27    56    59    1
    28    56    57    1
    29    70    68    1
    30    68    67    1
    31    29    28    1
    32    36    37    1
    33    57    58    2
    34    63    64    1
    35    39    38    2
    36   180   179    2
    37    40    38   am
    38    67    64    1
    39    38    37    1
    40   183   182    1
    41   179   178    1
    42   181   182    1
    43   181   178    1
    44    28    31    1
    45    28    27    1
    46    64    65    1
    47    19    18    2
    48    25    24    2
    49   182   184    1
    50   178   177    1
    51    84    83    1
    52   187   188    2
    53   187   186    1
    54    27    24   am
    55    24    23    1
    56    18    17    1
    57    65    71   am
    58    65    66    2
    59   177   169   am
    60    20    17    1
    61    20    21    1
    62    83    80    1
    63    71    72    1
    64   185   186    1
    65    23    22    1
    66    23    26    1
    67    17    16    1
    68   186   189    1
    69   164   163    2
    70   163   162    1
    71   189   190    1
    72   169   170    2
    73   169   168    1
    74   127   124    1
    75    78    76    1
    76   167   168    1
    77    79    80    1
    78    76    75    1
    79    11    10    2
    80    80    81    1
    81    72    75    1
    82    72    73    1
    83    75    77    1
    84   165   162    1
    85   165   166    1
    86    16    10   am
    87   162   161    1
    88   106   104    1
    89   168   171    1
    90   190   191   ar
    91   190   192   ar
    92    73    74    2
    93    10     9    1
    94   191   193   ar
    95   124   125    1
    96   124   123    1
    97   126   125    2
    98    81    85   am
    99    81    82    2
   100    85    86    1
   101   192   194   ar
   102   171   172    1
   103    92    94   ar
   104    92    90   ar
   105   104   103    2
   106   104   105    1
   107    94    95   ar
   108   123   117   am
   109   193   195   ar
   110     9     8    1
   111     9    12    1
   112    14    12    1
   113     4     3    2
   114   103   102    1
   115    89    86    1
   116    89    90    1
   117    86    87    1
   118   194   195   ar
   119    90    91   ar
   120   172   174   ar
   121   172   173   ar
   122    12    13    1
   123    95    93   ar
   124   174   176   ar
   125   117   118    2
   126   117   116    1
   127     6     5    1
   128     3     2    1
   129   173   175   ar
   130   102   101    1
   131    91    93   ar
   132    87    88    2
   133   119   116    1
   134   119   120    1
   135   116   115    1
   136   100   101    1
   137   100    97    1
   138   176   175   ar
   139    13    15    1
   140     5     2    1
   141     5     7    1
   142     2     1    1
   143    96    97    1
   144   122   120    1
   145   121   120    1
   146   142   140    1
   147    97    98    1
   148   140   139    1
   149   160   158    1
   150   114   112    1
   151   139   141    1
   152   139   136    1
   153   133   132    1
   154    98    99    2
   155   159   158    1
   156   158   155    1
   157   132   134    1
   158   132   129    1
   159   112   111    1
   160   136   137    1
   161   136   135    1
   162   155   154    1
   163   155   156    1
   164   111   113    1
   165   111   108    1
   166   138   137    2
   167   137   143   am
   168   157   156    2
   169   109   108    1
   170   109   110    2
   171   129   128    1
   172   129   130    1
   173   143   144    1
   174   149   151   ar
   175   149   148   ar
   176   108   107    1
   177   151   153   ar
   178   131   130    2
   179   144   147    1
   180   144   145    1
   181   147   148    1
   182   146   145    2
   183   148   150   ar
   184   153   152   ar
   185   150   152   ar
