@<TRIPOS>MOLECULE
tmp/4rg1A02.pdb
 141 136 0 0 0
SMALL
GASTEIGER

@<TRIPOS>ATOM
      1  N          8.1010   26.3770   29.4300 N.3     6  THR6       -0.1218
      2  CA         8.3500   24.9630   29.1550 C.3     6  THR6        0.1862
      3  C          9.0630   24.7620   27.8170 C.2     6  THR6        0.2287
      4  O          8.9630   25.5810   26.9130 O.2     6  THR6       -0.2866
      5  CB         7.0560   24.1470   29.1760 C.3     6  THR6        0.1770
      6  OG1        6.2030   24.5630   28.1000 O.3     6  THR6       -0.2211
      7  CG2        6.3410   24.3320   30.5070 C.3     6  THR6        0.0375
      8  N         10.8260   19.4030   29.2990 N.3    42  ASP42      -0.1225
      9  CA         9.6310   19.1020   30.0860 C.3    42  ASP42       0.1805
     10  C          8.7020   18.0700   29.4400 C.2    42  ASP42       0.2597
     11  O          7.9160   17.4340   30.1340 O.2    42  ASP42      -0.2718
     12  CB         8.8500   20.3940   30.3390 C.3    42  ASP42       0.1424
     13  CG         9.6770   21.4350   31.0250 C.2    42  ASP42       0.3668
     14  OD1       10.0800   21.2270   32.2080 O.co2  42  ASP42      -0.2456
     15  OD2       10.0010   22.4500   30.3660 O.co2  42  ASP42      -0.2456
     16  N          8.7850   17.9020   28.1320 N.am   43  GLU43      -0.1979
     17  CA         7.8800   16.9770   27.3920 C.3    43  GLU43       0.1602
     18  C          8.5880   16.4480   26.1720 C.2    43  GLU43       0.2287
     19  O          9.1930   17.2380   25.4180 O.2    43  GLU43      -0.2864
     20  CB         6.6120   17.6960   26.9370 C.3    43  GLU43       0.0415
     21  CG         5.6360   16.8650   26.1030 C.3    43  GLU43       0.1163
     22  CD         4.5230   17.6900   25.4770 C.2    43  GLU43       0.3649
     23  OE1        4.7490   18.9060   25.1760 O.co2  43  GLU43      -0.2457
     24  OE2        3.4270   17.0870   25.2320 O.co2  43  GLU43      -0.2457
     25  N         12.5020    8.0320   33.0020 N.3    65  GLU65      -0.1245
     26  CA        12.1160    9.2620   33.7130 C.3    65  GLU65       0.1567
     27  C         11.6600    8.9270   35.1090 C.2    65  GLU65       0.2260
     28  O         11.8130    9.7280   36.0230 O.2    65  GLU65      -0.2867
     29  CB        10.9790    9.9930   32.9910 C.3    65  GLU65       0.0388
     30  CG        10.6190   11.3420   33.6150 C.3    65  GLU65       0.1160
     31  CD         9.6150   11.2480   34.7580 C.2    65  GLU65       0.3649
     32  OE1        8.8350   10.2520   34.8170 O.co2  65  GLU65      -0.2457
     33  OE2        9.6310   12.1610   35.6220 O.co2  65  GLU65      -0.2457
     34  N          8.8250   13.0050   44.4570 N.3   104  GLU104     -0.1245
     35  CA         7.7990   12.2460   43.7920 C.3   104  GLU104      0.1567
     36  C          7.3810   11.0790   44.7090 C.2   104  GLU104      0.2260
     37  O          8.1980   10.5230   45.4510 O.2   104  GLU104     -0.2867
     38  CB         8.2910   11.6990   42.4540 C.3   104  GLU104      0.0388
     39  CG         8.4230   12.7510   41.3630 C.3   104  GLU104      0.1160
     40  CD         7.1090   13.4310   41.0580 C.2   104  GLU104      0.3649
     41  OE1        6.2810   12.8660   40.3110 O.co2 104  GLU104     -0.2457
     42  OE2        6.9060   14.5570   41.5430 O.co2 104  GLU104     -0.2457
     43  N          0.5370    8.7940   41.0790 N.3   139  ARG139     -0.1245
     44  CA         1.8320    9.4130   41.2570 C.3   139  ARG139      0.1563
     45  C          1.6060   10.8760   41.5650 C.2   139  ARG139      0.2260
     46  O          0.8390   11.5410   40.8870 O.2   139  ARG139     -0.2867
     47  CB         2.6940    9.2620   40.0040 C.3   139  ARG139      0.0307
     48  CG         4.0260    9.9730   40.0950 C.3   139  ARG139      0.0489
     49  CD         4.9750    9.5360   38.9850 C.3   139  ARG139      0.2205
     50  NE         6.0630   10.4810   38.8480 N.pl3 139  ARG139     -0.0865
     51  CZ         6.9980   10.4260   37.8850 C.cat 139  ARG139      0.5346
     52  NH1        7.0340    9.4310   37.0120 N.pl3 139  ARG139      0.1354
     53  NH2        7.9220   11.3710   37.8310 N.pl3 139  ARG139      0.1354
     54  N          3.3900   14.7200   43.3290 N.3   141  THR141     -0.1218
     55  CA         4.5190   15.4970   43.7990 C.3   141  THR141      0.1862
     56  C          4.2080   16.0060   45.1890 C.2   141  THR141      0.2287
     57  O          3.1470   16.6070   45.4130 O.2   141  THR141     -0.2866
     58  CB         4.8180   16.6900   42.8280 C.3   141  THR141      0.1770
     59  OG1        4.8990   16.1980   41.4900 O.3   141  THR141     -0.2211
     60  CG2        6.1100   17.3580   43.1930 C.3   141  THR141      0.0375
     61  N          2.5780   19.2120   40.0090 N.3   160  SER160     -0.1202
     62  CA         3.8120   18.6250   39.5460 C.3   160  SER160      0.2020
     63  C          4.6870   19.6480   38.8160 C.2   160  SER160      0.2618
     64  O          5.8600   19.3690   38.5730 O.2   160  SER160     -0.2717
     65  CB         3.5200   17.4320   38.6500 C.3   160  SER160      0.2103
     66  OG         2.8300   17.8680   37.4900 O.3   160  SER160     -0.2182
     67  N          4.1170   20.8150   38.5010 N.am  161  GLN161     -0.1979
     68  CA         4.8410   21.9540   37.9130 C.3   161  GLN161      0.1601
     69  C          5.4870   22.8920   38.9300 C.2   161  GLN161      0.2287
     70  O          6.3040   23.7280   38.5490 O.2   161  GLN161     -0.2864
     71  CB         3.9100   22.7430   36.9720 C.3   161  GLN161      0.0394
     72  CG         3.2220   21.8740   35.9070 C.3   161  GLN161      0.0908
     73  CD         4.2080   20.9270   35.2160 C.2   161  GLN161      0.2608
     74  OE1        5.1380   21.3730   34.5530 O.2   161  GLN161     -0.2717
     75  NE2        4.0410   19.6200   35.4190 N.am  161  GLN161     -0.0878
     76  N          9.5230   23.2290   39.1790 N.3   164  ARG164     -0.1245
     77  CA        10.0270   24.1080   38.1000 C.3   164  ARG164      0.1563
     78  C          9.5850   25.5640   38.2810 C.2   164  ARG164      0.2260
     79  O         10.4230   26.4890   38.3190 O.2   164  ARG164     -0.2867
     80  CB         9.5610   23.6080   36.7320 C.3   164  ARG164      0.0307
     81  CG         9.9380   24.5120   35.5590 C.3   164  ARG164      0.0489
     82  CD         9.4410   23.9720   34.2300 C.3   164  ARG164      0.2205
     83  NE         8.0120   23.6760   34.2120 N.pl3 164  ARG164     -0.0865
     84  CZ         7.0340   24.5280   33.9380 C.cat 164  ARG164      0.5346
     85  NH1        7.2590   25.8170   33.7140 N.pl3 164  ARG164      0.1354
     86  NH2        5.7940   24.0910   33.9520 N.pl3 164  ARG164      0.1354
     87  N         12.3290   18.7850   36.8210 N.3   171  TRP171     -0.1227
     88  CA        11.5350   17.7400   37.4730 C.3   171  TRP171      0.1737
     89  C         11.0840   16.6450   36.5110 C.2   171  TRP171      0.2596
     90  O         10.0670   15.9570   36.7320 O.2   171  TRP171     -0.2718
     91  CB        10.3420   18.3970   38.1770 C.3   171  TRP171      0.0564
     92  CG         9.9650   17.6790   39.3970 C.ar  171  TRP171      0.0003
     93  CD1        8.7900   17.0790   39.6470 C.ar  171  TRP171      0.0946
     94  CD2       10.7890   17.4630   40.5390 C.ar  171  TRP171      0.0152
     95  NE1        8.8050   16.5150   40.8910 N.ar  171  TRP171     -0.2442
     96  CE2       10.0210   16.7370   41.4700 C.ar  171  TRP171      0.0810
     97  CE3       12.0920   17.8230   40.8770 C.ar  171  TRP171      0.0012
     98  CZ2       10.5170   16.3450   42.6990 C.ar  171  TRP171      0.0191
     99  CZ3       12.5900   17.4330   42.1300 C.ar  171  TRP171      0.0001
    100  CH2       11.7950   16.7040   43.0120 C.ar  171  TRP171      0.0015
    101  N         11.8770   16.4420   35.4570 N.am  172  GLY172     -0.1942
    102  CA        11.5880   15.3850   34.4850 C.3   172  GLY172      0.2014
    103  C         10.6540   15.8060   33.3790 C.2   172  GLY172      0.2639
    104  O         10.2710   16.9720   33.2720 O.2   172  GLY172     -0.2714
    105  N         10.2960   14.8430   32.5370 N.am  173  TYR173     -0.1959
    106  CA         9.4720   15.0920   31.3840 C.3   173  TYR173      0.1771
    107  C          8.2680   14.1590   31.3770 C.2   173  TYR173      0.2620
    108  O          8.3070   13.0730   31.9500 O.2   173  TYR173     -0.2715
    109  CB        10.2640   14.9070   30.0630 C.3   173  TYR173      0.0574
    110  CG        11.0280   13.5940   29.9510 C.ar  173  TYR173     -0.0198
    111  CD1       10.3870   12.4000   29.6330 C.ar  173  TYR173     -0.0009
    112  CD2       12.3940   13.5410   30.2020 C.ar  173  TYR173     -0.0009
    113  CE1       11.0840   11.2070   29.5420 C.ar  173  TYR173      0.0417
    114  CE2       13.0990   12.3470   30.1160 C.ar  173  TYR173      0.0417
    115  CZ        12.4340   11.1780   29.7900 C.ar  173  TYR173      0.1957
    116  OH        13.1450    9.9960   29.7070 O.3   173  TYR173     -0.2866
    117  N          7.2250   14.5940   30.6860 N.am  174  THR174     -0.1951
    118  CA         6.1160   13.7390   30.3130 C.3   174  THR174      0.1897
    119  C          6.3300   13.2940   28.8810 C.2   174  THR174      0.2313
    120  O          6.9930   13.9900   28.1010 O.2   174  THR174     -0.2863
    121  CB         4.7870   14.4850   30.4600 C.3   174  THR174      0.1794
    122  OG1        4.8390   15.7310   29.7530 O.3   174  THR174     -0.2208
    123  CG2        4.5610   14.7820   31.8890 C.3   174  THR174      0.0378
    124  N         -0.3870   19.5830   25.4280 N.3   189  PRO189     -0.2102
    125  CA        -1.0450   19.5900   26.7250 C.3   189  PRO189      0.1504
    126  C         -1.2170   20.9900   27.3300 C.2   189  PRO189      0.2575
    127  O         -1.5370   21.1040   28.5070 O.2   189  PRO189     -0.2718
    128  CB        -0.0980   18.7540   27.5800 C.3   189  PRO189      0.0282
    129  CG         1.2500   19.0740   27.0190 C.3   189  PRO189      0.0208
    130  CD         1.0290   19.1830   25.5330 C.3   189  PRO189      0.0893
    131  N         -1.0220   22.0380   26.5410 N.am  190  PHE190     -0.1977
    132  CA        -1.1980   23.3960   27.0080 C.3   190  PHE190      0.1639
    133  C         -2.3940   23.9770   26.2720 C.2   190  PHE190      0.2290
    134  O         -2.5020   23.8360   25.0410 O.2   190  PHE190     -0.2864
    135  CB         0.0880   24.1980   26.7620 C.3   190  PHE190      0.0560
    136  CG         1.3180   23.5170   27.2840 C.ar  190  PHE190     -0.0200
    137  CD1        1.4740   23.2890   28.6380 C.ar  190  PHE190     -0.0042
    138  CD2        2.3190   23.0810   26.4180 C.ar  190  PHE190     -0.0042
    139  CE1        2.6010   22.6400   29.1310 C.ar  190  PHE190     -0.0003
    140  CE2        3.4430   22.4450   26.9030 C.ar  190  PHE190     -0.0003
    141  CZ         3.5890   22.2160   28.2570 C.ar  190  PHE190     -0.0000
@<TRIPOS>BOND
     1   134   133    2
     2    23    22   ar
     3    24    22   ar
     4    19    18    2
     5   124   130    1
     6   124   125    1
     7    22    21    1
     8   130   129    1
     9    21    20    1
    10    18    17    1
    11   133   132    1
    12   138   140   ar
    13   138   136   ar
    14   131   132    1
    15   131   126   am
    16   125   126    1
    17   125   128    1
    18   135   132    1
    19   135   136    1
    20   140   141   ar
    21     4     3    2
    22    20    17    1
    23   129   128    1
    24   136   137   ar
    25   126   127    2
    26    17    16    1
    27     3     2    1
    28     6     5    1
    29   120   119    2
    30    16    10   am
    31   141   139   ar
    32   137   139   ar
    33   119   118    1
    34     2     5    1
    35     2     1    1
    36     5     7    1
    37     8     9    1
    38    10     9    1
    39    10    11    2
    40   113   111   ar
    41   113   115   ar
    42   111   110   ar
    43   116   115    1
    44   122   121    1
    45   115   114   ar
    46   110   109    1
    47   110   112   ar
    48   109   106    1
    49     9    12    1
    50   114   112   ar
    51   118   121    1
    52   118   117    1
    53    12    13    1
    54    15    13   ar
    55   121   123    1
    56   117   107   am
    57    13    14   ar
    58   107   106    1
    59   107   108    2
    60   106   105    1
    61   105   103   am
    62    29    30    1
    63    29    26    1
    64    25    26    1
    65   104   103    2
    66   103   102    1
    67    30    31    1
    68    26    27    1
    69    85    84    1
    70    84    86    1
    71    84    83    2
    72    83    82    1
    73    82    81    1
    74   102   101    1
    75    74    73    2
    76    31    32   ar
    77    31    33   ar
    78    27    28    2
    79    73    75   am
    80    73    72    1
    81   101    89   am
    82    81    80    1
    83    72    71    1
    84    89    90    2
    85    89    88    1
    86    80    77    1
    87    87    88    1
    88    71    68    1
    89    52    51    1
    90    88    91    1
    91    66    65    1
    92    53    51    1
    93    51    50    2
    94    68    67    1
    95    68    69    1
    96    77    78    1
    97    77    76    1
    98    91    92    1
    99    78    79    2
   100    67    63   am
   101    70    69    2
   102    64    63    2
   103    65    62    1
   104    63    62    1
   105    50    49    1
   106    49    48    1
   107    92    93   ar
   108    92    94   ar
   109    62    61    1
   110    93    95   ar
   111    47    48    1
   112    47    44    1
   113    41    40   ar
   114    94    97   ar
   115    94    96   ar
   116    97    99   ar
   117    46    45    2
   118    95    96   ar
   119    40    39    1
   120    40    42   ar
   121    43    44    1
   122    44    45    1
   123    39    38    1
   124    96    98   ar
   125    59    58    1
   126    99   100   ar
   127    38    35    1
   128    98   100   ar
   129    58    60    1
   130    58    55    1
   131    54    55    1
   132    35    34    1
   133    35    36    1
   134    55    56    1
   135    36    37    2
   136    56    57    2
