@<TRIPOS>MOLECULE
tmp/4rg1A01.pdb
 107 104 0 0 0
SMALL
GASTEIGER

@<TRIPOS>ATOM
      1  N          9.6680    6.7420   29.2960 N.3    62  GLN62      -0.1245
      2  CA         8.9070    6.7950   30.5540 C.3    62  GLN62       0.1566
      3  C          9.5990    6.0640   31.6860 C.2    62  GLN62       0.2260
      4  O          9.6560    6.5470   32.7970 O.2    62  GLN62      -0.2867
      5  CB         7.4890    6.2450   30.3580 C.3    62  GLN62       0.0367
      6  CG         6.6180    7.1870   29.5700 C.3    62  GLN62       0.0905
      7  CD         5.2090    6.6440   29.3260 C.2    62  GLN62       0.2608
      8  OE1        5.0270    5.4900   28.9310 O.2    62  GLN62      -0.2717
      9  NE2        4.2090    7.4980   29.5230 N.am   62  GLN62      -0.0878
     10  N         12.5020    8.0320   33.0020 N.3    65  GLU65      -0.1245
     11  CA        12.1160    9.2620   33.7130 C.3    65  GLU65       0.1567
     12  C         11.6600    8.9270   35.1090 C.2    65  GLU65       0.2260
     13  O         11.8130    9.7280   36.0230 O.2    65  GLU65      -0.2867
     14  CB        10.9790    9.9930   32.9910 C.3    65  GLU65       0.0388
     15  CG        10.6190   11.3420   33.6150 C.3    65  GLU65       0.1160
     16  CD         9.6150   11.2480   34.7580 C.2    65  GLU65       0.3649
     17  OE1        8.8350   10.2520   34.8170 O.co2  65  GLU65      -0.2457
     18  OE2        9.6310   12.1610   35.6220 O.co2  65  GLU65      -0.2457
     19  N          8.8250   13.0050   44.4570 N.3   104  GLU104     -0.1245
     20  CA         7.7990   12.2460   43.7920 C.3   104  GLU104      0.1567
     21  C          7.3810   11.0790   44.7090 C.2   104  GLU104      0.2260
     22  O          8.1980   10.5230   45.4510 O.2   104  GLU104     -0.2867
     23  CB         8.2910   11.6990   42.4540 C.3   104  GLU104      0.0388
     24  CG         8.4230   12.7510   41.3630 C.3   104  GLU104      0.1160
     25  CD         7.1090   13.4310   41.0580 C.2   104  GLU104      0.3649
     26  OE1        6.2810   12.8660   40.3110 O.co2 104  GLU104     -0.2457
     27  OE2        6.9060   14.5570   41.5430 O.co2 104  GLU104     -0.2457
     28  N          0.5370    8.7940   41.0790 N.3   139  ARG139     -0.1245
     29  CA         1.8320    9.4130   41.2570 C.3   139  ARG139      0.1563
     30  C          1.6060   10.8760   41.5650 C.2   139  ARG139      0.2260
     31  O          0.8390   11.5410   40.8870 O.2   139  ARG139     -0.2867
     32  CB         2.6940    9.2620   40.0040 C.3   139  ARG139      0.0307
     33  CG         4.0260    9.9730   40.0950 C.3   139  ARG139      0.0489
     34  CD         4.9750    9.5360   38.9850 C.3   139  ARG139      0.2205
     35  NE         6.0630   10.4810   38.8480 N.pl3 139  ARG139     -0.0865
     36  CZ         6.9980   10.4260   37.8850 C.cat 139  ARG139      0.5346
     37  NH1        7.0340    9.4310   37.0120 N.pl3 139  ARG139      0.1354
     38  NH2        7.9220   11.3710   37.8310 N.pl3 139  ARG139      0.1354
     39  N          2.5780   19.2120   40.0090 N.3   160  SER160     -0.1217
     40  CA         3.8120   18.6250   39.5460 C.3   160  SER160      0.1889
     41  C          4.6870   19.6480   38.8160 C.2   160  SER160      0.2288
     42  O          5.8600   19.3690   38.5730 O.2   160  SER160     -0.2866
     43  CB         3.5200   17.4320   38.6500 C.3   160  SER160      0.2089
     44  OG         2.8300   17.8680   37.4900 O.3   160  SER160     -0.2183
     45  N         12.3290   18.7850   36.8210 N.3   171  TRP171     -0.1227
     46  CA        11.5350   17.7400   37.4730 C.3   171  TRP171      0.1737
     47  C         11.0840   16.6450   36.5110 C.2   171  TRP171      0.2596
     48  O         10.0670   15.9570   36.7320 O.2   171  TRP171     -0.2718
     49  CB        10.3420   18.3970   38.1770 C.3   171  TRP171      0.0564
     50  CG         9.9650   17.6790   39.3970 C.ar  171  TRP171      0.0003
     51  CD1        8.7900   17.0790   39.6470 C.ar  171  TRP171      0.0946
     52  CD2       10.7890   17.4630   40.5390 C.ar  171  TRP171      0.0152
     53  NE1        8.8050   16.5150   40.8910 N.ar  171  TRP171     -0.2442
     54  CE2       10.0210   16.7370   41.4700 C.ar  171  TRP171      0.0810
     55  CE3       12.0920   17.8230   40.8770 C.ar  171  TRP171      0.0012
     56  CZ2       10.5170   16.3450   42.6990 C.ar  171  TRP171      0.0191
     57  CZ3       12.5900   17.4330   42.1300 C.ar  171  TRP171      0.0001
     58  CH2       11.7950   16.7040   43.0120 C.ar  171  TRP171      0.0015
     59  N         11.8770   16.4420   35.4570 N.am  172  GLY172     -0.1942
     60  CA        11.5880   15.3850   34.4850 C.3   172  GLY172      0.2014
     61  C         10.6540   15.8060   33.3790 C.2   172  GLY172      0.2639
     62  O         10.2710   16.9720   33.2720 O.2   172  GLY172     -0.2714
     63  N         10.2960   14.8430   32.5370 N.am  173  TYR173     -0.1959
     64  CA         9.4720   15.0920   31.3840 C.3   173  TYR173      0.1771
     65  C          8.2680   14.1590   31.3770 C.2   173  TYR173      0.2620
     66  O          8.3070   13.0730   31.9500 O.2   173  TYR173     -0.2715
     67  CB        10.2640   14.9070   30.0630 C.3   173  TYR173      0.0574
     68  CG        11.0280   13.5940   29.9510 C.ar  173  TYR173     -0.0198
     69  CD1       10.3870   12.4000   29.6330 C.ar  173  TYR173     -0.0009
     70  CD2       12.3940   13.5410   30.2020 C.ar  173  TYR173     -0.0009
     71  CE1       11.0840   11.2070   29.5420 C.ar  173  TYR173      0.0417
     72  CE2       13.0990   12.3470   30.1160 C.ar  173  TYR173      0.0417
     73  CZ        12.4340   11.1780   29.7900 C.ar  173  TYR173      0.1957
     74  OH        13.1450    9.9960   29.7070 O.3   173  TYR173     -0.2866
     75  N          7.2250   14.5940   30.6860 N.am  174  THR174     -0.1937
     76  CA         6.1160   13.7390   30.3130 C.3   174  THR174      0.2028
     77  C          6.3300   13.2940   28.8810 C.2   174  THR174      0.2642
     78  O          6.9930   13.9900   28.1010 O.2   174  THR174     -0.2714
     79  CB         4.7870   14.4850   30.4600 C.3   174  THR174      0.1808
     80  OG1        4.8390   15.7310   29.7530 O.3   174  THR174     -0.2208
     81  CG2        4.5610   14.7820   31.8890 C.3   174  THR174      0.0379
     82  N          5.8230   12.1110   28.5550 N.am  175  VAL175     -0.1963
     83  CA         5.9920   11.5280   27.2370 C.3   175  VAL175      0.1727
     84  C          4.6140   11.4770   26.5970 C.2   175  VAL175      0.2616
     85  O          3.6450   11.0130   27.2340 O.2   175  VAL175     -0.2715
     86  CB         6.5950   10.1210   27.2950 C.3   175  VAL175      0.0290
     87  CG1        6.6790    9.5200   25.8990 C.3   175  VAL175      0.0023
     88  CG2        7.9710   10.1610   27.9450 C.3   175  VAL175      0.0023
     89  N          4.5180   12.0170   25.3870 N.am  176  ARG176     -0.1963
     90  CA         3.2660   12.0410   24.6260 C.3   176  ARG176      0.1729
     91  C          3.4330   11.3200   23.2980 C.2   176  ARG176      0.2616
     92  O          4.3990   11.5580   22.5490 O.2   176  ARG176     -0.2715
     93  CB         2.7960   13.4710   24.4300 C.3   176  ARG176      0.0348
     94  CG         1.5140   13.5920   23.6470 C.3   176  ARG176      0.0492
     95  CD         0.9170   14.9670   23.8010 C.3   176  ARG176      0.2205
     96  NE         1.6830   16.0700   23.2090 N.pl3 176  ARG176     -0.0865
     97  CZ         1.5840   16.4920   21.9490 C.cat 176  ARG176      0.5346
     98  NH1        2.2650   17.5610   21.5740 N.pl3 176  ARG176      0.1354
     99  NH2        0.7970   15.8610   21.0590 N.pl3 176  ARG176      0.1354
    100  N          2.5000   10.4200   22.9930 N.am  177  LEU177     -0.1977
    101  CA         2.4640    9.8130   21.6610 C.3   177  LEU177      0.1596
    102  C          1.5750   10.6180   20.7160 C.2   177  LEU177      0.2287
    103  O          0.4740   11.0340   21.0850 O.2   177  LEU177     -0.2864
    104  CB         1.9720    8.3730   21.7290 C.3   177  LEU177      0.0297
    105  CG         2.9830    7.3800   22.2650 C.3   177  LEU177      0.0022
    106  CD1        2.2800    6.1770   22.8920 C.3   177  LEU177      0.0001
    107  CD2        3.9040    6.9520   21.1330 C.3   177  LEU177      0.0001
@<TRIPOS>BOND
     1   102   103    2
     2   102   101    1
     3    99    97    1
     4   107   105    1
     5    98    97    1
     6   101   104    1
     7   101   100    1
     8   104   105    1
     9    97    96    2
    10   105   106    1
    11    92    91    2
    12   100    91   am
    13    96    95    1
    14    91    90    1
    15    94    95    1
    16    94    93    1
    17    93    90    1
    18    90    89    1
    19    89    84   am
    20    87    86    1
    21    84    85    2
    22    84    83    1
    23    83    86    1
    24    83    82    1
    25    86    88    1
    26    78    77    2
    27    82    77   am
    28    77    76    1
    29     8     7    2
    30     1     2    1
    31     7     9   am
    32     7     6    1
    33    71    69   ar
    34    71    73   ar
    35     6     5    1
    36    69    68   ar
    37    74    73    1
    38    80    79    1
    39    73    72   ar
    40    68    67    1
    41    68    70   ar
    42    67    64    1
    43    72    70   ar
    44    76    79    1
    45    76    75    1
    46     5     2    1
    47    79    81    1
    48     2     3    1
    49    75    65   am
    50    65    64    1
    51    65    66    2
    52    64    63    1
    53     3     4    2
    54    63    61   am
    55    14    15    1
    56    14    11    1
    57    10    11    1
    58    62    61    2
    59    61    60    1
    60    15    16    1
    61    11    12    1
    62    60    59    1
    63    16    17   ar
    64    16    18   ar
    65    12    13    2
    66    59    47   am
    67    47    48    2
    68    47    46    1
    69    45    46    1
    70    37    36    1
    71    46    49    1
    72    44    43    1
    73    38    36    1
    74    36    35    2
    75    49    50    1
    76    42    41    2
    77    43    40    1
    78    41    40    1
    79    35    34    1
    80    34    33    1
    81    50    51   ar
    82    50    52   ar
    83    40    39    1
    84    51    53   ar
    85    32    33    1
    86    32    29    1
    87    26    25   ar
    88    52    55   ar
    89    52    54   ar
    90    55    57   ar
    91    31    30    2
    92    53    54   ar
    93    25    24    1
    94    25    27   ar
    95    28    29    1
    96    29    30    1
    97    24    23    1
    98    54    56   ar
    99    57    58   ar
   100    23    20    1
   101    56    58   ar
   102    20    19    1
   103    20    21    1
   104    21    22    2
