@<TRIPOS>MOLECULE
tmp/4rg1A00.pdb
 171 165 0 0 0
SMALL
GASTEIGER

@<TRIPOS>ATOM
      1  N         13.8530   21.8130   12.7530 N.3   200  THR200     -0.1203
      2  CA        15.2880   21.7130   12.5080 C.3   200  THR200      0.1994
      3  C         15.5790   20.9900   11.2040 C.2   200  THR200      0.2619
      4  O         14.9220   19.9920   10.8770 O.2   200  THR200     -0.2717
      5  CB        15.9680   20.9700   13.6700 C.3   200  THR200      0.1784
      6  OG1       15.3320   19.7020   13.8440 O.3   200  THR200     -0.2211
      7  CG2       15.8910   21.7720   14.9690 C.3   200  THR200      0.0376
      8  N         16.5650   21.4870   10.4590 N.am  201  SER201     -0.1937
      9  CA        16.9290   20.9200    9.1880 C.3   201  SER201      0.2055
     10  C         18.2050   21.5270    8.7030 C.2   201  SER201      0.2643
     11  O         18.4490   22.7220    8.9090 O.2   201  SER201     -0.2714
     12  CB        15.8390   21.2310    8.1340 C.3   201  SER201      0.2130
     13  OG        16.2560   20.8450    6.8220 O.3   201  SER201     -0.2179
     14  N         19.0080   20.7340    8.0000 N.am  202  GLU202     -0.1963
     15  CA        20.1780   21.3000    7.3150 C.3   202  GLU202      0.1733
     16  C         19.7540   22.3620    6.3110 C.2   202  GLU202      0.2616
     17  O         20.5600   23.2390    5.9460 O.2   202  GLU202     -0.2715
     18  CB        21.0360   20.2500    6.5910 C.3   202  GLU202      0.0429
     19  CG        22.3180   20.8430    5.9920 C.3   202  GLU202      0.1163
     20  CD        23.1500   19.8700    5.1730 C.2   202  GLU202      0.3649
     21  OE1       22.6410   18.7870    4.8620 O.co2 202  GLU202     -0.2457
     22  OE2       24.3190   20.1960    4.8420 O.co2 202  GLU202     -0.2457
     23  N         18.5030   22.3180    5.8580 N.am  203  ARG203     -0.1977
     24  CA        18.0160   23.3370    4.9140 C.3   203  ARG203      0.1597
     25  C         17.3820   24.5680    5.5770 C.2   203  ARG203      0.2287
     26  O         16.8980   25.4610    4.9110 O.2   203  ARG203     -0.2864
     27  CB        17.0720   22.6690    3.8950 C.3   203  ARG203      0.0334
     28  CG        17.8550   21.7070    2.9850 C.3   203  ARG203      0.0492
     29  CD        17.0030   21.1200    1.8690 C.3   203  ARG203      0.2205
     30  NE        16.1470   20.0780    2.3910 N.pl3 203  ARG203     -0.0865
     31  CZ        16.5310   18.8270    2.6720 C.cat 203  ARG203      0.5346
     32  NH1       15.6510   17.9840    3.1710 N.pl3 203  ARG203      0.1354
     33  NH2       17.7800   18.4100    2.4640 N.pl3 203  ARG203      0.1354
     34  N         12.2480   17.5570   15.4860 N.3   222  PHE222     -0.1227
     35  CA        13.2830   16.8600   14.7500 C.3   222  PHE222      0.1736
     36  C         12.6720   15.8040   13.8580 C.2   222  PHE222      0.2596
     37  O         11.6410   15.2190   14.2100 O.2   222  PHE222     -0.2718
     38  CB        14.2360   16.1750   15.7300 C.3   222  PHE222      0.0547
     39  CG        14.9330   17.1290   16.6470 C.ar  222  PHE222     -0.0202
     40  CD1       14.3320   17.5470   17.8160 C.ar  222  PHE222     -0.0042
     41  CD2       16.1950   17.6280   16.3210 C.ar  222  PHE222     -0.0042
     42  CE1       14.9520   18.4580   18.6610 C.ar  222  PHE222     -0.0003
     43  CE2       16.8210   18.5490   17.1540 C.ar  222  PHE222     -0.0003
     44  CZ        16.2060   18.9610   18.3270 C.ar  222  PHE222     -0.0000
     45  N         13.3050   15.5780   12.7050 N.am  223  GLY223     -0.1942
     46  CA        12.9170   14.4970   11.7990 C.3   223  GLY223      0.2014
     47  C         13.6960   13.2310   12.0460 C.2   223  GLY223      0.2639
     48  O         14.5500   13.1750   12.9300 O.2   223  GLY223     -0.2714
     49  N         13.4070   12.2140   11.2420 N.am  224  GLY224     -0.1939
     50  CA        14.1870   10.9900   11.2450 C.3   224  GLY224      0.2014
     51  C         15.0760   10.9310   10.0190 C.2   224  GLY224      0.2639
     52  O         15.5270   11.9420    9.5140 O.2   224  GLY224     -0.2714
     53  N         15.2890    9.7240    9.5030 N.am  225  LEU225     -0.1963
     54  CA        16.2470    9.5230    8.4210 C.3   225  LEU225      0.1728
     55  C         15.9130   10.3540    7.1750 C.2   225  LEU225      0.2616
     56  O         16.8180   10.8610    6.5150 O.2   225  LEU225     -0.2715
     57  CB        16.3670    8.0160    8.1080 C.3   225  LEU225      0.0311
     58  CG        17.5400    7.5570    7.2460 C.3   225  LEU225      0.0022
     59  CD1       18.8710    7.7850    7.9530 C.3   225  LEU225      0.0001
     60  CD2       17.3780    6.0800    6.8890 C.3   225  LEU225      0.0001
     61  N         14.6260   10.5530    6.8690 N.am  226  GLN226     -0.1963
     62  CA        14.2880   11.3430    5.6720 C.3   226  GLN226      0.1733
     63  C         13.8590   12.7770    5.9960 C.2   226  GLN226      0.2617
     64  O         13.2660   13.4780    5.1650 O.2   226  GLN226     -0.2715
     65  CB        13.2620   10.6090    4.7890 C.3   226  GLN226      0.0408
     66  CG        13.7030    9.1950    4.3930 C.3   226  GLN226      0.0908
     67  CD        15.0540    9.1610    3.7000 C.2   226  GLN226      0.2608
     68  OE1       15.4520   10.1160    3.0310 O.2   226  GLN226     -0.2717
     69  NE2       15.7680    8.0500    3.8540 N.am  226  GLN226     -0.0878
     70  N         14.2010   13.2540    7.1930 N.am  227  GLY227     -0.1940
     71  CA        13.9310   14.6540    7.5580 C.3   227  GLY227      0.2014
     72  C         12.4780   14.8940    7.9470 C.2   227  GLY227      0.2639
     73  O         11.6630   13.9600    7.9650 O.2   227  GLY227     -0.2714
     74  N         12.1450   16.1480    8.2680 N.am  228  LEU228     -0.1963
     75  CA        10.7560   16.4920    8.5420 C.3   228  LEU228      0.1728
     76  C          9.8520   16.3560    7.3220 C.2   228  LEU228      0.2616
     77  O          8.6160   16.3090    7.4600 O.2   228  LEU228     -0.2715
     78  CB        10.6460   17.8940    9.1510 C.3   228  LEU228      0.0311
     79  CG        11.1320   17.8680   10.6070 C.3   228  LEU228      0.0022
     80  CD1       11.3820   19.2630   11.1720 C.3   228  LEU228      0.0001
     81  CD2       10.0990   17.1210   11.4440 C.3   228  LEU228      0.0001
     82  N         10.4580   16.2960    6.1430 N.am  229  GLU229     -0.1977
     83  CA         9.7150   16.0150    4.9000 C.3   229  GLU229      0.1602
     84  C          8.8400   14.7710    4.9630 C.2   229  GLU229      0.2287
     85  O          7.7020   14.7880    4.4740 O.2   229  GLU229     -0.2864
     86  CB        10.6690   15.9330    3.7030 C.3   229  GLU229      0.0415
     87  CG        11.1280   17.2960    3.2200 C.3   229  GLU229      0.1163
     88  CD        12.3710   17.8280    3.9350 C.2   229  GLU229      0.3649
     89  OE1       12.7750   17.2840    4.9840 O.co2 229  GLU229     -0.2457
     90  OE2       12.9630   18.7960    3.4160 O.co2 229  GLU229     -0.2457
     91  N         15.4360   26.0170   11.3970 N.3   251  VAL251     -0.1231
     92  CA        16.8280   26.4070   11.5600 C.3   251  VAL251      0.1692
     93  C         17.8000   25.2560   11.3530 C.2   251  VAL251      0.2592
     94  O         17.4990   24.0840   11.6890 O.2   251  VAL251     -0.2718
     95  CB        17.0810   27.0770   12.9440 C.3   251  VAL251      0.0266
     96  CG1       16.3670   28.4200   13.0220 C.3   251  VAL251      0.0020
     97  CG2       16.6640   26.1850   14.0930 C.3   251  VAL251      0.0020
     98  N         18.9360   25.6200   10.7670 N.am  252  ASN252     -0.1960
     99  CA        20.1430   24.8020   10.6940 C.3   252  ASN252      0.1819
    100  C         20.9890   25.1620   11.9170 C.2   252  ASN252      0.2622
    101  O         21.3770   26.3290   12.1240 O.2   252  ASN252     -0.2715
    102  CB        20.8970   25.1010    9.3750 C.3   252  ASN252      0.1195
    103  CG        22.1800   24.3080    9.2480 C.2   252  ASN252      0.2630
    104  OD1       22.8240   23.9600   10.2490 O.2   252  ASN252     -0.2716
    105  ND2       22.5660   24.0120    8.0250 N.am  252  ASN252     -0.0877
    106  N         21.2280   24.1840   12.7840 N.am  253  THR253     -0.1937
    107  CA        21.9180   24.4760   14.0540 C.3   253  THR253      0.2028
    108  C         23.3970   24.1010   14.0700 C.2   253  THR253      0.2642
    109  O         24.0500   24.2040   15.1130 O.2   253  THR253     -0.2714
    110  CB        21.1990   23.7510   15.2100 C.3   253  THR253      0.1808
    111  OG1       21.2150   22.3420   14.9390 O.3   253  THR253     -0.2208
    112  CG2       19.8150   24.2550   15.3400 C.3   253  THR253      0.0379
    113  N         23.9490   23.6900   12.9160 N.am  254  CYS254     -0.1967
    114  CA        25.3450   23.3250   12.8230 C.3   254  CYS254      0.1712
    115  C         25.9050   23.7790   11.4830 C.2   254  CYS254      0.2296
    116  O         25.9870   22.9800   10.5310 O.2   254  CYS254     -0.2864
    117  CB        25.5000   21.8100   12.9570 C.3   254  CYS254      0.0983
    118  SG        27.2340   21.3210   13.0000 S.3   254  CYS254     -0.0798
    119  N         28.5520   21.8860    8.6790 N.3   257  GLN257     -0.1245
    120  CA        28.7520   20.5310    9.2020 C.3   257  GLN257      0.1566
    121  C         29.7530   19.7110    8.3500 C.2   257  GLN257      0.2260
    122  O         29.7200   19.7620    7.1070 O.2   257  GLN257     -0.2867
    123  CB        27.4050   19.7970    9.2910 C.3   257  GLN257      0.0367
    124  CG        26.7310   19.5130    7.9410 C.3   257  GLN257      0.0905
    125  CD        25.3080   19.0550    8.0920 C.2   257  GLN257      0.2608
    126  OE1       24.4170   19.8400    8.4680 O.2   257  GLN257     -0.2717
    127  NE2       25.0740   17.7750    7.8290 N.am  257  GLN257     -0.0878
    128  N         25.3900   13.9550    6.8530 N.3   261  THR261     -0.1203
    129  CA        24.1450   13.8820    7.6170 C.3   261  THR261      0.1994
    130  C         24.4510   13.8250    9.1010 C.2   261  THR261      0.2618
    131  O         25.3760   13.1550    9.5270 O.2   261  THR261     -0.2717
    132  CB        23.3180   12.6340    7.2330 C.3   261  THR261      0.1784
    133  OG1       24.1990   11.5180    7.1020 O.3   261  THR261     -0.2211
    134  CG2       22.5720   12.8480    5.9150 C.3   261  THR261      0.0376
    135  N         23.6770   14.5500    9.8850 N.am  262  ILE262     -0.1965
    136  CA        23.7400   14.4700   11.3220 C.3   262  ILE262      0.1727
    137  C         22.5380   13.6290   11.7750 C.2   262  ILE262      0.2616
    138  O         21.3990   13.8990   11.3730 O.2   262  ILE262     -0.2715
    139  CB        23.6710   15.8760   11.9280 C.3   262  ILE262      0.0290
    140  CG1       24.8880   16.7130   11.5030 C.3   262  ILE262      0.0022
    141  CG2       23.5650   15.8420   13.4520 C.3   262  ILE262      0.0023
    142  CD1       24.7540   18.1390   11.8990 C.3   262  ILE262      0.0001
    143  N         22.7900   12.6260   12.6030 N.am  263  ARG263     -0.1963
    144  CA        21.7390   11.7280   13.0670 C.3   263  ARG263      0.1729
    145  C         20.8550   12.4620   14.0650 C.2   263  ARG263      0.2616
    146  O         21.3020   13.3640   14.7650 O.2   263  ARG263     -0.2715
    147  CB        22.3360   10.4640   13.6900 C.3   263  ARG263      0.0348
    148  CG        23.1620    9.6490   12.6860 C.3   263  ARG263      0.0492
    149  CD        24.0060    8.5790   13.3450 C.3   263  ARG263      0.2205
    150  NE        23.2670    7.7640   14.2880 N.pl3 263  ARG263     -0.0865
    151  CZ        22.6630    6.6010   14.0380 C.cat 263  ARG263      0.5346
    152  NH1       22.6940    6.0420   12.8310 N.pl3 263  ARG263      0.1354
    153  NH2       22.0070    5.9730   15.0360 N.pl3 263  ARG263      0.1354
    154  N         19.5910   12.0420   14.1410 N.am  264  THR264     -0.1951
    155  CA        18.6270   12.6490   15.0470 C.3   264  THR264      0.1897
    156  C         19.1340   12.8370   16.4780 C.2   264  THR264      0.2313
    157  O         19.0310   13.9480   17.0380 O.2   264  THR264     -0.2863
    158  CB        17.3150   11.8590   15.0220 C.3   264  THR264      0.1794
    159  OG1       16.8340   11.8140   13.6740 O.3   264  THR264     -0.2208
    160  CG2       16.2850   12.5070   15.9320 C.3   264  THR264      0.0378
    161  N         21.7650   15.4890   16.5560 N.3   267  ALA267     -0.1245
    162  CA        21.1430   16.7690   16.3080 C.3   267  ALA267      0.1562
    163  C         20.3840   17.3440   17.5230 C.2   267  ALA267      0.2260
    164  O         20.2740   18.5640   17.6720 O.2   267  ALA267     -0.2867
    165  CB        20.2020   16.6590   15.1180 C.3   267  ALA267      0.0290
    166  N         21.4110   20.9200   18.6580 N.3   271  SER271     -0.1217
    167  CA        20.3620   21.9450   18.5150 C.3   271  SER271      0.1889
    168  C         19.9250   22.5400   19.8130 C.2   271  SER271      0.2288
    169  O         19.7680   23.7530   19.9100 O.2   271  SER271     -0.2866
    170  CB        19.1380   21.3760   17.7540 C.3   271  SER271      0.2089
    171  OG        19.5110   20.8600   16.4930 O.3   271  SER271     -0.2183
@<TRIPOS>BOND
     1    29    30    1
     2    29    28    1
     3    30    31    2
     4    33    31    1
     5    31    32    1
     6    28    27    1
     7    68    67    2
     8    87    86    1
     9    87    88    1
    10    90    88   ar
    11    67    69   am
    12    67    66    1
    13    86    83    1
    14    27    24    1
    15    88    89   ar
    16    66    65    1
    17    85    84    2
    18    65    62    1
    19    22    20   ar
    20    21    20   ar
    21    83    84    1
    22    83    82    1
    23    26    25    2
    24    24    25    1
    25    24    23    1
    26    64    63    2
    27    20    19    1
    28    62    63    1
    29    62    61    1
    30    23    16   am
    31   134   132    1
    32    17    16    2
    33    19    18    1
    34    63    70   am
    35    82    76   am
    36    16    15    1
    37    56    55    2
    38    18    15    1
    39    13    12    1
    40   128   129    1
    41    61    55   am
    42    60    58    1
    43   133   132    1
    44   122   121    2
    45    55    54    1
    46    70    71    1
    47   132   129    1
    48    58    59    1
    49    58    57    1
    50    15    14    1
    51    76    77    2
    52    76    75    1
    53    71    72    1
    54   129   130    1
    55   127   125   am
    56   124   125    1
    57   124   123    1
    58    72    73    2
    59    72    74   am
    60    14    10   am
    61   105   103   am
    62   125   126    2
    63    57    54    1
    64    12     9    1
    65    74    75    1
    66   121   120    1
    67    54    53    1
    68    75    78    1
    69   119   120    1
    70    10    11    2
    71    10     9    1
    72   130   131    2
    73   130   135   am
    74    78    79    1
    75     9     8    1
    76   120   123    1
    77   103   102    1
    78   103   104    2
    79   102    99    1
    80    53    51   am
    81    52    51    2
    82   135   136    1
    83    51    50    1
    84     8     3   am
    85   116   115    2
    86    79    80    1
    87    79    81    1
    88    99    98    1
    89    99   100    1
    90    98    93   am
    91     4     3    2
    92     3     2    1
    93    49    50    1
    94    49    47   am
    95   136   137    1
    96   136   139    1
    97    93    92    1
    98    93    94    2
    99   138   137    2
   100    91    92    1
   101   115   114    1
   102   140   142    1
   103   140   139    1
   104    92    95    1
   105   137   143   am
   106    46    47    1
   107    46    45    1
   108   100   101    2
   109   100   106   am
   110   139   141    1
   111    47    48    2
   112     2     1    1
   113     2     5    1
   114   143   144    1
   115   148   149    1
   116   148   147    1
   117    45    36   am
   118   106   107    1
   119   114   113    1
   120   114   117    1
   121   152   151    1
   122   113   108   am
   123    95    96    1
   124    95    97    1
   125   117   118    1
   126   144   147    1
   127   144   145    1
   128   149   150    1
   129     5     6    1
   130     5     7    1
   131   159   158    1
   132    36    37    2
   133    36    35    1
   134   151   150    2
   135   151   153    1
   136   107   108    1
   137   107   110    1
   138   145   154   am
   139   145   146    2
   140   108   109    2
   141   154   155    1
   142    35    34    1
   143    35    38    1
   144   111   110    1
   145   158   155    1
   146   158   160    1
   147   155   156    1
   148   165   162    1
   149   110   112    1
   150    38    39    1
   151   162   161    1
   152   162   163    1
   153    41    39   ar
   154    41    43   ar
   155   156   157    2
   156   171   170    1
   157    39    40   ar
   158    43    44   ar
   159   163   164    2
   160   170   167    1
   161    40    42   ar
   162    44    42   ar
   163   167   166    1
   164   167   168    1
   165   168   169    2
