@<TRIPOS>MOLECULE
tmp/4rg1B02.pdb
 130 125 0 0 0
SMALL
GASTEIGER

@<TRIPOS>ATOM
      1  N         44.6270    2.7300   22.6680 N.3    56  VAL56      -0.1245
      2  CA        44.9750    2.1910   21.3610 C.3    56  VAL56       0.1561
      3  C         43.7480    1.7750   20.5820 C.2    56  VAL56       0.2260
      4  O         43.6560    2.0830   19.3930 O.2    56  VAL56      -0.2867
      5  CB        46.0030    1.0340   21.4330 C.3    56  VAL56       0.0252
      6  CG1       46.2250    0.4270   20.0550 C.3    56  VAL56       0.0019
      7  CG2       47.3100    1.5570   21.9910 C.3    56  VAL56       0.0019
      8  N         41.9820    5.0170   19.3960 N.3    59  ALA59      -0.1231
      9  CA        42.7910    5.6150   18.3310 C.3    59  ALA59       0.1694
     10  C         42.6490    4.8590   17.0300 C.2    59  ALA59       0.2591
     11  O         42.4590    5.4700   15.9780 O.2    59  ALA59      -0.2718
     12  CB        44.2570    5.7300   18.7330 C.3    59  ALA59       0.0304
     13  N         42.6550    3.5280   17.0870 N.am   60  ARG60      -0.1980
     14  CA        42.5320    2.7280   15.8600 C.3    60  ARG60       0.1597
     15  C         41.1780    2.8750   15.1960 C.2    60  ARG60       0.2287
     16  O         41.0850    2.8990   13.9790 O.2    60  ARG60      -0.2864
     17  CB        42.7890    1.2390   16.1360 C.3    60  ARG60       0.0334
     18  CG        43.1360    0.4260   14.8860 C.3    60  ARG60       0.0492
     19  CD        43.3110   -1.0730   15.1940 C.3    60  ARG60       0.2205
     20  NE        44.1840   -1.3200   16.3560 N.pl3  60  ARG60      -0.0865
     21  CZ        45.5010   -1.5610   16.3100 C.cat  60  ARG60       0.5346
     22  NH1       46.1540   -1.6120   15.1500 N.pl3  60  ARG60       0.1354
     23  NH2       46.1770   -1.7600   17.4390 N.pl3  60  ARG60       0.1354
     24  N         41.0180    6.2540   13.5180 N.3    63  GLN63      -0.1245
     25  CA        41.7990    6.3150   12.2580 C.3    63  GLN63       0.1566
     26  C         41.0910    5.5450   11.1670 C.2    63  GLN63       0.2260
     27  O         41.0620    5.9770   10.0170 O.2    63  GLN63      -0.2867
     28  CB        43.2110    5.7770   12.4720 C.3    63  GLN63       0.0367
     29  CG        44.0970    6.6740   13.3030 C.3    63  GLN63       0.0905
     30  CD        45.5170    6.1320   13.4430 C.2    63  GLN63       0.2608
     31  OE1       45.7150    4.9430   13.6810 O.2    63  GLN63      -0.2717
     32  NE2       46.4990    6.9920   13.2800 N.am   63  GLN63      -0.0878
     33  N         38.1990    7.5750    9.7850 N.3    66  GLU66      -0.1245
     34  CA        38.6860    8.7630    9.0400 C.3    66  GLU66       0.1567
     35  C         39.1430    8.3840    7.6300 C.2    66  GLU66       0.2260
     36  O         39.0240    9.1690    6.6870 O.2    66  GLU66      -0.2867
     37  CB        39.8440    9.4340    9.7720 C.3    66  GLU66       0.0388
     38  CG        40.3020   10.7420    9.1260 C.3    66  GLU66       0.1160
     39  CD        41.2560   10.5980    7.9320 C.2    66  GLU66       0.3649
     40  OE1       42.0200    9.6010    7.8500 O.co2  66  GLU66      -0.2457
     41  OE2       41.2120   11.4970    7.0380 O.co2  66  GLU66      -0.2457
     42  N         42.2270   12.1510   -1.7340 N.3   107  GLU107     -0.1245
     43  CA        43.2510   11.3800   -1.0680 C.3   107  GLU107      0.1567
     44  C         43.6090   10.1810   -1.9500 C.2   107  GLU107      0.2260
     45  O         42.7720    9.6660   -2.7160 O.2   107  GLU107     -0.2867
     46  CB        42.7720   10.8960    0.2910 C.3   107  GLU107      0.0388
     47  CG        42.5520   12.0090    1.2950 C.3   107  GLU107      0.1160
     48  CD        43.8470   12.6990    1.6330 C.2   107  GLU107      0.3649
     49  OE1       44.6750   12.0860    2.3650 O.co2 107  GLU107     -0.2457
     50  OE2       44.0200   13.8560    1.1500 O.co2 107  GLU107     -0.2457
     51  N         50.3610    7.8450    1.7800 N.3   142  ARG142     -0.1245
     52  CA        49.0900    8.5570    1.6030 C.3   142  ARG142      0.1563
     53  C         49.3710   10.0070    1.2660 C.2   142  ARG142      0.2260
     54  O         50.1700   10.6470    1.9380 O.2   142  ARG142     -0.2867
     55  CB        48.2370    8.4950    2.8640 C.3   142  ARG142      0.0307
     56  CG        46.9050    9.2120    2.6980 C.3   142  ARG142      0.0489
     57  CD        45.9110    8.8150    3.7720 C.3   142  ARG142      0.2205
     58  NE        44.8380    9.7840    3.8940 N.pl3 142  ARG142     -0.0865
     59  CZ        43.8840    9.7500    4.8350 C.cat 142  ARG142      0.5346
     60  NH1       43.8530    8.7970    5.7480 N.pl3 142  ARG142      0.1354
     61  NH2       42.9660   10.7130    4.8690 N.pl3 142  ARG142      0.1354
     62  N         48.4860   18.4170    2.5410 N.3   157  SER157     -0.1217
     63  CA        47.2400   17.8840    3.0430 C.3   157  SER157      0.1889
     64  C         46.3620   18.9360    3.7340 C.2   157  SER157      0.2288
     65  O         45.1800   18.6750    3.9780 O.2   157  SER157     -0.2866
     66  CB        47.5270   16.7370    4.0060 C.3   157  SER157      0.2089
     67  OG        48.2910   17.1850    5.0990 O.3   157  SER157     -0.2183
     68  N         38.6430   18.2000    5.8030 N.3   168  TRP168     -0.1227
     69  CA        39.4190   17.1560    5.1490 C.3   168  TRP168      0.1737
     70  C         39.8600   16.0680    6.1330 C.2   168  TRP168      0.2596
     71  O         40.8730   15.3870    5.9370 O.2   168  TRP168     -0.2718
     72  CB        40.6190   17.7850    4.4040 C.3   168  TRP168      0.0564
     73  CG        41.0050   17.0140    3.1840 C.ar  168  TRP168      0.0003
     74  CD1       42.1780   16.3840    2.9440 C.ar  168  TRP168      0.0946
     75  CD2       40.1890   16.8070    2.0350 C.ar  168  TRP168      0.0152
     76  NE1       42.1450   15.7730    1.6940 N.ar  168  TRP168     -0.2442
     77  CE2       40.9370   16.0340    1.1170 C.ar  168  TRP168      0.0810
     78  CE3       38.9130   17.2210    1.6740 C.ar  168  TRP168      0.0012
     79  CZ2       40.4250   15.6420   -0.1080 C.ar  168  TRP168      0.0191
     80  CZ3       38.4050   16.8350    0.4280 C.ar  168  TRP168      0.0001
     81  CH2       39.1740   16.0590   -0.4380 C.ar  168  TRP168      0.0015
     82  N         39.0500   15.8550    7.1700 N.am  169  GLY169     -0.1942
     83  CA        39.3230   14.8480    8.1500 C.3   169  GLY169      0.2014
     84  C         40.2260   15.2490    9.2750 C.2   169  GLY169      0.2639
     85  O         40.6470   16.4030    9.4000 O.2   169  GLY169     -0.2714
     86  N         40.5340   14.2820   10.1210 N.am  170  TYR170     -0.1959
     87  CA        41.3940   14.5330   11.2510 C.3   170  TYR170      0.1771
     88  C         42.5780   13.5880   11.2840 C.2   170  TYR170      0.2620
     89  O         42.5170   12.4740   10.7540 O.2   170  TYR170     -0.2715
     90  CB        40.6250   14.4170   12.5800 C.3   170  TYR170      0.0574
     91  CG        39.8380   13.1390   12.7340 C.ar  170  TYR170     -0.0198
     92  CD1       40.4590   11.9520   13.0760 C.ar  170  TYR170     -0.0009
     93  CD2       38.4840   13.1160   12.5120 C.ar  170  TYR170     -0.0009
     94  CE1       39.7610   10.7720   13.1710 C.ar  170  TYR170      0.0417
     95  CE2       37.7670   11.9310   12.6010 C.ar  170  TYR170      0.0417
     96  CZ        38.4160   10.7650   12.9450 C.ar  170  TYR170      0.1957
     97  OH        37.7050    9.6020   13.0370 O.3   170  TYR170     -0.2866
     98  N         43.6230   14.0620   11.9410 N.am  171  THR171     -0.1937
     99  CA        44.7460   13.2220   12.3580 C.3   171  THR171      0.2028
    100  C         44.4720   12.7800   13.7990 C.2   171  THR171      0.2642
    101  O         43.7570   13.4870   14.5720 O.2   171  THR171     -0.2714
    102  CB        46.1010   13.9600   12.2580 C.3   171  THR171      0.1808
    103  OG1       47.1750   13.0180   12.2680 O.3   171  THR171     -0.2208
    104  CG2       46.3100   14.9290   13.4170 C.3   171  THR171      0.0379
    105  N         44.9950   11.6180   14.1580 N.am  172  VAL172     -0.1963
    106  CA        44.8730   11.0810   15.5090 C.3   172  VAL172      0.1727
    107  C         46.2570   11.0350   16.1500 C.2   172  VAL172      0.2616
    108  O         47.2260   10.5490   15.5380 O.2   172  VAL172     -0.2715
    109  CB        44.2250    9.6860   15.4920 C.3   172  VAL172      0.0290
    110  CG1       44.0770    9.1120   16.8890 C.3   172  VAL172      0.0023
    111  CG2       42.8530    9.7650   14.8380 C.3   172  VAL172      0.0023
    112  N         46.3570   11.5710   17.3550 N.am  173  ARG173     -0.1963
    113  CA        47.5980   11.5870   18.1220 C.3   173  ARG173      0.1729
    114  C         47.3950   10.9100   19.4740 C.2   173  ARG173      0.2616
    115  O         46.4400   11.2170   20.2130 O.2   173  ARG173     -0.2715
    116  CB        48.0680   13.0050   18.3040 C.3   173  ARG173      0.0348
    117  CG        49.3550   13.1440   19.0930 C.3   173  ARG173      0.0492
    118  CD        49.9290   14.5500   18.9710 C.3   173  ARG173      0.2205
    119  NE        49.1790   15.6740   19.5500 N.pl3 173  ARG173     -0.0865
    120  CZ        49.3010   16.1330   20.8010 C.cat 173  ARG173      0.5346
    121  NH1       50.0550   15.4940   21.6970 N.pl3 173  ARG173      0.1354
    122  NH2       48.6420   17.2150   21.1800 N.pl3 173  ARG173      0.1354
    123  N         48.2950    9.9960   19.8120 N.am  174  LEU174     -0.1977
    124  CA        48.3280    9.4200   21.1490 C.3   174  LEU174      0.1596
    125  C         49.2210   10.2490   22.0560 C.2   174  LEU174      0.2287
    126  O         50.3480   10.6410   21.6780 O.2   174  LEU174     -0.2864
    127  CB        48.8360    7.9840   21.1090 C.3   174  LEU174      0.0297
    128  CG        47.9090    6.9480   20.4880 C.3   174  LEU174      0.0022
    129  CD1       48.7110    5.7560   20.0070 C.3   174  LEU174      0.0001
    130  CD2       46.8340    6.5050   21.4740 C.3   174  LEU174      0.0001
@<TRIPOS>BOND
     1    45    44    2
     2    44    43    1
     3    42    43    1
     4    43    46    1
     5    81    79   ar
     6    81    80   ar
     7    79    77   ar
     8    46    47    1
     9    80    78   ar
    10    77    76   ar
    11    77    75   ar
    12    50    48   ar
    13    53    52    1
    14    53    54    2
    15    47    48    1
    16    52    51    1
    17    52    55    1
    18    48    49   ar
    19    78    75   ar
    20    76    74   ar
    21    75    73   ar
    22    62    63    1
    23    56    55    1
    24    56    57    1
    25    74    73   ar
    26    63    64    1
    27    63    66    1
    28    73    72    1
    29    64    65    2
    30    57    58    1
    31    58    59    2
    32    66    67    1
    33    72    69    1
    34    59    61    1
    35    59    60    1
    36    69    68    1
    37    69    70    1
    38    71    70    2
    39    70    82   am
    40    36    35    2
    41    41    39   ar
    42    82    83    1
    43    35    34    1
    44    40    39   ar
    45    39    38    1
    46    83    84    1
    47    34    37    1
    48    34    33    1
    49    38    37    1
    50    84    85    2
    51    84    86   am
    52    27    26    2
    53    86    87    1
    54    89    88    2
    55    26    25    1
    56    87    88    1
    57    87    90    1
    58    88    98   am
    59    98    99    1
    60   102   103    1
    61   102    99    1
    62   102   104    1
    63    25    28    1
    64    25    24    1
    65    99   100    1
    66    28    29    1
    67    93    95   ar
    68    93    91   ar
    69    90    91    1
    70    95    96   ar
    71    91    92   ar
    72    96    97    1
    73    96    94   ar
    74    92    94   ar
    75    32    30   am
    76    29    30    1
    77    30    31    2
    78   100   105   am
    79   100   101    2
    80    16    15    2
    81   105   106    1
    82   111   109    1
    83    18    19    1
    84    18    17    1
    85    22    21    1
    86    19    20    1
    87    15    14    1
    88   109   106    1
    89   109   110    1
    90   106   107    1
    91   108   107    2
    92    14    17    1
    93    14    13    1
    94    11    10    2
    95   107   112   am
    96    21    20    2
    97    21    23    1
    98    10    13   am
    99    10     9    1
   100   112   113    1
   101   113   116    1
   102   113   114    1
   103   116   117    1
   104     9    12    1
   105     9     8    1
   106   118   117    1
   107   118   119    1
   108     4     3    2
   109   114   123   am
   110   114   115    2
   111   119   120    2
   112   123   124    1
   113   129   128    1
   114     6     5    1
   115   128   127    1
   116   128   130    1
   117     3     2    1
   118   120   122    1
   119   120   121    1
   120   127   124    1
   121   124   125    1
   122     2     5    1
   123     2     1    1
   124     5     7    1
   125   126   125    2
