@<TRIPOS>MOLECULE
tmp/4rg1B01.pdb
 141 136 0 0 0
SMALL
GASTEIGER

@<TRIPOS>ATOM
      1  N         42.9710   25.8660   12.9640 N.3     6  THR6       -0.1218
      2  CA        42.6760   24.4520   13.2680 C.3     6  THR6        0.1862
      3  C         41.9440   24.3120   14.5900 C.2     6  THR6        0.2287
      4  O         42.0320   25.1920   15.4690 O.2     6  THR6       -0.2866
      5  CB        43.9330   23.5790   13.3070 C.3     6  THR6        0.1770
      6  OG1       44.8440   24.0060   14.3480 O.3     6  THR6       -0.2211
      7  CG2       44.6320   23.6210   11.9600 C.3     6  THR6        0.0375
      8  N         40.1240   18.9100   13.3140 N.3    42  ASP42      -0.1225
      9  CA        41.3010   18.5770   12.4900 C.3    42  ASP42       0.1805
     10  C         42.2300   17.5850   13.1490 C.2    42  ASP42       0.2597
     11  O         43.0760   17.0050   12.4960 O.2    42  ASP42      -0.2718
     12  CB        42.0970   19.8670   12.2330 C.3    42  ASP42       0.1424
     13  CG        41.2770   20.9060   11.4960 C.2    42  ASP42       0.3668
     14  OD1       40.8900   20.6280   10.3360 O.co2  42  ASP42      -0.2456
     15  OD2       40.9600   21.9740   12.0860 O.co2  42  ASP42      -0.2456
     16  N         42.1140   17.4420   14.4630 N.am   43  GLU43      -0.1979
     17  CA        42.9870   16.5340   15.2320 C.3    43  GLU43       0.1602
     18  C         42.2650   16.0230   16.4520 C.2    43  GLU43       0.2287
     19  O         41.6820   16.8270   17.1910 O.2    43  GLU43      -0.2864
     20  CB        44.2660   17.2730   15.6880 C.3    43  GLU43       0.0415
     21  CG        45.2550   16.4370   16.5040 C.3    43  GLU43       0.1163
     22  CD        46.3610   17.2560   17.1730 C.2    43  GLU43       0.3649
     23  OE1       46.1680   18.4880   17.4490 O.co2  43  GLU43      -0.2457
     24  OE2       47.4350   16.6490   17.4260 O.co2  43  GLU43      -0.2457
     25  N         38.1990    7.5750    9.7850 N.3    66  GLU66      -0.1245
     26  CA        38.6860    8.7630    9.0400 C.3    66  GLU66       0.1567
     27  C         39.1430    8.3840    7.6300 C.2    66  GLU66       0.2260
     28  O         39.0240    9.1690    6.6870 O.2    66  GLU66      -0.2867
     29  CB        39.8440    9.4340    9.7720 C.3    66  GLU66       0.0388
     30  CG        40.3020   10.7420    9.1260 C.3    66  GLU66       0.1160
     31  CD        41.2560   10.5980    7.9320 C.2    66  GLU66       0.3649
     32  OE1       42.0200    9.6010    7.8500 O.co2  66  GLU66      -0.2457
     33  OE2       41.2120   11.4970    7.0380 O.co2  66  GLU66      -0.2457
     34  N         42.2270   12.1510   -1.7340 N.3   107  GLU107     -0.1245
     35  CA        43.2510   11.3800   -1.0680 C.3   107  GLU107      0.1567
     36  C         43.6090   10.1810   -1.9500 C.2   107  GLU107      0.2260
     37  O         42.7720    9.6660   -2.7160 O.2   107  GLU107     -0.2867
     38  CB        42.7720   10.8960    0.2910 C.3   107  GLU107      0.0388
     39  CG        42.5520   12.0090    1.2950 C.3   107  GLU107      0.1160
     40  CD        43.8470   12.6990    1.6330 C.2   107  GLU107      0.3649
     41  OE1       44.6750   12.0860    2.3650 O.co2 107  GLU107     -0.2457
     42  OE2       44.0200   13.8560    1.1500 O.co2 107  GLU107     -0.2457
     43  N         50.3610    7.8450    1.7800 N.3   142  ARG142     -0.1245
     44  CA        49.0900    8.5570    1.6030 C.3   142  ARG142      0.1563
     45  C         49.3710   10.0070    1.2660 C.2   142  ARG142      0.2260
     46  O         50.1700   10.6470    1.9380 O.2   142  ARG142     -0.2867
     47  CB        48.2370    8.4950    2.8640 C.3   142  ARG142      0.0307
     48  CG        46.9050    9.2120    2.6980 C.3   142  ARG142      0.0489
     49  CD        45.9110    8.8150    3.7720 C.3   142  ARG142      0.2205
     50  NE        44.8380    9.7840    3.8940 N.pl3 142  ARG142     -0.0865
     51  CZ        43.8840    9.7500    4.8350 C.cat 142  ARG142      0.5346
     52  NH1       43.8530    8.7970    5.7480 N.pl3 142  ARG142      0.1354
     53  NH2       42.9660   10.7130    4.8690 N.pl3 142  ARG142      0.1354
     54  N         47.6200   13.8540   -0.6160 N.3   144  THR144     -0.1218
     55  CA        46.5220   14.6540   -1.0870 C.3   144  THR144      0.1862
     56  C         46.8540   15.1250   -2.5010 C.2   144  THR144      0.2287
     57  O         47.9180   15.7040   -2.7340 O.2   144  THR144     -0.2866
     58  CB        46.2900   15.8700   -0.1400 C.3   144  THR144      0.1770
     59  OG1       46.0960   15.3970    1.2090 O.3   144  THR144     -0.2211
     60  CG2       45.0860   16.6580   -0.5600 C.3   144  THR144      0.0375
     61  N         48.4860   18.4170    2.5410 N.3   157  SER157     -0.1202
     62  CA        47.2400   17.8840    3.0430 C.3   157  SER157      0.2020
     63  C         46.3620   18.9360    3.7340 C.2   157  SER157      0.2618
     64  O         45.1800   18.6750    3.9780 O.2   157  SER157     -0.2717
     65  CB        47.5270   16.7370    4.0060 C.3   157  SER157      0.2103
     66  OG        48.2910   17.1850    5.0990 O.3   157  SER157     -0.2182
     67  N         46.9390   20.1040    4.0460 N.am  158  GLN158     -0.1979
     68  CA        46.1970   21.2140    4.6330 C.3   158  GLN158      0.1601
     69  C         45.6200   22.1510    3.5800 C.2   158  GLN158      0.2287
     70  O         44.8400   23.0510    3.9270 O.2   158  GLN158     -0.2864
     71  CB        47.0780   22.0080    5.6090 C.3   158  GLN158      0.0394
     72  CG        47.7520   21.1460    6.6530 C.3   158  GLN158      0.0908
     73  CD        46.7520   20.2230    7.3410 C.2   158  GLN158      0.2608
     74  OE1       45.7840   20.6870    7.9390 O.2   158  GLN158     -0.2717
     75  NE2       46.9450   18.9220    7.1980 N.am  158  GLN158     -0.0878
     76  N         41.5660   22.5130    3.2740 N.3   161  ARG161     -0.1245
     77  CA        41.0650   23.4120    4.3050 C.3   161  ARG161      0.1563
     78  C         41.4770   24.8580    4.1140 C.2   161  ARG161      0.2260
     79  O         40.5990   25.7530    4.1080 O.2   161  ARG161     -0.2867
     80  CB        41.5420   22.9770    5.6790 C.3   161  ARG161      0.0307
     81  CG        41.0150   23.8680    6.7880 C.3   161  ARG161      0.0489
     82  CD        41.4770   23.4240    8.1620 C.3   161  ARG161      0.2205
     83  NE        42.9100   23.1050    8.2490 N.pl3 161  ARG161     -0.0865
     84  CZ        43.8970   23.9610    8.4910 C.cat 161  ARG161      0.5346
     85  NH1       43.6720   25.2480    8.6520 N.pl3 161  ARG161      0.1354
     86  NH2       45.1350   23.5240    8.5570 N.pl3 161  ARG161      0.1354
     87  N         38.6430   18.2000    5.8030 N.3   168  TRP168     -0.1227
     88  CA        39.4190   17.1560    5.1490 C.3   168  TRP168      0.1737
     89  C         39.8600   16.0680    6.1330 C.2   168  TRP168      0.2596
     90  O         40.8730   15.3870    5.9370 O.2   168  TRP168     -0.2718
     91  CB        40.6190   17.7850    4.4040 C.3   168  TRP168      0.0564
     92  CG        41.0050   17.0140    3.1840 C.ar  168  TRP168      0.0003
     93  CD1       42.1780   16.3840    2.9440 C.ar  168  TRP168      0.0946
     94  CD2       40.1890   16.8070    2.0350 C.ar  168  TRP168      0.0152
     95  NE1       42.1450   15.7730    1.6940 N.ar  168  TRP168     -0.2442
     96  CE2       40.9370   16.0340    1.1170 C.ar  168  TRP168      0.0810
     97  CE3       38.9130   17.2210    1.6740 C.ar  168  TRP168      0.0012
     98  CZ2       40.4250   15.6420   -0.1080 C.ar  168  TRP168      0.0191
     99  CZ3       38.4050   16.8350    0.4280 C.ar  168  TRP168      0.0001
    100  CH2       39.1740   16.0590   -0.4380 C.ar  168  TRP168      0.0015
    101  N         39.0500   15.8550    7.1700 N.am  169  GLY169     -0.1942
    102  CA        39.3230   14.8480    8.1500 C.3   169  GLY169      0.2014
    103  C         40.2260   15.2490    9.2750 C.2   169  GLY169      0.2639
    104  O         40.6470   16.4030    9.4000 O.2   169  GLY169     -0.2714
    105  N         40.5340   14.2820   10.1210 N.am  170  TYR170     -0.1959
    106  CA        41.3940   14.5330   11.2510 C.3   170  TYR170      0.1771
    107  C         42.5780   13.5880   11.2840 C.2   170  TYR170      0.2620
    108  O         42.5170   12.4740   10.7540 O.2   170  TYR170     -0.2715
    109  CB        40.6250   14.4170   12.5800 C.3   170  TYR170      0.0574
    110  CG        39.8380   13.1390   12.7340 C.ar  170  TYR170     -0.0198
    111  CD1       40.4590   11.9520   13.0760 C.ar  170  TYR170     -0.0009
    112  CD2       38.4840   13.1160   12.5120 C.ar  170  TYR170     -0.0009
    113  CE1       39.7610   10.7720   13.1710 C.ar  170  TYR170      0.0417
    114  CE2       37.7670   11.9310   12.6010 C.ar  170  TYR170      0.0417
    115  CZ        38.4160   10.7650   12.9450 C.ar  170  TYR170      0.1957
    116  OH        37.7050    9.6020   13.0370 O.3   170  TYR170     -0.2866
    117  N         43.6230   14.0620   11.9410 N.am  171  THR171     -0.1951
    118  CA        44.7460   13.2220   12.3580 C.3   171  THR171      0.1897
    119  C         44.4720   12.7800   13.7990 C.2   171  THR171      0.2313
    120  O         43.7570   13.4870   14.5720 O.2   171  THR171     -0.2863
    121  CB        46.1010   13.9600   12.2580 C.3   171  THR171      0.1794
    122  OG1       47.1750   13.0180   12.2680 O.3   171  THR171     -0.2208
    123  CG2       46.3100   14.9290   13.4170 C.3   171  THR171      0.0378
    124  N         51.2640   19.2240   17.2990 N.3   186  PRO186     -0.2102
    125  CA        51.9800   19.1040   16.0230 C.3   186  PRO186      0.1504
    126  C         52.2770   20.4430   15.3460 C.2   186  PRO186      0.2575
    127  O         52.6340   20.4570   14.1660 O.2   186  PRO186     -0.2718
    128  CB        51.0080   18.2960   15.1730 C.3   186  PRO186      0.0282
    129  CG        49.6720   18.7570   15.6580 C.3   186  PRO186      0.0208
    130  CD        49.8240   18.9810   17.1430 C.3   186  PRO186      0.0893
    131  N         52.1520   21.5470   16.0790 N.am  187  PHE187     -0.1977
    132  CA        52.3170   22.8810   15.5440 C.3   187  PHE187      0.1639
    133  C         53.4800   23.5590   16.2710 C.2   187  PHE187      0.2290
    134  O         53.6460   23.3840   17.4820 O.2   187  PHE187     -0.2864
    135  CB        51.0270   23.6960   15.7340 C.3   187  PHE187      0.0560
    136  CG        49.7900   23.0260   15.2050 C.ar  187  PHE187     -0.0200
    137  CD1       49.6330   22.7830   13.8440 C.ar  187  PHE187     -0.0042
    138  CD2       48.7660   22.6480   16.0690 C.ar  187  PHE187     -0.0042
    139  CE1       48.4890   22.1750   13.3580 C.ar  187  PHE187     -0.0003
    140  CE2       47.6190   22.0540   15.5880 C.ar  187  PHE187     -0.0003
    141  CZ        47.4760   21.8020   14.2390 C.ar  187  PHE187     -0.0000
@<TRIPOS>BOND
     1    57    56    2
     2    37    36    2
     3    56    55    1
     4    36    35    1
     5    34    35    1
     6    55    54    1
     7    55    58    1
     8    35    38    1
     9    60    58    1
    10   100    98   ar
    11   100    99   ar
    12    58    59    1
    13    98    96   ar
    14    38    39    1
    15    99    97   ar
    16    96    95   ar
    17    96    94   ar
    18    42    40   ar
    19    45    44    1
    20    45    46    2
    21    39    40    1
    22    44    43    1
    23    44    47    1
    24    40    41   ar
    25    97    94   ar
    26    95    93   ar
    27    94    92   ar
    28    61    62    1
    29    48    47    1
    30    48    49    1
    31    93    92   ar
    32    62    63    1
    33    62    65    1
    34    92    91    1
    35    76    77    1
    36    69    70    2
    37    69    68    1
    38    63    64    2
    39    63    67   am
    40    49    50    1
    41    50    51    2
    42    65    66    1
    43    67    68    1
    44    79    78    2
    45    78    77    1
    46    77    80    1
    47    91    88    1
    48    68    71    1
    49    51    53    1
    50    51    52    1
    51    88    87    1
    52    88    89    1
    53    71    72    1
    54    80    81    1
    55    90    89    2
    56    89   101   am
    57    72    73    1
    58    28    27    2
    59    81    82    1
    60    33    31   ar
    61   101   102    1
    62    75    73   am
    63    73    74    2
    64    27    26    1
    65    32    31   ar
    66    31    30    1
    67   102   103    1
    68    82    83    1
    69    83    84    2
    70    84    86    1
    71    84    85    1
    72    26    29    1
    73    26    25    1
    74    30    29    1
    75   103   104    2
    76   103   105   am
    77   105   106    1
    78    14    13   ar
    79   108   107    2
    80   106   107    1
    81   106   109    1
    82   107   117   am
    83    13    15   ar
    84    13    12    1
    85   117   118    1
    86     7     5    1
    87    12     9    1
    88   121   122    1
    89   121   118    1
    90   121   123    1
    91   118   119    1
    92     9    10    1
    93     9     8    1
    94    11    10    2
    95   112   114   ar
    96   112   110   ar
    97   109   110    1
    98   114   115   ar
    99   110   111   ar
   100   115   116    1
   101   115   113   ar
   102     1     2    1
   103   111   113   ar
   104    10    16   am
   105     2     5    1
   106     2     3    1
   107     5     6    1
   108   139   137   ar
   109   139   141   ar
   110   119   120    2
   111   137   136   ar
   112   127   126    2
   113   141   140   ar
   114    16    17    1
   115     3     4    2
   116   128   129    1
   117   128   125    1
   118   136   135    1
   119   136   138   ar
   120    17    20    1
   121    17    18    1
   122   126   125    1
   123   126   131   am
   124   132   135    1
   125   132   131    1
   126   132   133    1
   127   140   138   ar
   128   129   130    1
   129    20    21    1
   130   125   124    1
   131   133   134    2
   132    18    19    2
   133    21    22    1
   134   130   124    1
   135    22    24   ar
   136    22    23   ar
