@<TRIPOS>MOLECULE
tmp/4rg3A03.pdb
 88 83 0 0 0
SMALL
GASTEIGER

@<TRIPOS>ATOM
      1  N          8.5680   11.3020    1.8320 N.3    34  ASP34      -0.1225
      2  CA         9.4350   10.1680    2.1820 C.3    34  ASP34       0.1805
      3  C         10.2090    9.7930    0.9710 C.2    34  ASP34       0.2597
      4  O          9.6730    9.9160   -0.1590 O.2    34  ASP34      -0.2718
      5  CB         8.6340    8.9610    2.7110 C.3    34  ASP34       0.1424
      6  CG         9.4750    8.0610    3.6280 C.2    34  ASP34       0.3668
      7  OD1       10.6230    7.7610    3.2410 O.co2  34  ASP34      -0.2456
      8  OD2        9.0390    7.7320    4.7720 O.co2  34  ASP34      -0.2456
      9  N         11.4640    9.3850    1.2040 N.am   35  LYS35      -0.1979
     10  CA        12.3470    8.8340    0.2030 C.3    35  LYS35       0.1596
     11  C         11.7370    7.5240   -0.2820 C.2    35  LYS35       0.2287
     12  O         11.9810    7.0990   -1.3930 O.2    35  LYS35      -0.2864
     13  CB        13.7460    8.5430    0.7760 C.3    35  LYS35       0.0298
     14  CG        14.5570    7.7110   -0.2120 C.3    35  LYS35       0.0038
     15  CD        15.0140    8.6970   -1.2440 C.3    35  LYS35       0.0206
     16  CE        16.0770    8.0770   -2.1620 C.3    35  LYS35       0.1093
     17  NZ        15.9980    8.7550   -3.4560 N.3    35  LYS35      -0.1314
     18  N         11.1420   -0.3980    4.7590 N.3    45  TRP45      -0.1241
     19  CA        12.5870   -0.6630    4.4850 C.3    45  TRP45       0.1605
     20  C         13.0730   -2.0390    4.8890 C.2    45  TRP45       0.2264
     21  O         13.9140   -2.6420    4.2290 O.2    45  TRP45      -0.2867
     22  CB        13.4760    0.3880    5.1410 C.3    45  TRP45       0.0550
     23  CG        13.2520    1.7550    4.5450 C.ar   45  TRP45       0.0003
     24  CD1       12.6460    2.8290    5.1540 C.ar   45  TRP45       0.0946
     25  CD2       13.5700    2.1830    3.2000 C.ar   45  TRP45       0.0152
     26  NE1       12.5910    3.9110    4.2690 N.ar   45  TRP45      -0.2442
     27  CE2       13.1410    3.5290    3.0660 C.ar   45  TRP45       0.0810
     28  CE3       14.1910    1.5690    2.1080 C.ar   45  TRP45       0.0012
     29  CZ2       13.3470    4.2600    1.9140 C.ar   45  TRP45       0.0191
     30  CZ3       14.3910    2.3210    0.9300 C.ar   45  TRP45       0.0001
     31  CH2       13.9610    3.6320    0.8430 C.ar   45  TRP45       0.0015
     32  N         13.0500   12.7100   -1.3200 N.3   106  GLU106     -0.1245
     33  CA        13.8780   12.9970   -0.1390 C.3   106  GLU106      0.1567
     34  C         13.9260   14.5090    0.1350 C.2   106  GLU106      0.2260
     35  O         14.2740   15.3000   -0.7820 O.2   106  GLU106     -0.2867
     36  CB        15.2830   12.5430   -0.4160 C.3   106  GLU106      0.0388
     37  CG        16.2940   12.9100    0.6440 C.3   106  GLU106      0.1160
     38  CD        17.6720   12.3750    0.3230 C.2   106  GLU106      0.3649
     39  OE1       18.5320   12.3780    1.2120 O.co2 106  GLU106     -0.2457
     40  OE2       17.9020   11.9620   -0.8230 O.co2 106  GLU106     -0.2457
     41  N         16.7430    4.3530   11.5440 N.3   142  SER142     -0.1202
     42  CA        16.4810    4.5650   10.1300 C.3   142  SER142      0.2020
     43  C         17.7470    4.8210    9.3030 C.2   142  SER142      0.2619
     44  O         17.8590    4.3100    8.1680 O.2   142  SER142     -0.2717
     45  CB        15.4510    5.7000    9.9530 C.3   142  SER142      0.2103
     46  OG        15.2600    5.9310    8.5800 O.3   142  SER142     -0.2182
     47  N         18.6910    5.5970    9.8410 N.am  143  ALA143     -0.1965
     48  CA        19.9350    5.9110    9.1070 C.3   143  ALA143      0.1728
     49  C         20.8430    4.6740    9.2260 C.2   143  ALA143      0.2616
     50  O         21.2940    4.3590   10.3340 O.2   143  ALA143     -0.2715
     51  CB        20.6050    7.1270    9.7170 C.3   143  ALA143      0.0334
     52  N         21.1030    3.9840    8.1060 N.am  144  ILE144     -0.1977
     53  CA        21.7580    2.6940    8.1650 C.3   144  ILE144      0.1596
     54  C         23.2300    2.8490    8.5190 C.2   144  ILE144      0.2287
     55  O         23.9030    3.8130    8.0840 O.2   144  ILE144     -0.2864
     56  CB        21.6410    1.7930    6.8890 C.3   144  ILE144      0.0276
     57  CG1       22.3690    2.4000    5.7050 C.3   144  ILE144      0.0022
     58  CG2       20.1750    1.4720    6.5410 C.3   144  ILE144      0.0022
     59  CD1       22.3870    1.4810    4.4990 C.3   144  ILE144      0.0001
     60  N         18.1180   -3.3480    6.5300 N.3   163  ALA163     -0.1231
     61  CA        17.2060   -2.2180    6.4530 C.3   163  ALA163      0.1694
     62  C         17.2190   -1.5750    5.0940 C.2   163  ALA163      0.2591
     63  O         16.7960   -0.4020    4.9650 O.2   163  ALA163     -0.2718
     64  CB        17.5540   -1.1610    7.5340 C.3   163  ALA163      0.0304
     65  N         17.6700   -2.3090    4.0920 N.am  164  ALA164     -0.1980
     66  CA        17.4860   -1.9160    2.6930 C.3   164  ALA164      0.1597
     67  C         17.2470   -3.1610    1.8560 C.2   164  ALA164      0.2287
     68  O         17.8530   -3.3380    0.8110 O.2   164  ALA164     -0.2864
     69  CB        18.7310   -1.1580    2.1990 C.3   164  ALA164      0.0319
     70  N         19.6930   10.5560   11.0460 N.3   383  ASN383     -0.1240
     71  CA        18.9650   11.1890    9.9260 C.3   383  ASN383      0.1653
     72  C         18.9600   12.7150    9.9680 C.2   383  ASN383      0.2266
     73  O         18.8170   13.3480    8.9410 O.2   383  ASN383     -0.2867
     74  CB        17.5430   10.6400    9.7460 C.3   383  ASN383      0.1155
     75  CG        17.5100    9.4140    8.8910 C.2   383  ASN383      0.2627
     76  OD1       18.4690    9.1250    8.1710 O.2   383  ASN383     -0.2716
     77  ND2       16.4180    8.6420    8.9830 N.am  383  ASN383     -0.0877
     78  N         22.5150   14.0230    8.6230 N.3   386  ARG386     -0.1245
     79  CA        22.7200   13.7870    7.1830 C.3   386  ARG386      0.1563
     80  C         21.9880   14.7730    6.2590 C.2   386  ARG386      0.2260
     81  O         22.2530   14.7970    5.0800 O.2   386  ARG386     -0.2867
     82  CB        22.3190   12.3360    6.8640 C.3   386  ARG386      0.0307
     83  CG        23.2200   11.3170    7.5390 C.3   386  ARG386      0.0489
     84  CD        22.7110    9.8710    7.4600 C.3   386  ARG386      0.2205
     85  NE        23.6140    8.9670    8.1950 N.pl3 386  ARG386     -0.0865
     86  CZ        23.6700    7.6400    8.0640 C.cat 386  ARG386      0.5346
     87  NH1       22.8570    7.0020    7.2240 N.pl3 386  ARG386      0.1354
     88  NH2       24.5480    6.9380    8.7940 N.pl3 386  ARG386      0.1354
@<TRIPOS>BOND
     1    17    16    1
     2    16    15    1
     3    12    11    2
     4    32    33    1
     5    15    14    1
     6    40    38   ar
     7    35    34    2
     8    36    33    1
     9    36    37    1
    10    11    10    1
    11    14    13    1
    12     4     3    2
    13    33    34    1
    14    10    13    1
    15    10     9    1
    16    38    37    1
    17    38    39   ar
    18    68    67    2
    19    31    30   ar
    20    31    29   ar
    21    30    28   ar
    22     3     9   am
    23     3     2    1
    24     1     2    1
    25    67    66    1
    26    29    27   ar
    27    28    25   ar
    28     2     5    1
    29    69    66    1
    30    66    65    1
    31     5     6    1
    32    27    25   ar
    33    27    26   ar
    34    25    23   ar
    35     7     6   ar
    36     6     8   ar
    37    65    62   am
    38    21    20    2
    39    26    24   ar
    40    19    18    1
    41    19    20    1
    42    19    22    1
    43    59    57    1
    44    23    22    1
    45    23    24   ar
    46    63    62    2
    47    81    80    2
    48    62    61    1
    49    57    56    1
    50    80    79    1
    51    61    60    1
    52    61    64    1
    53    58    56    1
    54    82    79    1
    55    82    83    1
    56    56    53    1
    57    79    78    1
    58    87    86    1
    59    84    83    1
    60    84    85    1
    61    86    85    2
    62    86    88    1
    63    55    54    2
    64    52    53    1
    65    52    49   am
    66    53    54    1
    67    44    43    2
    68    76    75    2
    69    46    45    1
    70    75    77   am
    71    75    74    1
    72    73    72    2
    73    48    49    1
    74    48    51    1
    75    48    47    1
    76    49    50    2
    77    43    47   am
    78    43    42    1
    79    74    71    1
    80    71    72    1
    81    71    70    1
    82    45    42    1
    83    42    41    1
