@<TRIPOS>MOLECULE
tmp/4rg3A02.pdb
 115 113 0 0 0
SMALL
GASTEIGER

@<TRIPOS>ATOM
      1  N          6.9720   -5.9900   20.1310 N.3    55  THR55      -0.1218
      2  CA         5.7740   -5.5260   20.8310 C.3    55  THR55       0.1862
      3  C          4.6160   -6.3990   20.4040 C.2    55  THR55       0.2287
      4  O          4.4790   -6.6740   19.1730 O.2    55  THR55      -0.2866
      5  CB         5.4630   -4.0740   20.4320 C.3    55  THR55       0.1770
      6  OG1        6.5510   -3.2400   20.8640 O.3    55  THR55      -0.2211
      7  CG2        4.1880   -3.6390   21.0510 C.3    55  THR55       0.0375
      8  N         14.1720    7.0860   14.6610 N.3   140  LEU140     -0.1231
      9  CA        15.4140    6.8690   15.4250 C.3   140  LEU140      0.1693
     10  C         16.2210    5.6170   15.0450 C.2   140  LEU140      0.2591
     11  O         17.3160    5.4600   15.5710 O.2   140  LEU140     -0.2718
     12  CB        15.1870    6.9640   16.9230 C.3   140  LEU140      0.0284
     13  CG        14.0490    6.2390   17.6030 C.3   140  LEU140      0.0019
     14  CD1       14.2940    4.7490   17.5710 C.3   140  LEU140      0.0001
     15  CD2       13.9160    6.6800   19.0440 C.3   140  LEU140      0.0001
     16  N         15.6800    4.7080   14.2150 N.am  141  LEU141     -0.1980
     17  CA        16.4020    3.4800   13.7320 C.3   141  LEU141      0.1596
     18  C         16.1740    3.3900   12.2280 C.2   141  LEU141      0.2287
     19  O         15.4740    2.5000   11.7290 O.2   141  LEU141     -0.2864
     20  CB        15.9150    2.1970   14.4260 C.3   141  LEU141      0.0297
     21  CG        16.2750    2.1750   15.9500 C.3   141  LEU141      0.0022
     22  CD1       15.5070    1.0990   16.7440 C.3   141  LEU141      0.0001
     23  CD2       17.7540    1.9860   16.1880 C.3   141  LEU141      0.0001
     24  N          4.4260   -2.2110   27.2120 N.3   243  PHE243     -0.1241
     25  CA         4.4830   -3.4270   26.4960 C.3   243  PHE243      0.1605
     26  C          3.3220   -4.3270   26.8600 C.2   243  PHE243      0.2264
     27  O          3.2180   -5.4260   26.3220 O.2   243  PHE243     -0.2867
     28  CB         5.8200   -4.1390   26.6530 C.3   243  PHE243      0.0534
     29  CG         6.8970   -3.5810   25.7520 C.ar  243  PHE243     -0.0203
     30  CD1        6.9140   -3.8650   24.4080 C.ar  243  PHE243     -0.0042
     31  CD2        7.8520   -2.7260   26.2490 C.ar  243  PHE243     -0.0042
     32  CE1        7.9090   -3.3180   23.5810 C.ar  243  PHE243     -0.0003
     33  CE2        8.8280   -2.1720   25.4420 C.ar  243  PHE243     -0.0003
     34  CZ         8.8340   -2.4390   24.1090 C.ar  243  PHE243     -0.0000
     35  N         11.3500   -7.8150   26.7700 N.3   274  PHE274     -0.1241
     36  CA        11.0350   -6.8400   27.7640 C.3   274  PHE274      0.1605
     37  C         10.3730   -7.4100   29.0540 C.2   274  PHE274      0.2264
     38  O         10.6420   -6.9480   30.1700 O.2   274  PHE274     -0.2867
     39  CB        10.2220   -5.7380   27.1160 C.3   274  PHE274      0.0534
     40  CG        11.0850   -4.7620   26.3250 C.ar  274  PHE274     -0.0203
     41  CD1       11.3540   -5.0050   25.0120 C.ar  274  PHE274     -0.0042
     42  CD2       11.6120   -3.6130   26.9360 C.ar  274  PHE274     -0.0042
     43  CE1       12.1530   -4.1240   24.2660 C.ar  274  PHE274     -0.0003
     44  CE2       12.4340   -2.7370   26.2190 C.ar  274  PHE274     -0.0003
     45  CZ        12.7140   -3.0140   24.8760 C.ar  274  PHE274     -0.0000
     46  N         19.4530   -3.5710   24.7210 N.3   324  ARG324     -0.1245
     47  CA        18.0230   -3.8060   24.4210 C.3   324  ARG324      0.1563
     48  C         17.7460   -5.3080   24.5710 C.2   324  ARG324      0.2260
     49  O         18.4120   -6.1210   23.9120 O.2   324  ARG324     -0.2867
     50  CB        17.7100   -3.3450   23.0170 C.3   324  ARG324      0.0307
     51  CG        16.2340   -3.1290   22.7010 C.3   324  ARG324      0.0489
     52  CD        15.7080   -4.3010   21.9160 C.3   324  ARG324      0.2205
     53  NE        14.3870   -4.0720   21.2980 N.pl3 324  ARG324     -0.0865
     54  CZ        13.6450   -5.0310   20.7350 C.cat 324  ARG324      0.5346
     55  NH1       14.0670   -6.2980   20.6940 N.pl3 324  ARG324      0.1354
     56  NH2       12.4810   -4.7230   20.1910 N.pl3 324  ARG324      0.1354
     57  N         11.9290    5.8930   25.9740 N.3   429  PHE429     -0.1227
     58  CA        12.3420    4.5830   25.5090 C.3   429  PHE429      0.1736
     59  C         11.2460    3.5780   25.8730 C.2   429  PHE429      0.2596
     60  O         11.1830    3.1140   26.9790 O.2   429  PHE429     -0.2718
     61  CB        13.6720    4.1880   26.1990 C.3   429  PHE429      0.0547
     62  CG        14.3050    2.9510   25.6230 C.ar  429  PHE429     -0.0202
     63  CD1       15.2100    3.0360   24.5320 C.ar  429  PHE429     -0.0042
     64  CD2       13.9770    1.6970   26.1150 C.ar  429  PHE429     -0.0042
     65  CE1       15.7630    1.8880   23.9820 C.ar  429  PHE429     -0.0003
     66  CE2       14.5310    0.5370   25.5550 C.ar  429  PHE429     -0.0003
     67  CZ        15.4180    0.6310   24.4830 C.ar  429  PHE429     -0.0000
     68  N         10.3880    3.2180   24.9490 N.am  430  THR430     -0.1939
     69  CA         9.1980    2.4910   25.3070 C.3   430  THR430      0.2028
     70  C          8.7660    1.7580   24.0560 C.2   430  THR430      0.2642
     71  O          9.3360    1.9460   22.9550 O.2   430  THR430     -0.2714
     72  CB         8.0030    3.4440   25.7270 C.3   430  THR430      0.1808
     73  OG1        7.5390    4.1530   24.5750 O.3   430  THR430     -0.2208
     74  CG2        8.3740    4.4670   26.7590 C.3   430  THR430      0.0379
     75  N          7.7010    0.9940   24.1870 N.am  431  ASN431     -0.1957
     76  CA         6.9270    0.5690   22.9680 C.3   431  ASN431      0.1819
     77  C          6.6510    1.8930   22.2280 C.2   431  ASN431      0.2621
     78  O          6.0560    2.7890   22.8040 O.2   431  ASN431     -0.2715
     79  CB         5.6440   -0.1410   23.4100 C.3   431  ASN431      0.1195
     80  CG         4.6440   -0.3860   22.2570 C.2   431  ASN431      0.2630
     81  OD1        5.0100   -0.4960   21.1000 O.2   431  ASN431     -0.2716
     82  ND2        3.3950   -0.4400   22.5970 N.am  431  ASN431     -0.0877
     83  N          7.0470    2.0410   20.9680 N.am  432  LEU432     -0.1977
     84  CA         7.1270    3.4270   20.4020 C.3   432  LEU432      0.1596
     85  C          5.8280    4.0400   19.9020 C.2   432  LEU432      0.2287
     86  O          5.5990    5.1890   20.1500 O.2   432  LEU432     -0.2864
     87  CB         8.2440    3.5710   19.3730 C.3   432  LEU432      0.0297
     88  CG         9.6180    3.5020   20.0630 C.3   432  LEU432      0.0022
     89  CD1       10.7260    3.4070   18.9870 C.3   432  LEU432      0.0001
     90  CD2        9.8480    4.6800   20.9910 C.3   432  LEU432      0.0001
     91  N         24.0060    0.8440   20.6350 N.3   487  TRP487     -0.1241
     92  CA        23.4410    1.9970   19.9330 C.3   487  TRP487      0.1605
     93  C         22.6260    2.9720   20.8460 C.2   487  TRP487      0.2264
     94  O         22.4840    4.2080   20.5660 O.2   487  TRP487     -0.2867
     95  CB        22.6100    1.4660   18.7300 C.3   487  TRP487      0.0550
     96  CG        21.3250    0.8070   19.1170 C.ar  487  TRP487      0.0003
     97  CD1       21.0840   -0.5500   19.2600 C.ar  487  TRP487      0.0946
     98  CD2       20.1140    1.4690   19.4920 C.ar  487  TRP487      0.0152
     99  NE1       19.7820   -0.7670   19.6540 N.ar  487  TRP487     -0.2442
    100  CE2       19.1630    0.4570   19.8160 C.ar  487  TRP487      0.0810
    101  CE3       19.7200    2.8210   19.5550 C.ar  487  TRP487      0.0012
    102  CZ2       17.8480    0.7600   20.2100 C.ar  487  TRP487      0.0191
    103  CZ3       18.3960    3.1190   19.9380 C.ar  487  TRP487      0.0001
    104  CH2       17.4780    2.0870   20.2440 C.ar  487  TRP487      0.0015
    105  N         18.3090    8.9910   25.4430 N.3   502  PHE502     -0.1241
    106  CA        16.9090    8.7880   25.7960 C.3   502  PHE502      0.1605
    107  C         16.6560    9.3170   27.1530 C.2   502  PHE502      0.2264
    108  O         17.5770    9.3880   27.9410 O.2   502  PHE502     -0.2867
    109  CB        16.5580    7.2840   25.7920 C.3   502  PHE502      0.0534
    110  CG        16.5070    6.6980   24.4180 C.ar  502  PHE502     -0.0203
    111  CD1       15.3160    6.7430   23.6790 C.ar  502  PHE502     -0.0042
    112  CD2       17.6470    6.1200   23.8560 C.ar  502  PHE502     -0.0042
    113  CE1       15.2640    6.2160   22.3770 C.ar  502  PHE502     -0.0003
    114  CE2       17.6150    5.6010   22.5450 C.ar  502  PHE502     -0.0003
    115  CZ        16.4200    5.6380   21.8130 C.ar  502  PHE502     -0.0000
@<TRIPOS>BOND
     1    19    18    2
     2    18    17    1
     3    17    16    1
     4    17    20    1
     5    16    10   am
     6    20    21    1
     7     8     9    1
     8    10     9    1
     9    10    11    2
    10     9    12    1
    11    21    23    1
    12    21    22    1
    13    12    13    1
    14    14    13    1
    15    13    15    1
    16    95    96    1
    17    95    92    1
    18    89    88    1
    19    96    97   ar
    20    96    98   ar
    21     4     3    2
    22    97    99   ar
    23    87    88    1
    24    87    84    1
    25    98   101   ar
    26    98   100   ar
    27   101   103   ar
    28    99   100   ar
    29   100   102   ar
    30    85    86    2
    31    85    84    1
    32    92    91    1
    33    92    93    1
    34   103   104   ar
    35    88    90    1
    36     1     2    1
    37    56    54    1
    38   102   104   ar
    39    84    83    1
    40     3     2    1
    41     5     2    1
    42     5     6    1
    43     5     7    1
    44    94    93    2
    45    55    54    1
    46    54    53    2
    47    83    77   am
    48    81    80    2
    49    53    52    1
    50   115   113   ar
    51   115   114   ar
    52    52    51    1
    53    77    78    2
    54    77    76    1
    55    80    82   am
    56    80    79    1
    57   113   111   ar
    58   114   112   ar
    59    51    50    1
    60    71    70    2
    61    76    79    1
    62    76    75    1
    63    50    47    1
    64    32    34   ar
    65    32    30   ar
    66   111   110   ar
    67   112   110   ar
    68    49    48    2
    69    65    67   ar
    70    65    63   ar
    71    70    75   am
    72    70    69    1
    73    34    33   ar
    74    43    45   ar
    75    43    41   ar
    76    30    29   ar
    77   110   109    1
    78    47    48    1
    79    47    46    1
    80    67    66   ar
    81    63    62   ar
    82    73    72    1
    83    45    44   ar
    84    68    69    1
    85    68    59   am
    86    41    40   ar
    87    69    72    1
    88    33    31   ar
    89   105   106    1
    90    58    59    1
    91    58    57    1
    92    58    61    1
    93    66    64   ar
    94    62    64   ar
    95    62    61    1
    96    72    74    1
    97    29    31   ar
    98    29    28    1
    99   109   106    1
   100   106   107    1
   101    59    60    2
   102    44    42   ar
   103    27    26    2
   104    40    42   ar
   105    40    39    1
   106    25    28    1
   107    25    26    1
   108    25    24    1
   109    35    36    1
   110    39    36    1
   111   107   108    2
   112    36    37    1
   113    37    38    2
