@<TRIPOS>MOLECULE
tmp/4rgaA00.pdb
 123 117 0 0 0
SMALL
GASTEIGER

@<TRIPOS>ATOM
      1  N        -24.9020   -1.6720  -32.0890 N.3   197  VAL197     -0.1231
      2  CA       -25.6150   -2.8430  -32.6130 C.3   197  VAL197      0.1692
      3  C        -25.0850   -3.2020  -34.0070 C.2   197  VAL197      0.2592
      4  O        -25.0330   -2.3400  -34.8850 O.2   197  VAL197     -0.2718
      5  CB       -27.1600   -2.5850  -32.6580 C.3   197  VAL197      0.0266
      6  CG1      -27.9210   -3.8170  -33.1480 C.3   197  VAL197      0.0020
      7  CG2      -27.7100   -2.1150  -31.3140 C.3   197  VAL197      0.0020
      8  N        -24.7700   -4.4860  -34.2240 N.am  198  GLN198     -0.1966
      9  CA       -24.3150   -4.9740  -35.5300 C.3   198  GLN198      0.1733
     10  C        -24.7430   -6.4030  -35.7720 C.2   198  GLN198      0.2617
     11  O        -24.8140   -7.2110  -34.8390 O.2   198  GLN198     -0.2715
     12  CB       -22.7920   -4.8340  -35.6840 C.3   198  GLN198      0.0408
     13  CG       -21.9820   -5.7280  -34.7250 C.3   198  GLN198      0.0908
     14  CD       -20.5880   -5.2000  -34.5740 C.2   198  GLN198      0.2608
     15  OE1      -20.2510   -4.5160  -33.5990 O.2   198  GLN198     -0.2717
     16  NE2      -19.7510   -5.5180  -35.5390 N.am  198  GLN198     -0.0878
     17  N        -24.9850   -6.7350  -37.0290 N.am  199  SER199     -0.1950
     18  CA       -25.3170   -8.1020  -37.3900 C.3   199  SER199      0.1924
     19  C        -24.0270   -8.9000  -37.5240 C.2   199  SER199      0.2314
     20  O        -22.9740   -8.3350  -37.8460 O.2   199  SER199     -0.2863
     21  CB       -26.1240   -8.1330  -38.6810 C.3   199  SER199      0.2116
     22  OG       -27.3770   -7.5020  -38.4920 O.3   199  SER199     -0.2180
     23  N        -31.3000   -9.3530  -51.4720 N.3   234  ARG234     -0.1245
     24  CA       -30.8900   -7.9430  -51.5250 C.3   234  ARG234      0.1563
     25  C        -29.4620   -7.8510  -51.0360 C.2   234  ARG234      0.2260
     26  O        -29.1480   -8.3070  -49.9240 O.2   234  ARG234     -0.2867
     27  CB       -31.8190   -7.0560  -50.6620 C.3   234  ARG234      0.0307
     28  CG       -33.3080   -7.1030  -51.0800 C.3   234  ARG234      0.0489
     29  CD       -34.2530   -6.6620  -49.9480 C.3   234  ARG234      0.2205
     30  NE       -34.0670   -7.4700  -48.7190 N.pl3 234  ARG234     -0.0865
     31  CZ       -34.6330   -7.1880  -47.5520 C.cat 234  ARG234      0.5346
     32  NH1      -35.4390   -6.1380  -47.4250 N.pl3 234  ARG234      0.1354
     33  NH2      -34.3910   -7.9530  -46.4940 N.pl3 234  ARG234      0.1354
     34  N        -27.6460   -5.4700  -49.9030 N.3   236  LYS236     -0.1231
     35  CA       -27.4300   -4.7620  -48.6250 C.3   236  LYS236      0.1693
     36  C        -27.4410   -5.7580  -47.4320 C.2   236  LYS236      0.2592
     37  O        -26.6490   -5.6220  -46.4910 O.2   236  LYS236     -0.2718
     38  CB       -28.5290   -3.7080  -48.4080 C.3   236  LYS236      0.0285
     39  CG       -28.4370   -2.9370  -47.0820 C.3   236  LYS236      0.0035
     40  CD       -29.4670   -1.8110  -47.0480 C.3   236  LYS236      0.0206
     41  CE       -29.4130   -0.9940  -45.7840 C.3   236  LYS236      0.1093
     42  NZ       -30.6590   -0.2000  -45.6040 N.3   236  LYS236     -0.1314
     43  N        -28.3530   -6.7300  -47.4870 N.am  237  PHE237     -0.1976
     44  CA       -28.5680   -7.7010  -46.4210 C.3   237  PHE237      0.1639
     45  C        -27.9490   -9.0740  -46.6680 C.2   237  PHE237      0.2290
     46  O        -27.9070   -9.8740  -45.7270 O.2   237  PHE237     -0.2864
     47  CB       -30.0850   -7.8250  -46.1320 C.3   237  PHE237      0.0560
     48  CG       -30.7160   -6.5050  -45.7250 C.ar  237  PHE237     -0.0200
     49  CD1      -30.5140   -5.9800  -44.4480 C.ar  237  PHE237     -0.0042
     50  CD2      -31.4710   -5.7650  -46.6340 C.ar  237  PHE237     -0.0042
     51  CE1      -31.0580   -4.7410  -44.0870 C.ar  237  PHE237     -0.0003
     52  CE2      -32.0220   -4.5190  -46.2720 C.ar  237  PHE237     -0.0003
     53  CZ       -31.8140   -4.0170  -45.0040 C.ar  237  PHE237     -0.0000
     54  N        -24.8330  -10.3980  -46.7410 N.3   239  PRO239     -0.2102
     55  CA       -23.8580  -11.0160  -45.8160 C.3   239  PRO239      0.1504
     56  C        -24.4370  -11.5110  -44.4990 C.2   239  PRO239      0.2576
     57  O        -23.8440  -12.3900  -43.8850 O.2   239  PRO239     -0.2718
     58  CB       -22.8570   -9.8830  -45.5320 C.3   239  PRO239      0.0282
     59  CG       -23.0350   -8.9000  -46.6910 C.3   239  PRO239      0.0208
     60  CD       -24.5270   -8.9620  -46.9230 C.3   239  PRO239      0.0893
     61  N        -25.5660  -10.9360  -44.0580 N.am  240  ASP240     -0.1960
     62  CA       -26.1220  -11.1600  -42.7270 C.3   240  ASP240      0.1840
     63  C        -27.4410  -11.8960  -42.5870 C.2   240  ASP240      0.2622
     64  O        -27.6470  -12.5310  -41.5540 O.2   240  ASP240     -0.2715
     65  CB       -26.2990   -9.7910  -42.0500 C.3   240  ASP240      0.1450
     66  CG       -25.0370   -8.9730  -42.0150 C.2   240  ASP240      0.3671
     67  OD1      -23.9810   -9.5340  -41.6950 O.co2 240  ASP240     -0.2456
     68  OD2      -25.1080   -7.7780  -42.3120 O.co2 240  ASP240     -0.2456
     69  N        -28.3650  -11.7210  -43.5230 N.am  241  ASN241     -0.1972
     70  CA       -29.7170  -12.2450  -43.3440 C.3   241  ASN241      0.1688
     71  C        -30.0490  -13.4770  -44.1320 C.2   241  ASN241      0.2292
     72  O        -29.7160  -13.5970  -45.3130 O.2   241  ASN241     -0.2864
     73  CB       -30.7650  -11.1480  -43.6710 C.3   241  ASN241      0.1181
     74  CG       -30.7470   -9.9250  -42.7770 C.2   241  ASN241      0.2629
     75  OD1      -29.8990   -9.7630  -41.9150 O.2   241  ASN241     -0.2716
     76  ND2      -31.7090   -9.0350  -42.9480 N.am  241  ASN241     -0.0877
     77  N        -37.6080  -10.5000  -38.7230 N.3   286  ASN286     -0.1240
     78  CA       -38.2210   -9.2870  -39.2530 C.3   286  ASN286      0.1653
     79  C        -39.0180   -9.6850  -40.4830 C.2   286  ASN286      0.2266
     80  O        -38.4780  -10.3190  -41.3930 O.2   286  ASN286     -0.2867
     81  CB       -37.1400   -8.2390  -39.5920 C.3   286  ASN286      0.1155
     82  CG       -37.6950   -6.8960  -40.0330 C.2   286  ASN286      0.2627
     83  OD1      -38.3380   -6.7720  -41.0660 O.2   286  ASN286     -0.2716
     84  ND2      -37.4430   -5.8640  -39.2590 N.am  286  ASN286     -0.0877
     85  N        -41.0900   -7.1810  -42.1070 N.3   288  SER288     -0.1202
     86  CA       -41.5660   -5.9270  -42.7280 C.3   288  SER288      0.2020
     87  C        -41.5610   -5.9840  -44.2600 C.2   288  SER288      0.2618
     88  O        -42.5400   -5.5580  -44.8850 O.2   288  SER288     -0.2717
     89  CB       -40.7850   -4.7170  -42.2140 C.3   288  SER288      0.2103
     90  OG       -39.4210   -4.8030  -42.5910 O.3   288  SER288     -0.2182
     91  N        -40.5080   -6.5840  -44.8640 N.am  289  ALA289     -0.1979
     92  CA       -40.4430   -6.7330  -46.3240 C.3   289  ALA289      0.1597
     93  C        -41.1780   -7.9950  -46.7970 C.2   289  ALA289      0.2287
     94  O        -40.8400   -9.1190  -46.3860 O.2   289  ALA289     -0.2864
     95  CB       -38.9880   -6.7490  -46.8010 C.3   289  ALA289      0.0319
     96  N        -37.0060  -12.5030  -42.4360 N.3   338  ASN338     -0.1240
     97  CA       -35.5740  -12.3920  -42.3730 C.3   338  ASN338      0.1653
     98  C        -35.2090  -12.9300  -40.9940 C.2   338  ASN338      0.2266
     99  O        -35.9550  -12.7320  -40.0340 O.2   338  ASN338     -0.2867
    100  CB       -35.0730  -10.9540  -42.4810 C.3   338  ASN338      0.1155
    101  CG       -34.5980  -10.6080  -43.8540 C.2   338  ASN338      0.2627
    102  OD1      -34.2560  -11.4610  -44.6740 O.2   338  ASN338     -0.2716
    103  ND2      -34.5960   -9.3510  -44.1470 N.am  338  ASN338     -0.0877
    104  N        -31.6630  -13.1900  -38.4650 N.3   340  PHE340     -0.1241
    105  CA       -30.2680  -12.7460  -38.3280 C.3   340  PHE340      0.1605
    106  C        -29.8170  -12.7360  -36.8640 C.2   340  PHE340      0.2264
    107  O        -30.6370  -12.8770  -35.9470 O.2   340  PHE340     -0.2867
    108  CB       -30.0260  -11.3760  -39.0370 C.3   340  PHE340      0.0534
    109  CG       -30.9840  -10.2690  -38.6540 C.ar  340  PHE340     -0.0203
    110  CD1      -32.2500  -10.1840  -39.2390 C.ar  340  PHE340     -0.0042
    111  CD2      -30.6170   -9.3000  -37.7270 C.ar  340  PHE340     -0.0042
    112  CE1      -33.1300   -9.1470  -38.9020 C.ar  340  PHE340     -0.0003
    113  CE2      -31.4980   -8.2540  -37.3960 C.ar  340  PHE340     -0.0003
    114  CZ       -32.7420   -8.1800  -37.9950 C.ar  340  PHE340     -0.0000
    115  N        -27.3790  -10.6570  -33.9270 N.3   342  GLN342     -0.1245
    116  CA       -26.7700   -9.3720  -33.6200 C.3   342  GLN342      0.1566
    117  C        -25.9210   -9.3850  -32.3500 C.2   342  GLN342      0.2260
    118  O        -26.2050  -10.1250  -31.4030 O.2   342  GLN342     -0.2867
    119  CB       -27.8230   -8.2440  -33.5800 C.3   342  GLN342      0.0367
    120  CG       -28.5590   -8.0620  -34.9230 C.3   342  GLN342      0.0905
    121  CD       -29.0260   -6.6500  -35.2090 C.2   342  GLN342      0.2608
    122  OE1      -29.9170   -6.1420  -34.5330 O.2   342  GLN342     -0.2717
    123  NE2      -28.4890   -6.0200  -36.2820 N.am  342  GLN342     -0.0878
@<TRIPOS>BOND
     1    24    23    1
     2    24    25    1
     3    24    27    1
     4    28    27    1
     5    28    29    1
     6    25    26    2
     7    29    30    1
     8    34    35    1
     9    30    31    2
    10    35    38    1
    11    35    36    1
    12    38    39    1
    13    31    32    1
    14    31    33    1
    15    43    36   am
    16    43    44    1
    17    36    37    2
    18    39    40    1
    19    40    41    1
    20    60    54    1
    21    60    59    1
    22    95    92    1
    23    93    94    2
    24    93    92    1
    25    54    55    1
    26    59    58    1
    27    45    44    1
    28    45    46    2
    29    50    52   ar
    30    50    48   ar
    31    44    47    1
    32    92    91    1
    33    52    53   ar
    34    47    48    1
    35    55    58    1
    36    55    56    1
    37    41    42    1
    38    48    49   ar
    39    72    71    2
    40    53    51   ar
    41    88    87    2
    42    91    87   am
    43   102   101    2
    44    56    61   am
    45    56    57    2
    46    49    51   ar
    47    87    86    1
    48   103   101   am
    49    71    70    1
    50    61    62    1
    51   101   100    1
    52    73    70    1
    53    73    74    1
    54    69    70    1
    55    69    63   am
    56    76    74   am
    57    74    75    2
    58    86    89    1
    59    86    85    1
    60    62    63    1
    61    62    65    1
    62    90    89    1
    63    63    64    2
    64   100    97    1
    65    96    97    1
    66    97    98    1
    67    68    66   ar
    68    65    66    1
    69    66    67   ar
    70    80    79    2
    71    83    82    2
    72    98    99    2
    73    79    78    1
    74    82    81    1
    75    82    84   am
    76    81    78    1
    77    78    77    1
    78   110   112   ar
    79   110   109   ar
    80   108   109    1
    81   108   105    1
    82   112   114   ar
    83    21    22    1
    84    21    18    1
    85   109   111   ar
    86   104   105    1
    87   105   106    1
    88   114   113   ar
    89    20    19    2
    90   111   113   ar
    91    19    18    1
    92    18    17    1
    93    17    10   am
    94   106   107    2
    95   123   121   am
    96    10     9    1
    97    10    11    2
    98    12     9    1
    99    12    13    1
   100    16    14   am
   101     9     8    1
   102   121   120    1
   103   121   122    2
   104   120   119    1
   105     4     3    2
   106    13    14    1
   107    14    15    2
   108     8     3   am
   109     3     2    1
   110   115   116    1
   111   116   119    1
   112   116   117    1
   113     6     5    1
   114     5     2    1
   115     5     7    1
   116     2     1    1
   117   117   118    2
