@<TRIPOS>MOLECULE
tmp/4rggA00.pdb
 96 88 0 0 0
SMALL
GASTEIGER

@<TRIPOS>ATOM
      1  N        -31.6980  -31.9530    9.1450 N.3   234  ARG234     -0.1245
      2  CA       -31.6800  -31.5570    7.6720 C.3   234  ARG234      0.1563
      3  C        -32.1490  -30.1650    7.6040 C.2   234  ARG234      0.2260
      4  O        -33.2820  -29.8390    8.0320 O.2   234  ARG234     -0.2867
      5  CB       -32.6090  -32.4910    6.8620 C.3   234  ARG234      0.0307
      6  CG       -32.2460  -33.9710    7.0880 C.3   234  ARG234      0.0489
      7  CD       -33.3600  -34.9050    6.5850 C.3   234  ARG234      0.2205
      8  NE       -34.5950  -34.7340    7.4210 N.pl3 234  ARG234     -0.0865
      9  CZ       -35.7500  -35.3080    7.1480 C.cat 234  ARG234      0.5346
     10  NH1      -35.8640  -36.1200    6.0890 N.pl3 234  ARG234      0.1354
     11  NH2      -36.8030  -35.1130    7.9300 N.pl3 234  ARG234      0.1354
     12  N        -35.6690  -28.9850    6.6070 N.3   237  PHE237     -0.1241
     13  CA       -36.7950  -29.1840    7.5320 C.3   237  PHE237      0.1605
     14  C        -36.5280  -28.6020    8.9020 C.2   237  PHE237      0.2264
     15  O        -37.4550  -28.5820    9.7510 O.2   237  PHE237     -0.2867
     16  CB       -37.1280  -30.6540    7.6630 C.3   237  PHE237      0.0534
     17  CG       -37.5520  -31.2960    6.3690 C.ar  237  PHE237     -0.0203
     18  CD1      -38.7460  -30.9940    5.8060 C.ar  237  PHE237     -0.0042
     19  CD2      -36.7730  -32.2310    5.7780 C.ar  237  PHE237     -0.0042
     20  CE1      -39.1700  -31.5910    4.6100 C.ar  237  PHE237     -0.0003
     21  CE2      -37.1460  -32.8540    4.5740 C.ar  237  PHE237     -0.0003
     22  CZ       -38.3570  -32.5230    3.9740 C.ar  237  PHE237     -0.0000
     23  N        -39.6250  -28.9030   11.7360 N.3   241  ASN241     -0.1240
     24  CA       -39.8390  -30.2560   12.1560 C.3   241  ASN241      0.1653
     25  C        -39.0120  -30.5670   13.3630 C.2   241  ASN241      0.2266
     26  O        -37.8130  -30.2380   13.4400 O.2   241  ASN241     -0.2867
     27  CB       -39.4300  -31.2640   11.0820 C.3   241  ASN241      0.1155
     28  CG       -40.3550  -31.2640    9.8710 C.2   241  ASN241      0.2627
     29  OD1      -41.1530  -30.3820    9.6780 O.2   241  ASN241     -0.2716
     30  ND2      -40.1890  -32.2560    9.0170 N.am  241  ASN241     -0.0877
     31  N        -44.5220  -38.1050   10.5690 N.3   286  ASN286     -0.1240
     32  CA       -44.0160  -38.7730    9.3540 C.3   286  ASN286      0.1653
     33  C        -42.7990  -39.5820    9.6950 C.2   286  ASN286      0.2266
     34  O        -41.8780  -39.0860   10.3590 O.2   286  ASN286     -0.2867
     35  CB       -43.6280  -37.7350    8.3630 C.3   286  ASN286      0.1155
     36  CG       -43.1910  -38.3420    7.0190 C.2   286  ASN286      0.2627
     37  OD1      -42.1280  -39.0040    6.8970 O.2   286  ASN286     -0.2716
     38  ND2      -43.9840  -38.0830    6.0120 N.am  286  ASN286     -0.0877
     39  N        -41.1840  -41.6010    7.3060 N.3   288  SER288     -0.1202
     40  CA       -40.6810  -42.2010    6.0460 C.3   288  SER288      0.2020
     41  C        -39.1310  -42.1640    6.0560 C.2   288  SER288      0.2618
     42  O        -38.4980  -43.1310    5.6300 O.2   288  SER288     -0.2717
     43  CB       -41.2790  -41.4700    4.8360 C.3   288  SER288      0.2103
     44  OG       -40.6780  -40.2120    4.7780 O.3   288  SER288     -0.2182
     45  N        -38.4990  -41.1300    6.6490 N.am  289  ALA289     -0.1979
     46  CA       -36.9960  -41.1600    6.8290 C.3   289  ALA289      0.1597
     47  C        -36.5080  -41.8560    8.0780 C.2   289  ALA289      0.2287
     48  O        -36.8850  -41.4940    9.2230 O.2   289  ALA289     -0.2864
     49  CB       -36.4060  -39.7650    6.7970 C.3   289  ALA289      0.0319
     50  N        -33.1870  -40.5830   11.7400 N.3   292  LEU292     -0.1245
     51  CA       -33.1290  -39.1550   12.2110 C.3   292  LEU292      0.1561
     52  C        -32.8370  -38.9910   13.7180 C.2   292  LEU292      0.2260
     53  O        -32.4170  -37.9580   14.1300 O.2   292  LEU292     -0.2867
     54  CB       -34.4520  -38.4850   11.9150 C.3   292  LEU292      0.0270
     55  CG       -34.8610  -38.4510   10.4590 C.3   292  LEU292      0.0019
     56  CD1      -36.1280  -37.6320   10.3020 C.3   292  LEU292      0.0001
     57  CD2      -33.7730  -37.7970    9.6310 C.3   292  LEU292      0.0001
     58  N        -51.9710  -37.4330   10.3210 N.3   309  ARG309     -0.1245
     59  CA       -52.4360  -36.0230   10.3590 C.3   309  ARG309      0.1563
     60  C        -53.6030  -35.9930   11.3000 C.2   309  ARG309      0.2260
     61  O        -54.4740  -36.8660   11.2610 O.2   309  ARG309     -0.2867
     62  CB       -52.9490  -35.4940    9.0000 C.3   309  ARG309      0.0307
     63  CG       -51.9590  -35.4080    7.8500 C.3   309  ARG309      0.0489
     64  CD       -50.9390  -34.3280    8.1440 C.3   309  ARG309      0.2205
     65  NE       -49.9540  -34.0570    7.0650 N.pl3 309  ARG309     -0.0865
     66  CZ       -48.9050  -34.8480    6.7790 C.cat 309  ARG309      0.5346
     67  NH1      -48.0760  -34.4940    5.8190 N.pl3 309  ARG309      0.1354
     68  NH2      -48.6630  -35.9890    7.4610 N.pl3 309  ARG309      0.1354
     69  N        -40.6960  -37.5450   12.5440 N.3   338  ASN338     -0.1240
     70  CA       -40.7830  -36.1050   12.4470 C.3   338  ASN338      0.1653
     71  C        -42.1650  -35.7240   12.9850 C.2   338  ASN338      0.2266
     72  O        -43.1540  -36.4240   12.7480 O.2   338  ASN338     -0.2867
     73  CB       -40.7630  -35.6090   11.0110 C.3   338  ASN338      0.1155
     74  CG       -39.3700  -35.2030   10.4850 C.2   338  ASN338      0.2627
     75  OD1      -39.1830  -35.1700    9.2820 O.2   338  ASN338     -0.2716
     76  ND2      -38.4720  -34.7860   11.3480 N.am  338  ASN338     -0.0877
     77  N        -44.6230  -32.1120   13.1410 N.3   340  PHE340     -0.1241
     78  CA       -44.7570  -30.7070   12.7320 C.3   340  PHE340      0.1605
     79  C        -46.2120  -30.2470   12.7480 C.2   340  PHE340      0.2264
     80  O        -47.1280  -31.0640   12.8800 O.2   340  PHE340     -0.2867
     81  CB       -44.0980  -30.4710   11.3710 C.3   340  PHE340      0.0534
     82  CG       -44.4900  -31.4490   10.2900 C.ar  340  PHE340     -0.0203
     83  CD1      -43.9830  -32.7480   10.2560 C.ar  340  PHE340     -0.0042
     84  CD2      -45.3540  -31.0870    9.2960 C.ar  340  PHE340     -0.0042
     85  CE1      -44.3230  -33.6300    9.2490 C.ar  340  PHE340     -0.0003
     86  CE2      -45.7390  -31.9840    8.2940 C.ar  340  PHE340     -0.0003
     87  CZ       -45.2130  -33.2460    8.2600 C.ar  340  PHE340     -0.0000
     88  N        -49.1570  -27.7900   10.6770 N.3   342  GLN342     -0.1245
     89  CA       -49.4960  -27.2270    9.3600 C.3   342  GLN342      0.1566
     90  C        -50.7400  -26.3440    9.4410 C.2   342  GLN342      0.2260
     91  O        -51.6440  -26.6120   10.2370 O.2   342  GLN342     -0.2867
     92  CB       -49.6990  -28.3180    8.3130 C.3   342  GLN342      0.0367
     93  CG       -48.4480  -29.1390    8.1400 C.3   342  GLN342      0.0905
     94  CD       -48.3580  -29.8650    6.7890 C.2   342  GLN342      0.2608
     95  OE1      -49.1960  -30.6800    6.4950 O.2   342  GLN342     -0.2717
     96  NE2      -47.2590  -29.5850    6.0180 N.am  342  GLN342     -0.0878
@<TRIPOS>BOND
     1    22    21   ar
     2    22    20   ar
     3    21    19   ar
     4    20    18   ar
     5    44    43    1
     6    43    40    1
     7    42    41    2
     8    19    17   ar
     9    18    17   ar
    10    67    66    1
    11    38    36   am
    12    96    94   am
    13    40    41    1
    14    40    39    1
    15    41    45   am
    16    10     9    1
    17    17    16    1
    18    95    94    2
    19     7     6    1
    20     7     8    1
    21    12    13    1
    22    45    46    1
    23    66    65    2
    24    66    68    1
    25    94    93    1
    26    49    46    1
    27    46    47    1
    28     5     6    1
    29     5     2    1
    30    37    36    2
    31    36    35    1
    32    65    64    1
    33     9     8    2
    34     9    11    1
    35    13    16    1
    36    13    14    1
    37     3     2    1
    38     3     4    2
    39     2     1    1
    40    63    64    1
    41    63    62    1
    42    47    48    2
    43    93    92    1
    44    87    86   ar
    45    87    85   ar
    46    86    84   ar
    47    92    89    1
    48    35    32    1
    49    14    15    2
    50    62    59    1
    51    30    28   am
    52    85    83   ar
    53    75    74    2
    54    84    82   ar
    55    32    33    1
    56    32    31    1
    57    89    90    1
    58    89    88    1
    59    90    91    2
    60    57    55    1
    61    29    28    2
    62    33    34    2
    63    28    27    1
    64    83    82   ar
    65    82    81    1
    66    56    55    1
    67    58    59    1
    68    59    60    1
    69    55    54    1
    70    74    73    1
    71    74    76   am
    72    73    70    1
    73    27    24    1
    74    61    60    2
    75    81    78    1
    76    23    24    1
    77    50    51    1
    78    54    51    1
    79    24    25    1
    80    51    52    1
    81    70    69    1
    82    70    71    1
    83    78    79    1
    84    78    77    1
    85    79    80    2
    86    72    71    2
    87    25    26    2
    88    52    53    2
