@<TRIPOS>MOLECULE
tmp/4rgqB01.pdb
 129 118 0 0 0
SMALL
GASTEIGER

@<TRIPOS>ATOM
      1  N         13.9100   15.5050   30.8430 N.3   103  ASP103     -0.1225
      2  CA        12.8630   14.8120   31.5640 C.3   103  ASP103      0.1805
      3  C         11.4970   15.4870   31.6540 C.2   103  ASP103      0.2598
      4  O         10.6670   15.0410   32.3700 O.2   103  ASP103     -0.2718
      5  CB        13.3260   14.4090   32.9500 C.3   103  ASP103      0.1424
      6  CG        13.7010   15.5910   33.8310 C.2   103  ASP103      0.3668
      7  OD1       13.3520   16.7150   33.5520 O.co2 103  ASP103     -0.2456
      8  OD2       14.3540   15.3560   34.8060 O.co2 103  ASP103     -0.2456
      9  N         11.2920   16.5370   30.9040 N.am  104  GLY104     -0.1957
     10  CA         9.9960   17.1730   30.8050 C.3   104  GLY104      0.1869
     11  C          9.0030   16.3080   30.0680 C.2   104  GLY104      0.2309
     12  O          7.8230   16.4680   30.2330 O.2   104  GLY104     -0.2863
     13  N          7.2690   14.4020   33.0800 N.3   107  SER107     -0.1217
     14  CA         7.1610   15.0390   34.3920 C.3   107  SER107      0.1889
     15  C          5.9440   15.9220   34.5400 C.2   107  SER107      0.2288
     16  O          5.3910   16.3870   33.5610 O.2   107  SER107     -0.2866
     17  CB         8.3700   15.8760   34.6840 C.3   107  SER107      0.2089
     18  OG         8.2630   17.1310   34.0800 O.3   107  SER107     -0.2183
     19  N          6.1250   18.8500   35.6350 N.3   109  ILE109     -0.1245
     20  CA         6.6960   20.1850   35.7540 C.3   109  ILE109      0.1561
     21  C          6.4860   21.0170   34.5220 C.2   109  ILE109      0.2260
     22  O          6.7270   20.5670   33.4320 O.2   109  ILE109     -0.2867
     23  CB         8.2160   20.1040   35.9960 C.3   109  ILE109      0.0252
     24  CG1        8.5010   19.1870   37.1710 C.3   109  ILE109      0.0019
     25  CG2        8.8090   21.5010   36.1940 C.3   109  ILE109      0.0019
     26  CD1        7.9780   19.7140   38.4710 C.3   109  ILE109      0.0001
     27  N          7.9130   24.4390   32.8860 N.3   111  SER111     -0.1217
     28  CA         9.1420   25.2760   32.9650 C.3   111  SER111      0.1889
     29  C          9.1850   26.3640   31.9040 C.2   111  SER111      0.2288
     30  O         10.2470   26.7420   31.4720 O.2   111  SER111     -0.2866
     31  CB        10.3880   24.4150   32.7810 C.3   111  SER111      0.2089
     32  OG        10.5480   23.5280   33.8610 O.3   111  SER111     -0.2183
     33  N         10.9460   30.4130   34.6750 N.3   114  GLN114     -0.1245
     34  CA        11.2680   30.1720   36.0680 C.3   114  GLN114      0.1566
     35  C         10.5200   31.2400   36.8670 C.2   114  GLN114      0.2260
     36  O         10.2850   32.3480   36.3570 O.2   114  GLN114     -0.2867
     37  CB        12.7800   30.2020   36.3380 C.3   114  GLN114      0.0367
     38  CG        13.5320   28.8570   36.2100 C.3   114  GLN114      0.0905
     39  CD        13.1080   27.7430   37.1840 C.2   114  GLN114      0.2608
     40  OE1       12.5980   26.6900   36.7890 O.2   114  GLN114     -0.2717
     41  NE2       13.3460   27.9670   38.4610 N.am  114  GLN114     -0.0878
     42  N          9.7510   27.3100   37.9020 N.3   116  SER116     -0.1217
     43  CA         8.9320   26.1790   37.5040 C.3   116  SER116      0.1889
     44  C          7.8170   25.9300   38.4780 C.2   116  SER116      0.2288
     45  O          7.9340   26.2730   39.6410 O.2   116  SER116     -0.2866
     46  CB         9.7340   24.9090   37.5740 C.3   116  SER116      0.2089
     47  OG        10.7570   24.9260   36.6460 O.3   116  SER116     -0.2183
     48  N         20.8460   15.7250   31.7350 N.3   146  ASP146     -0.1239
     49  CA        19.6460   15.8330   32.5450 C.3   146  ASP146      0.1674
     50  C         19.5260   14.5950   33.4630 C.2   146  ASP146      0.2266
     51  O         19.1900   14.7330   34.6380 O.2   146  ASP146     -0.2867
     52  CB        18.4420   16.0200   31.6580 C.3   146  ASP146      0.1410
     53  CG        17.2420   16.6440   32.3790 C.2   146  ASP146      0.3668
     54  OD1       17.4040   17.7370   32.9610 O.co2 146  ASP146     -0.2456
     55  OD2       16.1510   16.0340   32.3590 O.co2 146  ASP146     -0.2456
     56  N          9.4740   12.1190   39.9420 N.3   210  ILE210     -0.1245
     57  CA         9.0110   13.4420   40.3180 C.3   210  ILE210      0.1561
     58  C          7.5240   13.3480   40.7620 C.2   210  ILE210      0.2260
     59  O          7.1410   13.9480   41.7760 O.2   210  ILE210     -0.2867
     60  CB         9.1600   14.4460   39.1580 C.3   210  ILE210      0.0252
     61  CG1       10.6500   14.6590   38.8460 C.3   210  ILE210      0.0019
     62  CG2        8.4760   15.7550   39.4910 C.3   210  ILE210      0.0019
     63  CD1       10.8980   15.4100   37.5660 C.3   210  ILE210      0.0001
     64  N         10.0570   18.1420   42.3450 N.3   216  SER216     -0.1217
     65  CA        11.1610   17.9850   41.4320 C.3   216  SER216      0.1889
     66  C         12.5020   17.6230   42.1340 C.2   216  SER216      0.2288
     67  O         13.5420   17.4060   41.4660 O.2   216  SER216     -0.2866
     68  CB        11.3520   19.2350   40.6130 C.3   216  SER216      0.2089
     69  OG        11.8720   20.2680   41.3880 O.3   216  SER216     -0.2183
     70  N         15.0140   15.0030   40.8930 N.3   219  ALA219     -0.1231
     71  CA        15.5620   15.2520   39.5710 C.3   219  ALA219      0.1694
     72  C         16.1860   16.6260   39.4030 C.2   219  ALA219      0.2592
     73  O         16.7640   16.9120   38.3710 O.2   219  ALA219     -0.2718
     74  CB        14.4660   15.0800   38.5390 C.3   219  ALA219      0.0304
     75  N         16.0370   17.4910   40.3900 N.am  220  SER220     -0.1952
     76  CA        16.5280   18.8470   40.2880 C.3   220  SER220      0.1924
     77  C         17.1080   19.3270   41.6180 C.2   220  SER220      0.2314
     78  O         16.4280   19.3440   42.6470 O.2   220  SER220     -0.2863
     79  CB        15.4010   19.7710   39.8700 C.3   220  SER220      0.2116
     80  OG        15.8340   21.1310   39.9130 O.3   220  SER220     -0.2180
     81  N         20.8100   21.9330   38.6170 N.3   224  HIS224     -0.1226
     82  CA        19.7610   22.6480   37.9120 C.3   224  HIS224      0.1752
     83  C         19.7600   24.1560   38.2540 C.2   224  HIS224      0.2595
     84  O         19.5360   25.0070   37.3970 O.2   224  HIS224     -0.2718
     85  CB        18.3940   22.0090   38.1860 C.3   224  HIS224      0.0759
     86  CG        18.0090   20.9860   37.1830 C.ar  224  HIS224      0.0818
     87  ND1       18.6030   19.7450   37.0930 N.ar  224  HIS224     -0.2268
     88  CD2       17.0680   21.0190   36.2250 C.ar  224  HIS224      0.1154
     89  CE1       18.0430   19.0660   36.1170 C.ar  224  HIS224      0.1986
     90  NE2       17.0990   19.8110   35.5680 N.ar  224  HIS224     -0.2212
     91  N         20.0170   24.4900   39.5050 N.am  225  LEU225     -0.1980
     92  CA        20.1130   25.9040   39.8850 C.3   225  LEU225      0.1596
     93  C         21.1830   26.6030   39.0470 C.2   225  LEU225      0.2287
     94  O         21.0080   27.7240   38.5490 O.2   225  LEU225     -0.2864
     95  CB        20.4210   26.0310   41.3550 C.3   225  LEU225      0.0297
     96  CG        19.3160   25.4710   42.2670 C.3   225  LEU225      0.0022
     97  CD1       19.6490   25.7460   43.7380 C.3   225  LEU225      0.0001
     98  CD2       17.9430   26.0740   41.9400 C.3   225  LEU225      0.0001
     99  N         19.9350   27.0860   35.5830 N.3   228  HIS228     -0.1241
    100  CA        18.9860   28.2020   35.5460 C.3   228  HIS228      0.1621
    101  C         19.7280   29.5420   35.6440 C.2   228  HIS228      0.2264
    102  O         19.3610   30.5040   34.9960 O.2   228  HIS228     -0.2867
    103  CB        17.9510   28.1330   36.6520 C.3   228  HIS228      0.0745
    104  CG        17.1120   26.8900   36.6540 C.ar  228  HIS228      0.0817
    105  ND1       16.7340   26.2330   35.5050 N.ar  228  HIS228     -0.2268
    106  CD2       16.5270   26.2170   37.6760 C.ar  228  HIS228      0.1154
    107  CE1       15.9860   25.1870   35.8170 C.ar  228  HIS228      0.1986
    108  NE2       15.8340   25.1620   37.1280 N.ar  228  HIS228     -0.2212
    109  N         19.7140   22.9490   27.8540 N.3   245  HIS245     -0.1241
    110  CA        19.4110   22.6990   29.2530 C.3   245  HIS245      0.1621
    111  C         20.1600   21.4930   29.8480 C.2   245  HIS245      0.2264
    112  O         20.7410   21.5860   30.9290 O.2   245  HIS245     -0.2867
    113  CB        17.9030   22.5220   29.4540 C.3   245  HIS245      0.0745
    114  CG        17.5100   21.9750   30.7910 C.ar  245  HIS245      0.0817
    115  ND1       17.4600   22.7420   31.9270 N.ar  245  HIS245     -0.2268
    116  CD2       17.1450   20.7340   31.1670 C.ar  245  HIS245      0.1154
    117  CE1       17.0760   22.0050   32.9370 C.ar  245  HIS245      0.1986
    118  NE2       16.8820   20.7810   32.5070 N.ar  245  HIS245     -0.2212
    119  N         16.4290   29.6610   43.5800 N.3   308  ARG308     -0.1245
    120  CA        15.2410   29.1890   44.2180 C.3   308  ARG308      0.1563
    121  C         15.5180   28.9440   45.6640 C.2   308  ARG308      0.2260
    122  O         16.6310   28.6510   46.0520 O.2   308  ARG308     -0.2867
    123  CB        14.7870   27.9100   43.5560 C.3   308  ARG308      0.0307
    124  CG        13.6190   27.2850   44.2550 C.3   308  ARG308      0.0489
    125  CD        13.6550   25.8050   44.0700 C.3   308  ARG308      0.2205
    126  NE        13.1950   25.4610   42.7510 N.pl3 308  ARG308     -0.0865
    127  CZ        11.9810   25.0080   42.4920 C.cat 308  ARG308      0.5346
    128  NH1       11.6490   24.7070   41.2510 N.pl3 308  ARG308      0.1354
    129  NH2       11.1120   24.8420   43.4790 N.pl3 308  ARG308      0.1354
@<TRIPOS>BOND
     1   109   110    1
     2   110   113    1
     3   110   111    1
     4   113   114    1
     5   111   112    2
     6    11    12    2
     7    11    10    1
     8   114   116   ar
     9   114   115   ar
    10    10     9    1
    11     1     2    1
    12     9     3   am
    13   116   118   ar
    14    30    29    2
    15     2     3    1
    16     2     5    1
    17     3     4    2
    18    52    53    1
    19    52    49    1
    20    48    49    1
    21    29    28    1
    22   115   117   ar
    23    55    53   ar
    24    53    54   ar
    25   118   117   ar
    26    49    50    1
    27    31    28    1
    28    31    32    1
    29    27    28    1
    30     5     6    1
    31    13    14    1
    32    22    21    2
    33    50    51    2
    34     7     6   ar
    35    16    15    2
    36     6     8   ar
    37    18    17    1
    38    14    15    1
    39    14    17    1
    40    21    20    1
    41    33    34    1
    42   102   101    2
    43   105   107   ar
    44   105   104   ar
    45   100    99    1
    46   100   101    1
    47   100   103    1
    48    90    89   ar
    49    90    88   ar
    50    19    20    1
    51    20    23    1
    52   107   108   ar
    53    23    25    1
    54    23    24    1
    55    34    37    1
    56    34    35    1
    57    89    87   ar
    58    38    37    1
    59    38    39    1
    60    88    86   ar
    61    36    35    2
    62    47    46    1
    63   103   104    1
    64   104   106   ar
    65    40    39    2
    66    87    86   ar
    67   108   106   ar
    68    24    26    1
    69    86    85    1
    70    39    41   am
    71    84    83    2
    72    43    46    1
    73    43    42    1
    74    43    44    1
    75    63    61    1
    76    82    85    1
    77    82    83    1
    78    82    81    1
    79    83    91   am
    80    73    72    2
    81    44    45    2
    82    74    71    1
    83    94    93    2
    84    61    60    1
    85    93    92    1
    86    60    62    1
    87    60    57    1
    88    72    71    1
    89    72    75   am
    90    91    92    1
    91    71    70    1
    92    79    80    1
    93    79    76    1
    94    92    95    1
    95    56    57    1
    96    76    75    1
    97    76    77    1
    98    57    58    1
    99    68    69    1
   100    68    65    1
   101    58    59    2
   102   128   127    1
   103    95    96    1
   104    65    66    1
   105    65    64    1
   106    67    66    2
   107    77    78    2
   108    98    96    1
   109    96    97    1
   110   127   126    2
   111   127   129    1
   112   126   125    1
   113   123   120    1
   114   123   124    1
   115   119   120    1
   116   125   124    1
   117   120   121    1
   118   121   122    2
