@<TRIPOS>MOLECULE
tmp/4rgtA00.pdb
 113 109 0 0 0
SMALL
GASTEIGER

@<TRIPOS>ATOM
      1  N        -19.6910   55.4980   13.3730 N.3     1  HIS1       -0.1241
      2  CA       -18.6020   54.7860   12.6200 C.3     1  HIS1        0.1621
      3  C        -17.5870   54.1430   13.5730 C.2     1  HIS1        0.2264
      4  O        -16.9900   54.8220   14.4160 O.2     1  HIS1       -0.2867
      5  CB       -17.9130   55.7380   11.6350 C.3     1  HIS1        0.0745
      6  CG       -18.7790   56.1290   10.4760 C.ar    1  HIS1        0.0817
      7  ND1      -19.8160   57.0300   10.5900 N.ar    1  HIS1       -0.2268
      8  CD2      -18.7640   55.7380    9.1790 C.ar    1  HIS1        0.1154
      9  CE1      -20.4040   57.1740    9.4160 C.ar    1  HIS1        0.1986
     10  NE2      -19.7840   56.4010    8.5430 N.ar    1  HIS1       -0.2212
     11  N         -7.3190   59.9090   -4.7480 N.3   121  LEU121     -0.1245
     12  CA        -7.8030   60.4610   -3.5030 C.3   121  LEU121      0.1561
     13  C         -7.4350   59.5070   -2.3790 C.2   121  LEU121      0.2260
     14  O         -7.1890   59.9420   -1.2610 O.2   121  LEU121     -0.2867
     15  CB        -9.3170   60.6710   -3.5260 C.3   121  LEU121      0.0270
     16  CG        -9.7620   61.6630   -4.5620 C.3   121  LEU121      0.0019
     17  CD1      -11.2590   61.9030   -4.4440 C.3   121  LEU121      0.0001
     18  CD2       -8.9820   62.9470   -4.4010 C.3   121  LEU121      0.0001
     19  N        -11.4300   74.4500   -7.8070 N.3   157  LYS157     -0.1231
     20  CA       -12.2040   73.2460   -7.5430 C.3   157  LYS157      0.1693
     21  C        -11.5770   72.6420   -6.2700 C.2   157  LYS157      0.2592
     22  O        -10.4410   72.9940   -5.8880 O.2   157  LYS157     -0.2718
     23  CB       -12.1170   72.2340   -8.6900 C.3   157  LYS157      0.0285
     24  CG       -12.6800   72.7230  -10.0250 C.3   157  LYS157      0.0035
     25  CD       -12.5930   71.5880  -11.0410 C.3   157  LYS157      0.0206
     26  CE       -12.9800   72.0350  -12.4350 C.3   157  LYS157      0.1093
     27  NZ       -14.3860   72.5120  -12.4970 N.3   157  LYS157     -0.1314
     28  N        -12.2880   71.7230   -5.6250 N.am  158  PHE158     -0.1962
     29  CA       -11.8100   71.1590   -4.3910 C.3   158  PHE158      0.1771
     30  C        -12.3480   69.7530   -4.1190 C.2   158  PHE158      0.2620
     31  O        -13.3720   69.3510   -4.6940 O.2   158  PHE158     -0.2715
     32  CB       -12.2020   72.1200   -3.2510 C.3   158  PHE158      0.0574
     33  CG       -13.6770   72.3570   -3.1320 C.ar  158  PHE158     -0.0200
     34  CD1      -14.4750   71.4860   -2.4060 C.ar  158  PHE158     -0.0042
     35  CD2      -14.2690   73.4750   -3.7100 C.ar  158  PHE158     -0.0042
     36  CE1      -15.8340   71.7060   -2.2840 C.ar  158  PHE158     -0.0003
     37  CE2      -15.6300   73.7010   -3.5890 C.ar  158  PHE158     -0.0003
     38  CZ       -16.4160   72.8130   -2.8790 C.ar  158  PHE158     -0.0000
     39  N        -11.6260   69.0160   -3.2830 N.am  159  TYR159     -0.1960
     40  CA       -11.9850   67.6550   -2.8500 C.3   159  TYR159      0.1771
     41  C        -11.9060   67.6110   -1.3350 C.2   159  TYR159      0.2620
     42  O        -10.8950   68.0350   -0.7290 O.2   159  TYR159     -0.2715
     43  CB       -11.0640   66.6070   -3.4650 C.3   159  TYR159      0.0574
     44  CG       -10.9910   66.7650   -4.9440 C.ar  159  TYR159     -0.0198
     45  CD1      -10.0830   67.6710   -5.5290 C.ar  159  TYR159     -0.0009
     46  CD2      -11.8740   66.0940   -5.7610 C.ar  159  TYR159     -0.0009
     47  CE1      -10.0570   67.8690   -6.9030 C.ar  159  TYR159      0.0417
     48  CE2      -11.8620   66.2740   -7.1290 C.ar  159  TYR159      0.0417
     49  CZ       -10.9530   67.1520   -7.7020 C.ar  159  TYR159      0.1957
     50  OH       -10.9550   67.2960   -9.0570 O.3   159  TYR159     -0.2866
     51  N        -12.9520   67.0620   -0.7330 N.am  160  THR160     -0.1951
     52  CA       -13.1030   67.0410    0.6950 C.3   160  THR160      0.1897
     53  C        -13.0880   65.6650    1.3410 C.2   160  THR160      0.2313
     54  O        -13.8050   64.7740    0.9140 O.2   160  THR160     -0.2863
     55  CB       -14.4410   67.6910    1.0470 C.3   160  THR160      0.1794
     56  OG1      -14.5070   69.0020    0.4490 O.3   160  THR160     -0.2208
     57  CG2      -14.6270   67.7920    2.5770 C.3   160  THR160      0.0378
     58  N        -13.8970   63.9130    4.9430 N.3   162  GLU162     -0.1245
     59  CA       -14.5200   64.0470    6.2740 C.3   162  GLU162      0.1567
     60  C        -13.8200   63.1500    7.2630 C.2   162  GLU162      0.2260
     61  O        -13.7550   61.9550    7.0640 O.2   162  GLU162     -0.2867
     62  CB       -15.9540   63.6450    6.2050 C.3   162  GLU162      0.0388
     63  CG       -16.8130   64.5440    5.3440 C.3   162  GLU162      0.1160
     64  CD       -18.2840   64.1730    5.4840 C.2   162  GLU162      0.3649
     65  OE1      -18.8670   63.5790    4.5330 O.co2 162  GLU162     -0.2457
     66  OE2      -18.8260   64.4050    6.5860 O.co2 162  GLU162     -0.2457
     67  N        -15.1760   59.6720    9.4330 N.3   165  LYS165     -0.1245
     68  CA       -15.3480   58.4210    8.7520 C.3   165  LYS165      0.1561
     69  C        -14.2730   58.1980    7.7110 C.2   165  LYS165      0.2260
     70  O        -13.5860   59.1330    7.2710 O.2   165  LYS165     -0.2867
     71  CB       -16.7160   58.3830    8.0810 C.3   165  LYS165      0.0271
     72  CG       -16.8890   59.3730    6.9530 C.3   165  LYS165      0.0035
     73  CD       -18.3520   59.5430    6.6210 C.3   165  LYS165      0.0206
     74  CE       -18.5350   60.4970    5.4630 C.3   165  LYS165      0.1093
     75  NZ       -19.9790   60.7660    5.2060 N.3   165  LYS165     -0.1314
     76  N        -14.8390   57.1410    1.4440 N.3   168  GLN168     -0.1245
     77  CA       -15.7960   56.1900    0.8610 C.3   168  GLN168      0.1566
     78  C        -15.1200   55.3370   -0.2270 C.2   168  GLN168      0.2260
     79  O        -14.3230   55.8480   -1.0400 O.2   168  GLN168     -0.2867
     80  CB       -17.0110   56.9040    0.2920 C.3   168  GLN168      0.0367
     81  CG       -17.8030   57.7910    1.2480 C.3   168  GLN168      0.0905
     82  CD       -17.3200   59.2340    1.3510 C.2   168  GLN168      0.2608
     83  OE1      -16.1610   59.5590    1.0670 O.2   168  GLN168     -0.2717
     84  NE2      -18.2280   60.1130    1.7460 N.am  168  GLN168     -0.0878
     85  N        -15.9780   54.1500   -3.0810 N.3   170  HIS170     -0.1226
     86  CA       -16.1860   54.5730   -4.4760 C.3   170  HIS170      0.1752
     87  C        -15.3960   55.8240   -4.8290 C.2   170  HIS170      0.2595
     88  O        -15.3370   56.1890   -5.9880 O.2   170  HIS170     -0.2718
     89  CB       -17.6920   54.7470   -4.8130 C.3   170  HIS170      0.0759
     90  CG       -18.3620   55.8620   -4.0660 C.ar  170  HIS170      0.0818
     91  ND1      -18.9580   55.6810   -2.8290 N.ar  170  HIS170     -0.2268
     92  CD2      -18.5340   57.1660   -4.3800 C.ar  170  HIS170      0.1154
     93  CE1      -19.4470   56.8340   -2.4070 C.ar  170  HIS170      0.1986
     94  NE2      -19.2070   57.7500   -3.3290 N.ar  170  HIS170     -0.2212
     95  N        -14.7910   56.4780   -3.8360 N.am  171  ARG171     -0.1980
     96  CA       -13.9430   57.6430   -4.0950 C.3   171  ARG171      0.1597
     97  C        -12.4460   57.3310   -4.0610 C.2   171  ARG171      0.2287
     98  O        -11.6400   58.1400   -4.5000 O.2   171  ARG171     -0.2864
     99  CB       -14.2370   58.7580   -3.0840 C.3   171  ARG171      0.0334
    100  CG       -15.6400   59.3020   -3.1800 C.3   171  ARG171      0.0492
    101  CD       -15.8640   60.3430   -2.1030 C.3   171  ARG171      0.2205
    102  NE       -15.0130   61.5100   -2.3160 N.pl3 171  ARG171     -0.0865
    103  CZ       -14.6070   62.3290   -1.3590 C.cat 171  ARG171      0.5346
    104  NH1      -14.9170   62.0930   -0.0950 N.pl3 171  ARG171      0.1354
    105  NH2      -13.8450   63.3670   -1.6720 N.pl3 171  ARG171      0.1354
    106  N        -10.7730   57.6690   -7.4150 N.3   174  ASP174     -0.1239
    107  CA       -10.8460   58.9540   -8.1660 C.3   174  ASP174      0.1674
    108  C         -9.4450   59.5790   -8.1710 C.2   174  ASP174      0.2266
    109  O         -8.7180   59.4560   -7.1830 O.2   174  ASP174     -0.2867
    110  CB       -11.8480   59.9370   -7.5250 C.3   174  ASP174      0.1410
    111  CG       -13.2800   59.4430   -7.6010 C.2   174  ASP174      0.3668
    112  OD1      -13.5590   58.5650   -8.4550 O.co2 174  ASP174     -0.2456
    113  OD2      -14.1240   59.9100   -6.8070 O.co2 174  ASP174     -0.2456
@<TRIPOS>BOND
     1    27    26    1
     2    26    25    1
     3    25    24    1
     4    24    23    1
     5    50    49    1
     6    23    20    1
     7   112   111   ar
     8   108   107    1
     9   108   109    2
    10   107   110    1
    11   107   106    1
    12    19    20    1
    13    49    48   ar
    14    49    47   ar
    15   111   110    1
    16   111   113   ar
    17    20    21    1
    18    48    46   ar
    19    47    45   ar
    20    21    22    2
    21    21    28   am
    22    88    87    2
    23    46    44   ar
    24    28    29    1
    25    45    44   ar
    26    44    43    1
    27    87    86    1
    28    87    95   am
    29    89    86    1
    30    89    90    1
    31    11    12    1
    32    31    30    2
    33    16    17    1
    34    16    18    1
    35    16    15    1
    36    98    97    2
    37    86    85    1
    38    29    30    1
    39    29    32    1
    40    92    90   ar
    41    92    94   ar
    42    30    39   am
    43    96    97    1
    44    96    95    1
    45    96    99    1
    46    90    91   ar
    47    35    37   ar
    48    35    33   ar
    49    37    38   ar
    50    15    12    1
    51    12    13    1
    52    43    40    1
    53    94    93   ar
    54    39    40    1
    55    32    33    1
    56   100    99    1
    57   100   101    1
    58    33    34   ar
    59    38    36   ar
    60    40    41    1
    61    91    93   ar
    62    34    36   ar
    63    13    14    2
    64   102   101    1
    65   102   103    2
    66   105   103    1
    67   103   104    1
    68    41    51   am
    69    41    42    2
    70    79    78    2
    71    51    52    1
    72    78    77    1
    73    80    77    1
    74    80    81    1
    75    56    55    1
    76    52    55    1
    77    52    53    1
    78    77    76    1
    79    54    53    2
    80    55    57    1
    81    83    82    2
    82    81    82    1
    83    82    84   am
    84    65    64   ar
    85    58    59    1
    86    75    74    1
    87    63    64    1
    88    63    62    1
    89    74    73    1
    90    64    66   ar
    91    62    59    1
    92    59    60    1
    93    73    72    1
    94    72    71    1
    95    61    60    2
    96    70    69    2
    97    69    68    1
    98    71    68    1
    99    10     8   ar
   100    10     9   ar
   101    68    67    1
   102     8     6   ar
   103     9     7   ar
   104     6     7   ar
   105     6     5    1
   106     5     2    1
   107     2     1    1
   108     2     3    1
   109     3     4    2
