@<TRIPOS>MOLECULE
tmp/4rh2A00.pdb
 157 152 0 0 0
SMALL
GASTEIGER

@<TRIPOS>ATOM
      1  N         -8.4470    0.4640    5.8990 N.3    64  ASN64      -0.1240
      2  CA        -9.2970    1.3930    6.6340 C.3    64  ASN64       0.1653
      3  C        -10.4790    1.8000    5.7910 C.2    64  ASN64       0.2266
      4  O        -10.3010    2.2140    4.6360 O.2    64  ASN64      -0.2867
      5  CB        -8.5510    2.6750    7.0200 C.3    64  ASN64       0.1155
      6  CG        -7.4840    2.4550    8.0610 C.2    64  ASN64       0.2627
      7  OD1       -7.3890    1.3810    8.6500 O.2    64  ASN64      -0.2716
      8  ND2       -6.6500    3.4760    8.2750 N.am   64  ASN64      -0.0877
      9  N        -12.6410    6.1900   11.2380 N.3    89  GLN89      -0.1245
     10  CA       -12.3480    5.0330   10.3900 C.3    89  GLN89       0.1566
     11  C        -12.6170    3.7670   11.1660 C.2    89  GLN89       0.2260
     12  O        -12.6340    3.7910   12.3900 O.2    89  GLN89      -0.2867
     13  CB       -10.8860    5.0440    9.8920 C.3    89  GLN89       0.0367
     14  CG        -9.8390    5.1860   10.9880 C.3    89  GLN89       0.0905
     15  CD        -9.0790    3.9030   11.2640 C.2    89  GLN89       0.2608
     16  OE1       -9.6240    2.7990   11.1960 O.2    89  GLN89      -0.2717
     17  NE2       -7.8110    4.0490   11.6090 N.am   89  GLN89      -0.0878
     18  N        -11.2070   -0.5240   10.9260 N.3    91  HIS91      -0.1241
     19  CA       -10.3260   -1.5020   10.3020 C.3    91  HIS91       0.1621
     20  C        -10.3940   -2.7740   11.1280 C.2    91  HIS91       0.2264
     21  O        -11.0260   -2.7950   12.1930 O.2    91  HIS91      -0.2867
     22  CB        -8.8860   -0.9880   10.2690 C.3    91  HIS91       0.0745
     23  CG        -8.3360   -0.7230   11.6280 C.ar   91  HIS91       0.0817
     24  ND1       -8.5060    0.4810   12.2800 N.ar   91  HIS91      -0.2268
     25  CD2       -7.6880   -1.5350   12.4910 C.ar   91  HIS91       0.1154
     26  CE1       -7.9520    0.4050   13.4790 C.ar   91  HIS91       0.1986
     27  NE2       -7.4600   -0.8140   13.6360 N.ar   91  HIS91      -0.2212
     28  N         -8.0530   -6.4860   12.4440 N.3    93  HIS93      -0.1241
     29  CA        -6.8360   -7.2840   12.5890 C.3    93  HIS93       0.1621
     30  C         -7.2820   -8.7260   12.4960 C.2    93  HIS93       0.2264
     31  O         -8.3430   -9.0800   13.0080 O.2    93  HIS93      -0.2867
     32  CB        -6.1640   -7.0350   13.9400 C.3    93  HIS93       0.0745
     33  CG        -5.8850   -5.5900   14.2050 C.ar   93  HIS93       0.0817
     34  ND1       -4.6520   -5.0120   13.9860 N.ar   93  HIS93      -0.2268
     35  CD2       -6.6980   -4.5940   14.6290 C.ar   93  HIS93       0.1154
     36  CE1       -4.7170   -3.7220   14.2800 C.ar   93  HIS93       0.1986
     37  NE2       -5.9470   -3.4430   14.6760 N.ar   93  HIS93      -0.2212
     38  N        -12.0020   -2.7090   14.8310 N.3   116  HIS116     -0.1241
     39  CA       -11.7710   -1.4850   15.5790 C.3   116  HIS116      0.1621
     40  C        -12.4510   -0.3200   14.8990 C.2   116  HIS116      0.2264
     41  O        -12.0760    0.0600   13.7920 O.2   116  HIS116     -0.2867
     42  CB       -10.2700   -1.2030   15.6870 C.3   116  HIS116      0.0745
     43  CG        -9.5650   -2.1650   16.5840 C.ar  116  HIS116      0.0817
     44  ND1       -8.2060   -2.3880   16.5380 N.ar  116  HIS116     -0.2268
     45  CD2      -10.0570   -3.0050   17.5280 C.ar  116  HIS116      0.1154
     46  CE1       -7.8860   -3.3040   17.4370 C.ar  116  HIS116      0.1986
     47  NE2       -8.9900   -3.6920   18.0520 N.ar  116  HIS116     -0.2212
     48  N        -12.7710    3.4720   15.2430 N.3   118  VAL118     -0.1245
     49  CA       -11.9110    4.4830   15.8480 C.3   118  VAL118      0.1561
     50  C        -12.6040    5.8330   15.8690 C.2   118  VAL118      0.2260
     51  O        -13.0770    6.3030   14.8340 O.2   118  VAL118     -0.2867
     52  CB       -10.6050    4.6060   15.0420 C.3   118  VAL118      0.0252
     53  CG1       -9.6700    5.6200   15.6940 C.3   118  VAL118      0.0019
     54  CG2       -9.9310    3.2500   14.8560 C.3   118  VAL118      0.0019
     55  N         -8.2330   14.7510   14.8220 N.3   127  PHE127     -0.1227
     56  CA        -7.6220   13.4960   15.2130 C.3   127  PHE127      0.1736
     57  C         -6.1770   13.6750   15.6720 C.2   127  PHE127      0.2596
     58  O         -5.7640   13.0780   16.6640 O.2   127  PHE127     -0.2718
     59  CB        -7.7090   12.5070   14.0470 C.3   127  PHE127      0.0547
     60  CG        -7.0780   11.1770   14.3330 C.ar  127  PHE127     -0.0202
     61  CD1       -7.8110   10.1690   14.9520 C.ar  127  PHE127     -0.0042
     62  CD2       -5.7490   10.9260   13.9980 C.ar  127  PHE127     -0.0042
     63  CE1       -7.2370    8.9380   15.2170 C.ar  127  PHE127     -0.0003
     64  CE2       -5.1740    9.6960   14.2650 C.ar  127  PHE127     -0.0003
     65  CZ        -5.9180    8.7060   14.8860 C.ar  127  PHE127     -0.0000
     66  N         -5.4080   14.4810   14.9400 N.am  128  GLY128     -0.1957
     67  CA        -4.0030   14.7170   15.2650 C.3   128  GLY128      0.1869
     68  C         -3.7610   15.3210   16.6390 C.2   128  GLY128      0.2309
     69  O         -2.7990   14.9650   17.3270 O.2   128  GLY128     -0.2863
     70  N         -4.8180   12.5270   19.5060 N.3   131  VAL131     -0.1231
     71  CA        -3.8820   11.4450   19.8640 C.3   131  VAL131      0.1692
     72  C         -2.8040   11.9010   20.8460 C.2   131  VAL131      0.2591
     73  O         -2.0810   11.0720   21.3980 O.2   131  VAL131     -0.2718
     74  CB        -3.2340   10.7380   18.6440 C.3   131  VAL131      0.0266
     75  CG1       -4.2870   10.1240   17.7420 C.3   131  VAL131      0.0020
     76  CG2       -2.3380   11.6760   17.8530 C.3   131  VAL131      0.0020
     77  N         -2.7240   13.2150   21.0640 N.am  132  GLN132     -0.1979
     78  CA        -1.7830   13.7870   22.0320 C.3   132  GLN132      0.1601
     79  C         -2.3830   13.8830   23.4340 C.2   132  GLN132      0.2287
     80  O         -1.7600   14.4270   24.3520 O.2   132  GLN132     -0.2864
     81  CB        -1.3200   15.1680   21.5550 C.3   132  GLN132      0.0394
     82  CG        -0.6630   15.1370   20.1870 C.3   132  GLN132      0.0908
     83  CD        -0.2830   16.5030   19.6670 C.2   132  GLN132      0.2608
     84  OE1        0.3890   17.2840   20.3480 O.2   132  GLN132     -0.2717
     85  NE2       -0.6900   16.7920   18.4450 N.am  132  GLN132     -0.0878
     86  N        -11.8410    3.6760   21.0820 N.3   139  VAL139     -0.1245
     87  CA       -11.9150    2.6230   20.0790 C.3   139  VAL139      0.1561
     88  C        -12.8730    1.5660   20.5700 C.2   139  VAL139      0.2260
     89  O        -12.7230    1.0330   21.6810 O.2   139  VAL139     -0.2867
     90  CB       -10.5440    2.0180   19.6920 C.3   139  VAL139      0.0252
     91  CG1      -10.7260    1.0110   18.5660 C.3   139  VAL139      0.0019
     92  CG2       -9.5960    3.0970   19.2000 C.3   139  VAL139      0.0019
     93  N         -2.9530    3.0600   21.1870 N.3   194  LEU194     -0.1231
     94  CA        -2.9420    2.5110   19.8310 C.3   194  LEU194      0.1693
     95  C         -2.1940    1.1910   19.8670 C.2   194  LEU194      0.2593
     96  O         -1.1910    1.0450   20.5840 O.2   194  LEU194     -0.2718
     97  CB        -2.2270    3.4530   18.8590 C.3   194  LEU194      0.0284
     98  CG        -2.7580    4.8820   18.7670 C.3   194  LEU194      0.0019
     99  CD1       -1.8960    5.6970   17.8200 C.3   194  LEU194      0.0001
    100  CD2       -4.2210    4.9090   18.3430 C.3   194  LEU194      0.0001
    101  N         -2.6550    0.2320   19.0730 N.am  195  THR195     -0.1939
    102  CA        -2.0100   -1.0790   19.0480 C.3   195  THR195      0.2028
    103  C         -0.9830   -1.2120   17.9300 C.2   195  THR195      0.2643
    104  O         -0.3960   -2.2870   17.7550 O.2   195  THR195     -0.2714
    105  CB        -3.0230   -2.2240   18.8980 C.3   195  THR195      0.1808
    106  OG1       -3.6190   -2.1440   17.6000 O.3   195  THR195     -0.2208
    107  CG2       -4.0940   -2.1930   20.0030 C.3   195  THR195      0.0379
    108  N         -0.8080   -0.1440   17.1510 N.am  196  THR196     -0.1937
    109  CA         0.2720   -0.0670   16.1610 C.3   196  THR196      0.2013
    110  C          1.0890    1.1840   16.4560 C.2   196  THR196      0.2484
    111  O          0.5840    2.1300   17.0580 O.2   196  THR196     -0.2729
    112  CB        -0.2390    0.0290   14.7050 C.3   196  THR196      0.1807
    113  OG1       -0.8820    1.2900   14.4980 O.3   196  THR196     -0.2208
    114  CG2       -1.2030   -1.0930   14.3710 C.3   196  THR196      0.0379
    115  N          2.3680    1.2000   16.0360 N.am  197  PRO197     -0.2715
    116  CA         3.1250    2.4550   16.0800 C.3   197  PRO197      0.1521
    117  C          2.2680    3.6110   15.5230 C.2   197  PRO197      0.2440
    118  O          1.5820    3.4150   14.5130 O.2   197  PRO197     -0.2731
    119  CB         4.3390    2.1450   15.2030 C.3   197  PRO197      0.0310
    120  CG         4.5410    0.6790   15.3890 C.3   197  PRO197      0.0237
    121  CD         3.1520    0.1030   15.4380 C.3   197  PRO197      0.0939
    122  N          2.2660    4.7950   16.1450 N.am  198  PRO198     -0.2727
    123  CA         3.1780    5.1810   17.2380 C.3   198  PRO198      0.1402
    124  C          2.8200    4.7460   18.6780 C.2   198  PRO198      0.2269
    125  O          3.4850    5.1840   19.6200 O.2   198  PRO198     -0.2865
    126  CB         3.1690    6.7150   17.1370 C.3   198  PRO198      0.0296
    127  CG         1.8190    7.0390   16.6030 C.3   198  PRO198      0.0237
    128  CD         1.5160    5.9530   15.6150 C.3   198  PRO198      0.0939
    129  N          0.5920    5.3910   20.8140 N.3   200  LEU200     -0.1245
    130  CA         0.2890    6.4970   21.7130 C.3   200  LEU200      0.1561
    131  C         -0.7690    6.1030   22.7410 C.2   200  LEU200      0.2260
    132  O         -1.7470    5.4020   22.4390 O.2   200  LEU200     -0.2867
    133  CB        -0.1580    7.7250   20.9200 C.3   200  LEU200      0.0270
    134  CG         0.9090    8.3050   19.9830 C.3   200  LEU200      0.0019
    135  CD1        0.2820    9.3270   19.0500 C.3   200  LEU200      0.0001
    136  CD2        2.0760    8.9170   20.7510 C.3   200  LEU200      0.0001
    137  N         -6.0300    6.1760   24.2210 N.3   203  VAL203     -0.1245
    138  CA        -7.2630    5.4460   23.8870 C.3   203  VAL203      0.1561
    139  C         -8.0420    4.9860   25.1210 C.2   203  VAL203      0.2260
    140  O         -7.4870    4.3500   26.0090 O.2   203  VAL203     -0.2867
    141  CB        -6.9730    4.2010   23.0040 C.3   203  VAL203      0.0252
    142  CG1       -8.2740    3.4860   22.6480 C.3   203  VAL203      0.0019
    143  CG2       -6.2120    4.5750   21.7330 C.3   203  VAL203      0.0019
    144  N        -10.4270    2.2140   25.6290 N.3   205  TRP205     -0.1241
    145  CA       -10.8730    0.9950   24.9530 C.3   205  TRP205      0.1605
    146  C        -12.2340    0.5740   25.4610 C.2   205  TRP205      0.2264
    147  O        -12.4700    0.5350   26.6670 O.2   205  TRP205     -0.2867
    148  CB        -9.8530   -0.1490   25.1320 C.3   205  TRP205      0.0550
    149  CG        -8.7670   -0.0360   24.1380 C.ar  205  TRP205      0.0003
    150  CD1       -7.5520    0.5660   24.3100 C.ar  205  TRP205      0.0946
    151  CD2       -8.8290   -0.4310   22.7680 C.ar  205  TRP205      0.0152
    152  NE1       -6.8430    0.5400   23.1400 N.ar  205  TRP205     -0.2442
    153  CE2       -7.6000   -0.0750   22.1790 C.ar  205  TRP205      0.0810
    154  CE3       -9.7900   -1.0890   21.9900 C.ar  205  TRP205      0.0012
    155  CZ2       -7.3200   -0.3270   20.8400 C.ar  205  TRP205      0.0191
    156  CZ3       -9.5130   -1.3480   20.6680 C.ar  205  TRP205      0.0001
    157  CH2       -8.2820   -0.9700   20.1050 C.ar  205  TRP205      0.0015
@<TRIPOS>BOND
     1     4     3    2
     2     3     2    1
     3     1     2    1
     4     2     5    1
     5     5     6    1
     6     6     8   am
     7     6     7    2
     8    13    10    1
     9    13    14    1
    10    22    19    1
    11    22    23    1
    12    19    18    1
    13    19    20    1
    14    10    11    1
    15    10     9    1
    16    14    15    1
    17    20    21    2
    18    11    12    2
    19    16    15    2
    20    15    17   am
    21    23    24   ar
    22    23    25   ar
    23    24    26   ar
    24    28    29    1
    25    25    27   ar
    26    30    29    1
    27    30    31    2
    28    29    32    1
    29    26    27   ar
    30    41    40    2
    31    32    33    1
    32    34    33   ar
    33    34    36   ar
    34    62    64   ar
    35    62    60   ar
    36    59    60    1
    37    59    56    1
    38    33    35   ar
    39    64    65   ar
    40    36    37   ar
    41    60    61   ar
    42   114   112    1
    43   113   112    1
    44   118   117    2
    45    35    37   ar
    46   112   109    1
    47    55    56    1
    48    38    39    1
    49    51    50    2
    50    54    52    1
    51    65    63   ar
    52    40    39    1
    53    66    67    1
    54    66    57   am
    55    61    63   ar
    56    52    53    1
    57    52    49    1
    58   119   120    1
    59   119   116    1
    60    56    57    1
    61    48    49    1
    62    67    68    1
    63   120   121    1
    64   121   115    1
    65   117   116    1
    66   117   122   am
    67    39    42    1
    68   128   122    1
    69   128   127    1
    70    57    58    2
    71    42    43    1
    72    49    50    1
    73   115   116    1
    74   115   110   am
    75   122   123    1
    76   109   110    1
    77   109   108    1
    78   110   111    2
    79    44    43   ar
    80    44    46   ar
    81    43    45   ar
    82   127   126    1
    83    68    69    2
    84   126   123    1
    85   108   103   am
    86   123   124    1
    87    46    47   ar
    88    45    47   ar
    89   106   105    1
    90    75    74    1
    91   104   103    2
    92    99    98    1
    93    76    74    1
    94   103   102    1
    95   100    98    1
    96    85    83   am
    97    91    90    1
    98    74    71    1
    99   124   125    2
   100    98    97    1
   101    97    94    1
   102   105   102    1
   103   105   107    1
   104   102   101    1
   105   135   134    1
   106   101    95   am
   107    92    90    1
   108    70    71    1
   109    83    82    1
   110    83    84    2
   111    90    87    1
   112    94    95    1
   113    94    93    1
   114    71    72    1
   115    95    96    2
   116   134   136    1
   117   134   133    1
   118    87    88    1
   119    87    86    1
   120   157   156   ar
   121   157   155   ar
   122    82    81    1
   123    88    89    2
   124   156   154   ar
   125   129   130    1
   126   155   153   ar
   127    72    77   am
   128    72    73    2
   129   133   130    1
   130    77    78    1
   131    81    78    1
   132   130   131    1
   133   143   141    1
   134   154   151   ar
   135    78    79    1
   136   153   151   ar
   137   153   152   ar
   138   132   131    2
   139   142   141    1
   140   151   149   ar
   141   141   138    1
   142   152   150   ar
   143    79    80    2
   144   138   137    1
   145   138   139    1
   146   149   150   ar
   147   149   148    1
   148   145   148    1
   149   145   146    1
   150   145   144    1
   151   139   140    2
   152   146   147    2
