@<TRIPOS>MOLECULE
tmp/4rh3C00.pdb
 154 146 0 0 0
SMALL
GASTEIGER

@<TRIPOS>ATOM
      1  N         14.2170  297.3630  427.4940 N.3     8  SER8       -0.1202
      2  CA        13.6480  298.4370  428.2980 C.3     8  SER8        0.2020
      3  C         13.1580  297.9250  429.6510 C.2     8  SER8        0.2619
      4  O         12.8010  296.7570  429.8060 O.2     8  SER8       -0.2717
      5  CB        12.5320  299.1680  427.5510 C.3     8  SER8        0.2103
      6  OG        12.3530  300.4640  428.1050 O.3     8  SER8       -0.2182
      7  N         13.1960  298.8010  430.6430 N.am    9  GLY9       -0.1942
      8  CA        12.5560  298.5230  431.9170 C.3     9  GLY9        0.2014
      9  C         13.3880  297.8060  432.9690 C.2     9  GLY9        0.2639
     10  O         14.5010  297.3460  432.7250 O.2     9  GLY9       -0.2714
     11  N         12.8090  297.7260  434.1600 N.am   10  GLY10      -0.1954
     12  CA        13.4330  297.0830  435.2980 C.3    10  GLY10       0.1869
     13  C         14.0130  295.7830  434.8180 C.2    10  GLY10       0.2309
     14  O         13.2780  294.9050  434.3210 O.2    10  GLY10      -0.2863
     15  N         14.6020  302.5000  425.2490 N.3    40  TYR40      -0.1241
     16  CA        14.0030  303.4590  424.2930 C.3    40  TYR40       0.1605
     17  C         14.8430  304.7210  424.1160 C.2    40  TYR40       0.2264
     18  O         14.8160  305.3500  423.0490 O.2    40  TYR40      -0.2867
     19  CB        12.5780  303.8510  424.6930 C.3    40  TYR40       0.0534
     20  CG        11.5460  302.7670  424.4060 C.ar   40  TYR40      -0.0201
     21  CD1       11.1520  302.4900  423.1190 C.ar   40  TYR40      -0.0009
     22  CD2       11.0070  302.0160  425.4370 C.ar   40  TYR40      -0.0009
     23  CE1       10.2520  301.5020  422.8570 C.ar   40  TYR40       0.0417
     24  CE2       10.0800  301.0300  425.1910 C.ar   40  TYR40       0.0417
     25  CZ         9.6980  300.7860  423.8910 C.ar   40  TYR40       0.1957
     26  OH         8.7520  299.8120  423.6600 O.3    40  TYR40      -0.2866
     27  N         17.1760  302.0120  429.9110 N.3    72  ALA72      -0.1231
     28  CA        16.8530  303.3360  430.3870 C.3    72  ALA72       0.1694
     29  C         15.3560  303.3600  430.6010 C.2    72  ALA72       0.2592
     30  O         14.5930  302.8370  429.7880 O.2    72  ALA72      -0.2718
     31  CB        17.2650  304.3830  429.3590 C.3    72  ALA72       0.0304
     32  N         14.9240  303.9880  431.6730 N.am   73  ARG73      -0.1966
     33  CA        13.5900  304.5760  431.6640 C.3    73  ARG73       0.1729
     34  C         13.6960  305.7340  430.6610 C.2    73  ARG73       0.2616
     35  O         14.7320  306.3940  430.5880 O.2    73  ARG73      -0.2715
     36  CB        13.1920  305.0720  433.0520 C.3    73  ARG73       0.0348
     37  CG        12.9870  303.9760  434.0970 C.3    73  ARG73       0.0492
     38  CD        13.4890  304.4870  435.4390 C.3    73  ARG73       0.2205
     39  NE        13.2250  303.6450  436.5940 N.pl3  73  ARG73      -0.0865
     40  CZ        13.5000  303.9980  437.8470 C.cat  73  ARG73       0.5346
     41  NH1       13.9920  305.2050  438.1040 N.pl3  73  ARG73       0.1354
     42  NH2       13.2720  303.1530  438.8530 N.pl3  73  ARG73       0.1354
     43  N         12.6550  305.9860  429.8880 N.am   74  CYS74      -0.1968
     44  CA        12.7400  307.0030  428.8400 C.3    74  CYS74       0.1712
     45  C         11.5020  307.8690  428.7740 C.2    74  CYS74       0.2296
     46  O         10.5040  307.4740  428.1790 O.2    74  CYS74      -0.2864
     47  CB        12.9830  306.3700  427.4730 C.3    74  CYS74       0.0983
     48  SG        13.4180  307.5940  426.2130 S.3    74  CYS74      -0.0798
     49  N         10.3500  309.1320  425.1380 N.3    77  PHE77      -0.1227
     50  CA         9.4830  308.1740  424.4320 C.3    77  PHE77       0.1736
     51  C          7.9830  308.2500  424.7770 C.2    77  PHE77       0.2595
     52  O          7.1850  307.5940  424.1230 O.2    77  PHE77      -0.2718
     53  CB         9.9880  306.7200  424.5770 C.3    77  PHE77       0.0547
     54  CG         9.5960  305.8450  423.4110 C.ar   77  PHE77      -0.0202
     55  CD1       10.2130  305.9980  422.1860 C.ar   77  PHE77      -0.0042
     56  CD2        8.5880  304.9140  423.5290 C.ar   77  PHE77      -0.0042
     57  CE1        9.8470  305.2250  421.1110 C.ar   77  PHE77      -0.0003
     58  CE2        8.1970  304.1350  422.4490 C.ar   77  PHE77      -0.0003
     59  CZ         8.8340  304.2930  421.2360 C.ar   77  PHE77      -0.0000
     60  N          7.6050  309.0230  425.8000 N.am   78  ARG78      -0.1980
     61  CA         6.1860  309.2170  426.1400 C.3    78  ARG78       0.1597
     62  C          5.6070  310.3790  425.3960 C.2    78  ARG78       0.2287
     63  O          4.4670  310.7460  425.6510 O.2    78  ARG78      -0.2864
     64  CB         5.9830  309.4570  427.6460 C.3    78  ARG78       0.0334
     65  CG         6.7600  308.4940  428.5310 C.3    78  ARG78       0.0492
     66  CD         6.2570  308.5230  429.9480 C.3    78  ARG78       0.2205
     67  NE         5.4960  307.3160  430.1790 N.pl3  78  ARG78      -0.0865
     68  CZ         5.9150  306.3210  430.9320 C.cat  78  ARG78       0.5346
     69  NH1        7.0990  306.3780  431.5760 N.pl3  78  ARG78       0.1354
     70  NH2        5.1340  305.2460  431.0460 N.pl3  78  ARG78       0.1354
     71  N          8.9970  310.1070  419.9140 N.3    83  ARG83      -0.1245
     72  CA         8.7020  308.9800  419.0360 C.3    83  ARG83       0.1563
     73  C          8.9670  309.2750  417.5730 C.2    83  ARG83       0.2260
     74  O          9.3460  308.3970  416.8240 O.2    83  ARG83      -0.2867
     75  CB         7.2730  308.5070  419.2130 C.3    83  ARG83       0.0307
     76  CG         6.9740  308.1420  420.6550 C.3    83  ARG83       0.0489
     77  CD         5.7230  307.3140  420.7680 C.3    83  ARG83       0.2205
     78  NE         4.9890  307.7040  421.9540 N.pl3  83  ARG83      -0.0865
     79  CZ         4.0170  308.5970  421.9890 C.cat  83  ARG83       0.5346
     80  NH1        3.6120  309.2230  420.9000 N.pl3  83  ARG83       0.1354
     81  NH2        3.4340  308.8640  423.1540 N.pl3  83  ARG83       0.1354
     82  N         11.1370  293.5820  427.6840 N.3   102  GLY102     -0.1210
     83  CA        10.7580  294.4520  428.7960 C.3   102  GLY102      0.1956
     84  C          9.5020  293.9940  429.5570 C.2   102  GLY102      0.2612
     85  O          9.3010  292.7910  429.7220 O.2   102  GLY102     -0.2717
     86  N          8.7210  294.9430  430.0810 N.am  103  GLY103     -0.1942
     87  CA         7.5950  294.6090  430.9400 C.3   103  GLY103      0.2014
     88  C          6.3170  295.2780  430.5100 C.2   103  GLY103      0.2639
     89  O          6.2280  295.7510  429.3790 O.2   103  GLY103     -0.2714
     90  N          5.3400  295.3480  431.4240 N.am  104  ASP104     -0.1957
     91  CA         4.0350  295.9660  431.1460 C.3   104  ASP104      0.1840
     92  C          4.2250  297.2540  430.3190 C.2   104  ASP104      0.2623
     93  O          3.6180  297.4450  429.2790 O.2   104  ASP104     -0.2715
     94  CB         3.2560  296.3430  432.4500 C.3   104  ASP104      0.1450
     95  CG         3.1620  295.2110  433.5450 C.2   104  ASP104      0.3671
     96  OD1        3.1070  293.9750  433.3190 O.co2 104  ASP104     -0.2456
     97  OD2        3.0540  295.6060  434.7190 O.co2 104  ASP104     -0.2456
     98  N          5.0550  298.1620  430.8380 N.am  105  GLY105     -0.1940
     99  CA         5.1440  299.5250  430.3100 C.3   105  GLY105      0.2014
    100  C          5.9070  299.6060  429.0180 C.2   105  GLY105      0.2639
    101  O          5.4760  300.2870  428.0700 O.2   105  GLY105     -0.2714
    102  N          7.0380  298.8960  428.9900 N.am  106  SER106     -0.1949
    103  CA         7.8640  298.7840  427.7900 C.3   106  SER106      0.1924
    104  C          6.9990  298.3180  426.6380 C.2   106  SER106      0.2314
    105  O          7.0650  298.8720  425.5400 O.2   106  SER106     -0.2863
    106  CB         9.0250  297.7840  428.0120 C.3   106  SER106      0.2116
    107  OG         9.7810  298.0510  429.2000 O.3   106  SER106     -0.2180
    108  N          3.5760  298.2150  426.5090 N.3   108  THR108     -0.1203
    109  CA         2.5120  299.2040  426.2390 C.3   108  THR108      0.1994
    110  C          3.0850  300.3070  425.3100 C.2   108  THR108      0.2618
    111  O          2.4060  300.7630  424.3690 O.2   108  THR108     -0.2717
    112  CB         1.9630  299.8260  427.5340 C.3   108  THR108      0.1784
    113  OG1        1.6930  298.8140  428.5200 O.3   108  THR108     -0.2211
    114  CG2        0.6930  300.6310  427.2550 C.3   108  THR108      0.0376
    115  N          4.3460  300.6910  425.5700 N.am  109  GLY109     -0.1956
    116  CA         5.0590  301.6700  424.7530 C.3   109  GLY109      0.1869
    117  C          5.2220  301.2230  423.3190 C.2   109  GLY109      0.2309
    118  O          5.0150  302.0130  422.3750 O.2   109  GLY109     -0.2863
    119  N          1.8990  301.1810  421.4260 N.3   112  LEU112     -0.1245
    120  CA         1.5340  302.5580  421.0690 C.3   112  LEU112      0.1561
    121  C          2.3230  303.0320  419.8410 C.2   112  LEU112      0.2260
    122  O          1.7380  303.5750  418.8870 O.2   112  LEU112     -0.2867
    123  CB         1.7570  303.5030  422.2580 C.3   112  LEU112      0.0270
    124  CG         1.0090  304.8320  422.2900 C.3   112  LEU112      0.0019
    125  CD1        1.1900  305.4880  423.6600 C.3   112  LEU112      0.0001
    126  CD2        1.4910  305.7860  421.2120 C.3   112  LEU112      0.0001
    127  N         10.5330  290.4120  429.8630 N.3   148  GLY148     -0.1210
    128  CA        11.6680  290.2110  430.7700 C.3   148  GLY148      0.1956
    129  C         11.4050  290.8680  432.1120 C.2   148  GLY148      0.2612
    130  O         11.6140  292.0620  432.2580 O.2   148  GLY148     -0.2717
    131  N         10.8960  290.0950  433.0710 N.am  149  SER149     -0.1952
    132  CA        10.5130  290.6440  434.3770 C.3   149  SER149      0.1924
    133  C         10.4570  289.5960  435.4850 C.2   149  SER149      0.2314
    134  O          9.8710  288.5310  435.3180 O.2   149  SER149     -0.2863
    135  CB         9.1450  291.3010  434.2830 C.3   149  SER149      0.2116
    136  OG         8.8520  291.9860  435.4830 O.3   149  SER149     -0.2180
    137  N          4.5340  289.4980  436.1620 N.3   153  ASP153     -0.1239
    138  CA         3.4580  290.4810  435.8830 C.3   153  ASP153      0.1674
    139  C          2.4990  290.1140  434.7640 C.2   153  ASP153      0.2266
    140  O          1.3050  290.0070  434.9910 O.2   153  ASP153     -0.2867
    141  CB         4.0570  291.8270  435.4490 C.3   153  ASP153      0.1410
    142  CG         4.3670  292.7280  436.5980 C.2   153  ASP153      0.3668
    143  OD1        3.5680  292.7800  437.5730 O.co2 153  ASP153     -0.2456
    144  OD2        5.4230  293.4040  436.5030 O.co2 153  ASP153     -0.2456
    145  N          2.9690  295.1890  442.4870 N.3   196  HIS196     -0.1241
    146  CA         1.5280  294.9130  442.4080 C.3   196  HIS196      0.1621
    147  C          1.2660  293.4870  441.9840 C.2   196  HIS196      0.2264
    148  O          0.1900  293.1790  441.5040 O.2   196  HIS196     -0.2867
    149  CB         0.8310  295.8540  441.4150 C.3   196  HIS196      0.0745
    150  CG         1.5010  297.1810  441.2650 C.ar  196  HIS196      0.0817
    151  ND1        2.3200  297.4740  440.1980 N.ar  196  HIS196     -0.2268
    152  CD2        1.5060  298.2770  442.0560 C.ar  196  HIS196      0.1154
    153  CE1        2.8000  298.6950  440.3310 C.ar  196  HIS196      0.1986
    154  NE2        2.3180  299.2070  441.4490 N.ar  196  HIS196     -0.2212
@<TRIPOS>BOND
     1    74    73    2
     2    73    72    1
     3   122   121    2
     4    72    75    1
     5    72    71    1
     6    75    76    1
     7   121   120    1
     8    76    77    1
     9    77    78    1
    10    80    79    1
    11   120   119    1
    12   120   123    1
    13    57    59   ar
    14    57    55   ar
    15   126   124    1
    16    59    58   ar
    17    78    79    2
    18    79    81    1
    19    55    54   ar
    20   123   124    1
    21   124   125    1
    22   118   117    2
    23    58    56   ar
    24    23    21   ar
    25    23    25   ar
    26    18    17    2
    27    21    20   ar
    28   117   116    1
    29    54    56   ar
    30    54    53    1
    31    26    25    1
    32    25    24   ar
    33    17    16    1
    34    52    51    2
    35    16    19    1
    36    16    15    1
    37   111   110    2
    38    20    19    1
    39    20    22   ar
    40    50    53    1
    41    50    51    1
    42    50    49    1
    43   116   115    1
    44    51    60   am
    45    24    22   ar
    46   110   115   am
    47   110   109    1
    48    62    63    2
    49    62    61    1
    50   105   104    2
    51    60    61    1
    52    61    64    1
    53    48    47    1
    54   109   108    1
    55   109   112    1
    56   104   103    1
    57   114   112    1
    58    47    44    1
    59     1     2    1
    60   112   113    1
    61     5     6    1
    62     5     2    1
    63    64    65    1
    64    82    83    1
    65   103   106    1
    66   103   102    1
    67   106   107    1
    68   101   100    2
    69    46    45    2
    70     2     3    1
    71    65    66    1
    72    45    44    1
    73    83    84    1
    74    44    43    1
    75   102   100   am
    76   100    99    1
    77    93    92    2
    78    31    28    1
    79    89    88    2
    80    84    85    2
    81    84    86   am
    82     3     4    2
    83     3     7   am
    84    30    29    2
    85   127   128    1
    86    43    34   am
    87    27    28    1
    88    66    67    1
    89    86    87    1
    90    67    68    2
    91    99    98    1
    92    92    98   am
    93    92    91    1
    94    28    29    1
    95    88    87    1
    96    88    90   am
    97    35    34    2
    98    29    32   am
    99     7     8    1
   100    34    33    1
   101   128   129    1
   102    68    70    1
   103    68    69    1
   104    91    90    1
   105    91    94    1
   106    33    32    1
   107    33    36    1
   108     8     9    1
   109   129   130    2
   110   129   131   am
   111    94    95    1
   112    10     9    2
   113     9    11   am
   114    36    37    1
   115   131   132    1
   116    96    95   ar
   117    95    97   ar
   118    37    38    1
   119    11    12    1
   120   135   132    1
   121   135   136    1
   122    14    13    2
   123   132   133    1
   124   139   140    2
   125   139   138    1
   126    13    12    1
   127   134   133    2
   128    38    39    1
   129   141   138    1
   130   141   142    1
   131   138   137    1
   132   144   142   ar
   133    39    40    2
   134   142   143   ar
   135    40    41    1
   136    40    42    1
   137   151   153   ar
   138   151   150   ar
   139   153   154   ar
   140   150   149    1
   141   150   152   ar
   142   149   146    1
   143   154   152   ar
   144   148   147    2
   145   147   146    1
   146   146   145    1
