@<TRIPOS>MOLECULE
tmp/4rh5A00.pdb
 172 166 0 0 0
SMALL
GASTEIGER

@<TRIPOS>ATOM
      1  N          1.3220   23.0420    4.6920 N.3    44  LEU44      -0.1231
      2  CA         2.3510   23.2860    5.6880 C.3    44  LEU44       0.1693
      3  C          1.9240   22.9120    7.1190 C.2    44  LEU44       0.2592
      4  O          2.6890   22.2720    7.8660 O.2    44  LEU44      -0.2718
      5  CB         2.7760   24.7670    5.6400 C.3    44  LEU44       0.0284
      6  CG         3.6370   25.0970    4.4320 C.3    44  LEU44       0.0019
      7  CD1        3.8180   26.6190    4.3590 C.3    44  LEU44       0.0001
      8  CD2        4.9770   24.4200    4.4960 C.3    44  LEU44       0.0001
      9  N          0.7160   23.2510    7.5290 N.am   45  ASP45      -0.1974
     10  CA         0.3790   22.9470    8.9130 C.3    45  ASP45       0.1709
     11  C         -0.1860   21.5480    9.0560 C.2    45  ASP45       0.2293
     12  O         -0.6030   21.1760   10.1470 O.2    45  ASP45      -0.2864
     13  CB        -0.5760   23.9900    9.5130 C.3    45  ASP45       0.1436
     14  CG        -1.9990   23.9100    8.9850 C.2    45  ASP45       0.3671
     15  OD1       -2.4120   22.9550    8.3050 O.co2  45  ASP45      -0.2456
     16  OD2       -2.7510   24.8740    9.2780 O.co2  45  ASP45      -0.2456
     17  N          1.8930   19.1320    8.5490 N.3    47  ASN47      -0.1225
     18  CA         3.1440   18.4930    8.9670 C.3    47  ASN47       0.1785
     19  C          3.3860   18.8380   10.4030 C.2    47  ASN47       0.2597
     20  O          3.3730   20.0110   10.7750 O.2    47  ASN47      -0.2718
     21  CB         4.3350   18.9340    8.1040 C.3    47  ASN47       0.1169
     22  CG         4.0850   18.7160    6.6280 C.2    47  ASN47       0.2627
     23  OD1        3.6960   17.6350    6.2160 O.2    47  ASN47      -0.2716
     24  ND2        4.2210   19.7840    5.8320 N.am   47  ASN47      -0.0877
     25  N          3.5380   17.8260   11.2390 N.am   48  ARG48      -0.1966
     26  CA         3.7520   18.1170   12.6340 C.3    48  ARG48       0.1729
     27  C          5.1050   18.8120   12.8440 C.2    48  ARG48       0.2616
     28  O          5.2380   19.6670   13.7550 O.2    48  ARG48      -0.2715
     29  CB         3.6520   16.8300   13.4480 C.3    48  ARG48       0.0348
     30  CG         3.9530   17.0190   14.8880 C.3    48  ARG48       0.0492
     31  CD         3.7000   15.7860   15.7170 C.3    48  ARG48       0.2205
     32  NE         2.2820   15.4910   15.8190 N.pl3  48  ARG48      -0.0865
     33  CZ         1.4490   16.0590   16.6840 C.cat  48  ARG48       0.5346
     34  NH1        1.8920   16.9450   17.5590 N.pl3  48  ARG48       0.1354
     35  NH2        0.1810   15.7290   16.7050 N.pl3  48  ARG48       0.1354
     36  N          6.0950   18.4350   12.0180 N.am   49  TYR49      -0.1960
     37  CA         7.4370   19.0220   12.1070 C.3    49  TYR49       0.1771
     38  C          7.8750   19.5160   10.7560 C.2    49  TYR49       0.2619
     39  O          7.7000   18.8230    9.7630 O.2    49  TYR49      -0.2715
     40  CB         8.4360   18.0090   12.6570 C.3    49  TYR49       0.0574
     41  CG         8.0810   17.5290   14.0240 C.ar   49  TYR49      -0.0198
     42  CD1        8.2700   18.3510   15.1350 C.ar   49  TYR49      -0.0009
     43  CD2        7.5460   16.2680   14.2170 C.ar   49  TYR49      -0.0009
     44  CE1        7.9340   17.9170   16.3930 C.ar   49  TYR49       0.0417
     45  CE2        7.2100   15.8220   15.4720 C.ar   49  TYR49       0.0417
     46  CZ         7.3870   16.6620   16.5530 C.ar   49  TYR49       0.1957
     47  OH         7.0490   16.2020   17.8120 O.3    49  TYR49      -0.2866
     48  N          8.4370   20.7200   10.7310 N.am   50  LYS50      -0.1963
     49  CA         8.6990   21.4220    9.4920 C.3    50  LYS50       0.1728
     50  C          9.6900   20.6960    8.5820 C.2    50  LYS50       0.2616
     51  O          9.6530   20.8670    7.3600 O.2    50  LYS50      -0.2715
     52  CB         9.2460   22.8350    9.8000 C.3    50  LYS50       0.0311
     53  CG         9.3900   23.6960    8.6030 C.3    50  LYS50       0.0038
     54  CD         9.9630   25.0690    8.9630 C.3    50  LYS50       0.0206
     55  CE        10.2010   25.8190    7.6880 C.3    50  LYS50       0.1093
     56  NZ        10.5320   27.1880    7.9650 N.3    50  LYS50      -0.1314
     57  N         10.5470   19.8830    9.1870 N.am   51  ASP51      -0.1957
     58  CA        11.6240   19.2460    8.4670 C.3    51  ASP51       0.1840
     59  C         11.4120   17.7600    8.3020 C.2    51  ASP51       0.2621
     60  O         12.3400   17.0660    7.9070 O.2    51  ASP51      -0.2715
     61  CB        12.9500   19.4910    9.1770 C.3    51  ASP51       0.1450
     62  CG        13.0250   18.8860   10.5790 C.2    51  ASP51       0.3671
     63  OD1       11.9740   18.7040   11.2430 O.co2  51  ASP51      -0.2456
     64  OD2       14.1560   18.5690   11.0230 O.co2  51  ASP51      -0.2456
     65  N         10.2340   17.2520    8.6460 N.am   52  VAL52      -0.1977
     66  CA         9.9830   15.8350    8.4560 C.3    52  VAL52       0.1596
     67  C          8.8510   15.7410    7.4660 C.2    52  VAL52       0.2287
     68  O          7.6850   15.8470    7.8490 O.2    52  VAL52      -0.2864
     69  CB         9.6190   15.1320    9.7800 C.3    52  VAL52       0.0276
     70  CG1        9.2830   13.6760    9.5380 C.3    52  VAL52       0.0022
     71  CG2       10.7320   15.2830   10.7940 C.3    52  VAL52       0.0022
     72  N          2.2980   15.4810   21.6070 N.3   126  LYS126     -0.1245
     73  CA         3.1540   14.8970   20.5780 C.3   126  LYS126      0.1561
     74  C          2.3590   14.1070   19.5600 C.2   126  LYS126      0.2260
     75  O          2.8810   13.7010   18.5160 O.2   126  LYS126     -0.2867
     76  CB         4.2110   13.9990   21.2110 C.3   126  LYS126      0.0271
     77  CG         5.0780   14.7340   22.2670 C.3   126  LYS126      0.0035
     78  CD         5.7340   15.9600   21.6700 C.3   126  LYS126      0.0206
     79  CE         6.6620   16.6330   22.6630 C.3   126  LYS126      0.1093
     80  NZ         7.1270   17.9650   22.1480 N.3   126  LYS126     -0.1314
     81  N         10.7280    9.9570   22.7920 N.3   184  ALA184     -0.1231
     82  CA        11.2560   10.5300   21.5780 C.3   184  ALA184      0.1694
     83  C         12.7750   10.7240   21.6830 C.2   184  ALA184      0.2592
     84  O         13.2930   11.0370   22.7450 O.2   184  ALA184     -0.2718
     85  CB        10.5600   11.8160   21.3000 C.3   184  ALA184      0.0304
     86  N         13.4640   10.5020   20.5630 N.am  185  HIS185     -0.1976
     87  CA        14.9070   10.7250   20.4080 C.3   185  HIS185      0.1656
     88  C         15.7210    9.7960   21.2720 C.2   185  HIS185      0.2291
     89  O         16.9270    9.9750   21.4000 O.2   185  HIS185     -0.2864
     90  CB        15.2990   12.1730   20.7260 C.3   185  HIS185      0.0771
     91  CG        14.2410   13.1680   20.4000 C.ar  185  HIS185      0.0820
     92  ND1       13.8090   13.3950   19.1140 N.ar  185  HIS185     -0.2267
     93  CD2       13.4820   13.9470   21.1980 C.ar  185  HIS185      0.1154
     94  CE1       12.8370   14.2910   19.1310 C.ar  185  HIS185      0.1986
     95  NE2       12.6200   14.6450   20.3820 N.ar  185  HIS185     -0.2212
     96  N          4.9240    7.5320   15.0080 N.3   215  SER215     -0.1202
     97  CA         5.3780    7.9530   16.3190 C.3   215  SER215      0.2020
     98  C          4.8950    9.4000   16.4100 C.2   215  SER215      0.2619
     99  O          3.7380    9.6690   16.1370 O.2   215  SER215     -0.2717
    100  CB         6.8920    7.7050   16.4760 C.3   215  SER215      0.2103
    101  OG         7.6330    8.2330   15.3830 O.3   215  SER215     -0.2182
    102  N          5.7410   10.3470   16.8110 N.am  216  SER216     -0.1937
    103  CA         5.3700   11.7520   16.7220 C.3   216  SER216      0.2055
    104  C          5.7220   12.2970   15.3360 C.2   216  SER216      0.2643
    105  O          4.8380   12.7320   14.6270 O.2   216  SER216     -0.2714
    106  CB         6.0400   12.5410   17.8290 C.3   216  SER216      0.2130
    107  OG         5.5310   13.8670   17.8680 O.3   216  SER216     -0.2179
    108  N          6.9900   12.2520   14.9460 N.am  217  ALA217     -0.1963
    109  CA         7.4220   12.6140   13.5920 C.3   217  ALA217      0.1728
    110  C          7.2940   11.4570   12.6010 C.2   217  ALA217      0.2617
    111  O          7.1430   11.6510   11.4150 O.2   217  ALA217     -0.2715
    112  CB         8.8560   13.1080   13.6210 C.3   217  ALA217      0.0334
    113  N          7.2790   10.2460   13.1190 N.am  218  GLY218     -0.1940
    114  CA         7.2210    9.0600   12.2920 C.3   218  GLY218      0.2014
    115  C          8.5210    8.7170   11.5910 C.2   218  GLY218      0.2639
    116  O          8.4690    8.0870   10.5300 O.2   218  GLY218     -0.2714
    117  N          9.6730    9.0800   12.1620 N.am  219  ILE219     -0.1963
    118  CA        10.9470    8.6660   11.5580 C.3   219  ILE219      0.1727
    119  C         11.9220    7.9800   12.5220 C.2   219  ILE219      0.2617
    120  O         12.6560    7.0890   12.1220 O.2   219  ILE219     -0.2715
    121  CB        11.6560    9.8760   10.8590 C.3   219  ILE219      0.0290
    122  CG1       11.9250   11.0800   11.7930 C.3   219  ILE219      0.0022
    123  CG2       10.8260   10.3020    9.6670 C.3   219  ILE219      0.0023
    124  CD1       13.3160   11.0450   12.4200 C.3   219  ILE219      0.0001
    125  N         11.9700    8.3910   13.7760 N.am  220  GLY220     -0.1940
    126  CA        13.0340    7.8830   14.6300 C.3   220  GLY220      0.2014
    127  C         12.6980    6.5210   15.1930 C.2   220  GLY220      0.2638
    128  O         13.3390    5.5200   14.8630 O.2   220  GLY220     -0.2714
    129  N         11.6790    6.4990   16.0370 N.am  221  ARG221     -0.1977
    130  CA        11.2670    5.2340   16.6520 C.3   221  ARG221      0.1597
    131  C         10.6950    4.2990   15.5830 C.2   221  ARG221      0.2287
    132  O         10.9350    3.0930   15.6080 O.2   221  ARG221     -0.2864
    133  CB        10.2880    5.5090   17.7920 C.3   221  ARG221      0.0334
    134  CG        10.9830    6.2260   18.9450 C.3   221  ARG221      0.0492
    135  CD         9.9680    6.8240   19.9240 C.3   221  ARG221      0.2205
    136  NE         9.4140    8.0720   19.4040 N.pl3 221  ARG221     -0.0865
    137  CZ         8.5720    8.8350   20.0680 C.cat 221  ARG221      0.5346
    138  NH1        8.2130    8.5270   21.3180 N.pl3 221  ARG221      0.1354
    139  NH2        8.1290    9.9330   19.5080 N.pl3 221  ARG221      0.1354
    140  N         15.1590   10.4070    6.9000 N.3   256  MET256     -0.1245
    141  CA        15.5700   10.5420    8.3110 C.3   256  MET256      0.1570
    142  C         15.2770    9.3190    9.2060 C.2   256  MET256      0.2261
    143  O         15.5540    9.3620   10.3990 O.2   256  MET256     -0.2867
    144  CB        14.9280   11.8020    8.9450 C.3   256  MET256      0.0387
    145  CG        15.3290   13.0930    8.2820 C.3   256  MET256      0.0595
    146  SD        14.2300   14.4580    8.7460 S.3   256  MET256     -0.1393
    147  CE        14.7080   14.7360   10.4300 C.3   256  MET256      0.0692
    148  N         16.6510    8.1900   13.9180 N.3   259  GLN259     -0.1231
    149  CA        17.0340    9.5880   14.1280 C.3   259  GLN259      0.1698
    150  C         18.4500    9.7600   14.6760 C.2   259  GLN259      0.2592
    151  O         19.2250   10.5780   14.1680 O.2   259  GLN259     -0.2718
    152  CB        16.0570   10.2780   15.0840 C.3   259  GLN259      0.0381
    153  CG        16.3320   11.7660   15.1870 C.3   259  GLN259      0.0905
    154  CD        15.4650   12.5000   16.1830 C.2   259  GLN259      0.2608
    155  OE1       14.8220   11.8950   17.0350 O.2   259  GLN259     -0.2717
    156  NE2       15.4260   13.8320   16.0700 N.am  259  GLN259     -0.0878
    157  N         18.7710    9.0410   15.7400 N.am  260  THR260     -0.1953
    158  CA        19.9890    9.3340   16.4880 C.3   260  THR260      0.1897
    159  C         20.9980    8.2030   16.3990 C.2   260  THR260      0.2313
    160  O         20.6590    7.0660   16.0960 O.2   260  THR260     -0.2863
    161  CB        19.7030    9.6080   17.9710 C.3   260  THR260      0.1794
    162  OG1       19.3260    8.3800   18.5990 O.3   260  THR260     -0.2208
    163  CG2       18.6060   10.6580   18.1530 C.3   260  THR260      0.0378
    164  N         20.1370    5.5150   18.7840 N.3   263  GLN263     -0.1245
    165  CA        19.1280    4.5920   18.2610 C.3   263  GLN263      0.1566
    166  C         19.7290    3.5460   17.3330 C.2   263  GLN263      0.2260
    167  O         19.3530    2.3890   17.3610 O.2   263  GLN263     -0.2867
    168  CB        18.0080    5.3700   17.5400 C.3   263  GLN263      0.0367
    169  CG        17.1170    6.0830   18.4920 C.3   263  GLN263      0.0905
    170  CD        16.1270    7.0400   17.8250 C.2   263  GLN263      0.2608
    171  OE1       16.2950    7.4450   16.6760 O.2   263  GLN263     -0.2717
    172  NE2       15.0730    7.3750   18.5470 N.am  263  GLN263     -0.0878
@<TRIPOS>BOND
     1     7     6    1
     2     6     8    1
     3     6     5    1
     4     1     2    1
     5     5     2    1
     6     2     3    1
     7    24    22   am
     8    23    22    2
     9    22    21    1
    10   140   141    1
    11     3     9   am
    12     3     4    2
    13    51    50    2
    14    67    68    2
    15    67    66    1
    16     9    10    1
    17    55    56    1
    18    55    54    1
    19    60    59    2
    20    21    18    1
    21   145   146    1
    22   145   144    1
    23    59    58    1
    24    59    65   am
    25    15    14   ar
    26   141   144    1
    27   141   142    1
    28    66    65    1
    29    66    69    1
    30    58    61    1
    31    58    57    1
    32    17    18    1
    33    50    57   am
    34    50    49    1
    35    53    54    1
    36    53    52    1
    37   146   147    1
    38    10    11    1
    39    10    13    1
    40    18    19    1
    41    14    16   ar
    42    14    13    1
    43    11    12    2
    44    61    62    1
    45   142   143    2
    46    49    52    1
    47    49    48    1
    48    70    69    1
    49   123   121    1
    50    39    38    2
    51    69    71    1
    52    19    20    2
    53    19    25   am
    54   116   115    2
    55    62    64   ar
    56    62    63   ar
    57    48    38   am
    58    38    37    1
    59   121   118    1
    60   121   122    1
    61    25    26    1
    62   111   110    2
    63   118   117    1
    64   118   119    1
    65   115   117   am
    66   115   114    1
    67   122   124    1
    68    36    37    1
    69    36    27   am
    70    37    40    1
    71   120   119    2
    72   114   113    1
    73   119   125   am
    74   110   113   am
    75   110   109    1
    76    26    27    1
    77    26    29    1
    78    40    41    1
    79    27    28    2
    80    29    30    1
    81   109   112    1
    82   109   108    1
    83   125   126    1
    84   148   149    1
    85    41    43   ar
    86    41    42   ar
    87   149   150    1
    88   149   152    1
    89   151   150    2
    90    43    45   ar
    91   105   104    2
    92   126   127    1
    93   150   157   am
    94   128   127    2
    95    30    31    1
    96   108   104   am
    97    96    97    1
    98   152   153    1
    99    42    44   ar
   100   153   154    1
   101   127   129   am
   102   104   103    1
   103   101   100    1
   104    45    46   ar
   105   131   132    2
   106   131   130    1
   107    31    32    1
   108   157   158    1
   109    32    33    2
   110   129   130    1
   111   156   154   am
   112   160   159    2
   113    99    98    2
   114   154   155    2
   115    97    98    1
   116    97   100    1
   117    44    46   ar
   118   159   158    1
   119    98   102   am
   120   158   161    1
   121    46    47    1
   122   130   133    1
   123   171   170    2
   124    33    35    1
   125    33    34    1
   126   103   102    1
   127   103   106    1
   128   166   167    2
   129   166   165    1
   130   168   165    1
   131   168   169    1
   132   133   134    1
   133   170   169    1
   134   170   172   am
   135   106   107    1
   136   161   163    1
   137   161   162    1
   138   165   164    1
   139    75    74    2
   140   134   135    1
   141    92    94   ar
   142    92    91   ar
   143    94    95   ar
   144   136   135    1
   145   136   137    2
   146   139   137    1
   147    74    73    1
   148   137   138    1
   149    95    93   ar
   150    91    90    1
   151    91    93   ar
   152    87    86    1
   153    87    90    1
   154    87    88    1
   155    86    83   am
   156    73    76    1
   157    73    72    1
   158    76    77    1
   159    88    89    2
   160    85    82    1
   161    82    83    1
   162    82    81    1
   163    78    77    1
   164    78    79    1
   165    83    84    2
   166    80    79    1
