@<TRIPOS>MOLECULE
tmp/4rh9A00.pdb
 176 170 0 0 0
SMALL
GASTEIGER

@<TRIPOS>ATOM
      1  N          1.2460   23.0710    4.5970 N.3    45  LEU45      -0.1231
      2  CA         2.2910   23.3270    5.5850 C.3    45  LEU45       0.1693
      3  C          1.8870   22.9590    7.0060 C.2    45  LEU45       0.2592
      4  O          2.6760   22.3360    7.7320 O.2    45  LEU45      -0.2718
      5  CB         2.7430   24.8000    5.5450 C.3    45  LEU45       0.0284
      6  CG         3.5890   25.2030    4.3380 C.3    45  LEU45       0.0019
      7  CD1        3.7910   26.7200    4.3040 C.3    45  LEU45       0.0001
      8  CD2        4.9160   24.4910    4.3690 C.3    45  LEU45       0.0001
      9  N          0.6750   23.2860    7.4190 N.am   46  ASP46      -0.1974
     10  CA         0.3050   22.9860    8.8050 C.3    46  ASP46       0.1709
     11  C         -0.2470   21.5860    8.9740 C.2    46  ASP46       0.2293
     12  O         -0.6880   21.2330   10.0610 O.2    46  ASP46      -0.2864
     13  CB        -0.6280   24.0440    9.4260 C.3    46  ASP46       0.1436
     14  CG        -2.0370   24.0070    8.9000 C.2    46  ASP46       0.3671
     15  OD1       -2.4550   23.0500    8.2370 O.co2  46  ASP46      -0.2456
     16  OD2       -2.7800   24.9800    9.1770 O.co2  46  ASP46      -0.2456
     17  N          1.8450   19.1890    8.4720 N.3    48  ASN48      -0.1225
     18  CA         3.0710   18.5260    8.8830 C.3    48  ASN48       0.1785
     19  C          3.3340   18.8870   10.3330 C.2    48  ASN48       0.2597
     20  O          3.3220   20.0610   10.6950 O.2    48  ASN48      -0.2718
     21  CB         4.2410   18.9980    8.0200 C.3    48  ASN48       0.1169
     22  CG         3.9980   18.7760    6.5540 C.2    48  ASN48       0.2627
     23  OD1        3.6950   17.6620    6.1180 O.2    48  ASN48      -0.2716
     24  ND2        4.0980   19.8670    5.7750 N.am   48  ASN48      -0.0877
     25  N          3.4960   17.8880   11.1820 N.am   49  ARG49      -0.1966
     26  CA         3.7280   18.1570   12.5830 C.3    49  ARG49       0.1729
     27  C          5.0750   18.8410   12.7760 C.2    49  ARG49       0.2616
     28  O          5.2000   19.7230   13.6420 O.2    49  ARG49      -0.2715
     29  CB         3.6510   16.8700   13.3940 C.3    49  ARG49       0.0348
     30  CG         3.9440   17.0710   14.8420 C.3    49  ARG49       0.0492
     31  CD         3.6780   15.8030   15.6280 C.3    49  ARG49       0.2205
     32  NE         2.2610   15.4900   15.7730 N.pl3  49  ARG49      -0.0865
     33  CZ         1.4470   16.0670   16.6550 C.cat  49  ARG49       0.5346
     34  NH1        1.9040   17.0060   17.4920 N.pl3  49  ARG49       0.1354
     35  NH2        0.1750   15.7320   16.6890 N.pl3  49  ARG49       0.1354
     36  N          6.0610   18.4720   11.9530 N.am   50  TYR50      -0.1960
     37  CA         7.3760   19.1210   12.0020 C.3    50  TYR50       0.1771
     38  C          7.7980   19.6040   10.6310 C.2    50  TYR50       0.2619
     39  O          7.6380   18.8930    9.6340 O.2    50  TYR50      -0.2715
     40  CB         8.4000   18.1510   12.5590 C.3    50  TYR50       0.0574
     41  CG         8.0620   17.6320   13.9170 C.ar   50  TYR50      -0.0198
     42  CD1        8.1880   18.4580   15.0210 C.ar   50  TYR50      -0.0009
     43  CD2        7.5960   16.3330   14.1100 C.ar   50  TYR50      -0.0009
     44  CE1        7.8870   18.0040   16.2870 C.ar   50  TYR50       0.0417
     45  CE2        7.2940   15.8620   15.3900 C.ar   50  TYR50       0.0417
     46  CZ         7.4430   16.7250   16.4710 C.ar   50  TYR50       0.1957
     47  OH         7.1340   16.3020   17.7520 O.3    50  TYR50      -0.2866
     48  N          8.4080   20.7880   10.5990 N.am   51  LYS51      -0.1963
     49  CA         8.7320   21.4990    9.3580 C.3    51  LYS51       0.1728
     50  C          9.7160   20.7400    8.4770 C.2    51  LYS51       0.2616
     51  O          9.7230   20.9050    7.2450 O.2    51  LYS51      -0.2715
     52  CB         9.3340   22.8750    9.7020 C.3    51  LYS51       0.0311
     53  CG         9.5150   23.8020    8.5260 C.3    51  LYS51       0.0038
     54  CD        10.1460   25.1320    8.9740 C.3    51  LYS51       0.0206
     55  CE        10.6440   25.9730    7.7990 C.3    51  LYS51       0.1093
     56  NZ         9.7500   25.8610    6.6180 N.3    51  LYS51      -0.1314
     57  N         10.5570   19.9340    9.1180 N.am   52  ASP52      -0.1957
     58  CA        11.6250   19.2500    8.4300 C.3    52  ASP52       0.1840
     59  C         11.4130   17.7350    8.2870 C.2    52  ASP52       0.2621
     60  O         12.3480   17.0280    7.9320 O.2    52  ASP52      -0.2715
     61  CB        12.9490   19.4800    9.1550 C.3    52  ASP52       0.1450
     62  CG        12.9860   18.8730   10.5460 C.2    52  ASP52       0.3671
     63  OD1       11.9210   18.7210   11.1810 O.co2  52  ASP52      -0.2456
     64  OD2       14.0950   18.6000   11.0470 O.co2  52  ASP52      -0.2456
     65  N         10.2140   17.2380    8.5930 N.am   53  VAL53      -0.1977
     66  CA         9.9010   15.8130    8.3700 C.3    53  VAL53       0.1596
     67  C          8.7700   15.7650    7.3660 C.2    53  VAL53       0.2287
     68  O          7.5990   15.9110    7.7250 O.2    53  VAL53      -0.2864
     69  CB         9.5090   15.0850    9.6650 C.3    53  VAL53       0.0276
     70  CG1        9.2220   13.6240    9.3830 C.3    53  VAL53       0.0022
     71  CG2       10.6100   15.2400   10.6960 C.3    53  VAL53       0.0022
     72  N          6.4210   15.9560   28.5820 N.3   123  ARG123     -0.1245
     73  CA         6.8650   17.2080   29.2350 C.3   123  ARG123      0.1563
     74  C          5.9100   18.3800   29.0400 C.2   123  ARG123      0.2260
     75  O          6.3390   19.5300   28.8380 O.2   123  ARG123     -0.2867
     76  CB         8.2840   17.5610   28.7740 C.3   123  ARG123      0.0307
     77  CG         9.3000   16.5300   29.2940 C.3   123  ARG123      0.0489
     78  CD        10.7490   16.8390   28.9890 C.3   123  ARG123      0.2205
     79  NE        11.1270   16.5690   27.6050 N.pl3 123  ARG123     -0.0865
     80  CZ        11.0780   15.3790   27.0080 C.cat 123  ARG123      0.5346
     81  NH1       10.6430   14.2940   27.6430 N.pl3 123  ARG123      0.1354
     82  NH2       11.4640   15.2780   25.7460 N.pl3 123  ARG123      0.1354
     83  N          2.3140   15.5080   21.6410 N.3   127  LYS127     -0.1245
     84  CA         3.1250   14.8730   20.6020 C.3   127  LYS127      0.1561
     85  C          2.3100   14.1070   19.5740 C.2   127  LYS127      0.2260
     86  O          2.8420   13.7190   18.5200 O.2   127  LYS127     -0.2867
     87  CB         4.0910   13.8900   21.2360 C.3   127  LYS127      0.0271
     88  CG         4.9410   14.5260   22.3530 C.3   127  LYS127      0.0035
     89  CD         5.6730   15.7670   21.9200 C.3   127  LYS127      0.0206
     90  CE         6.7430   15.4410   20.9220 C.3   127  LYS127      0.1093
     91  NZ         7.6890   14.3840   21.4130 N.3   127  LYS127     -0.1314
     92  N         10.5960   10.1100   22.8680 N.3   185  ALA185     -0.1231
     93  CA        11.1360   10.6860   21.6550 C.3   185  ALA185      0.1694
     94  C         12.6560   10.8800   21.7870 C.2   185  ALA185      0.2592
     95  O         13.1530   11.1400   22.8800 O.2   185  ALA185     -0.2718
     96  CB        10.4360   12.0160   21.3520 C.3   185  ALA185      0.0304
     97  N         13.3460   10.7310   20.6590 N.am  186  PHE186     -0.1976
     98  CA        14.7970   10.8130   20.5120 C.3   186  PHE186      0.1639
     99  C         15.6320    9.9570   21.4560 C.2   186  PHE186      0.2290
    100  O         16.8240   10.1860   21.6090 O.2   186  PHE186     -0.2864
    101  CB        15.3150   12.2670   20.4210 C.3   186  PHE186      0.0560
    102  CG        15.0220   13.1210   21.5970 C.ar  186  PHE186     -0.0200
    103  CD1       15.8410   13.1040   22.7230 C.ar  186  PHE186     -0.0042
    104  CD2       13.9660   14.0140   21.5640 C.ar  186  PHE186     -0.0042
    105  CE1       15.5670   13.9490   23.8170 C.ar  186  PHE186     -0.0003
    106  CE2       13.7030   14.8450   22.6380 C.ar  186  PHE186     -0.0003
    107  CZ        14.5060   14.8060   23.7640 C.ar  186  PHE186     -0.0000
    108  N          5.0050    7.4920   15.0450 N.3   216  SER216     -0.1202
    109  CA         5.4830    7.9790   16.3250 C.3   216  SER216      0.2020
    110  C          4.9750    9.4180   16.3960 C.2   216  SER216      0.2619
    111  O          3.8050    9.6350   16.1240 O.2   216  SER216     -0.2717
    112  CB         7.0120    7.8470   16.4050 C.3   216  SER216      0.2103
    113  OG         7.6040    8.2290   15.1860 O.3   216  SER216     -0.2182
    114  N          5.8020   10.3870   16.7980 N.am  217  SER217     -0.1937
    115  CA         5.3790   11.7760   16.7010 C.3   217  SER217      0.2055
    116  C          5.6930   12.3100   15.2960 C.2   217  SER217      0.2643
    117  O          4.8000   12.7710   14.5660 O.2   217  SER217     -0.2714
    118  CB         6.0180   12.5870   17.8070 C.3   217  SER217      0.2130
    119  OG         5.5340   13.9190   17.8000 O.3   217  SER217     -0.2179
    120  N          6.9420   12.1810   14.8750 N.am  218  ALA218     -0.1963
    121  CA         7.3280   12.5780   13.5370 C.3   218  ALA218      0.1728
    122  C          7.1570   11.4600   12.4960 C.2   218  ALA218      0.2617
    123  O          7.0250   11.7210   11.3160 O.2   218  ALA218     -0.2715
    124  CB         8.7610   13.0400   13.5620 C.3   218  ALA218      0.0334
    125  N          7.1080   10.2220   12.9500 N.am  219  GLY219     -0.1940
    126  CA         7.0580    9.0890   12.0570 C.3   219  GLY219      0.2014
    127  C          8.3590    8.6570   11.4110 C.2   219  GLY219      0.2639
    128  O          8.3340    8.0030   10.3650 O.2   219  GLY219     -0.2714
    129  N          9.4880    8.9790   12.0360 N.am  220  ILE220     -0.1963
    130  CA        10.7980    8.5770   11.4770 C.3   220  ILE220      0.1727
    131  C         11.7620    7.9670   12.4780 C.2   220  ILE220      0.2617
    132  O         12.5170    7.0650   12.1280 O.2   220  ILE220     -0.2715
    133  CB        11.4950    9.7260   10.7420 C.3   220  ILE220      0.0290
    134  CG1       11.7850   10.9180   11.6670 C.3   220  ILE220      0.0022
    135  CG2       10.6570   10.2080    9.5830 C.3   220  ILE220      0.0023
    136  CD1       12.7010   11.9080   11.0200 C.3   220  ILE220      0.0001
    137  N         11.7530    8.4250   13.7190 N.am  221  GLY221     -0.1940
    138  CA        12.7850    7.9870   14.6530 C.3   221  GLY221      0.2014
    139  C         12.5560    6.6030   15.2360 C.2   221  GLY221      0.2638
    140  O         13.2160    5.5880   14.8990 O.2   221  GLY221     -0.2714
    141  N         11.5470    6.5570   16.0910 N.am  222  ARG222     -0.1977
    142  CA        11.1460    5.3180   16.7090 C.3   222  ARG222      0.1597
    143  C         10.5850    4.3530   15.6480 C.2   222  ARG222      0.2287
    144  O         10.8300    3.1500   15.6980 O.2   222  ARG222     -0.2864
    145  CB        10.1710    5.5980   17.8490 C.3   222  ARG222      0.0334
    146  CG        10.8630    6.2620   19.0170 C.3   222  ARG222      0.0492
    147  CD         9.9010    6.8740   19.9850 C.3   222  ARG222      0.2205
    148  NE         9.3250    8.1080   19.4440 N.pl3 222  ARG222     -0.0865
    149  CZ         8.5000    8.9080   20.1030 C.cat 222  ARG222      0.5346
    150  NH1        8.1520    8.6270   21.3500 N.pl3 222  ARG222      0.1354
    151  NH2        8.0390   10.0050   19.5210 N.pl3 222  ARG222      0.1354
    152  N         16.4600    8.3020   14.0230 N.3   260  GLN260     -0.1231
    153  CA        16.7780    9.7300   14.2040 C.3   260  GLN260      0.1698
    154  C         18.1730    9.9780   14.7830 C.2   260  GLN260      0.2592
    155  O         18.8670   10.9140   14.3500 O.2   260  GLN260     -0.2718
    156  CB        15.7190   10.3920   15.0890 C.3   260  GLN260      0.0381
    157  CG        15.9540   11.8970   15.3010 C.3   260  GLN260      0.0905
    158  CD        15.0990   12.4800   16.3970 C.2   260  GLN260      0.2608
    159  OE1       14.5250   11.7450   17.2050 O.2   260  GLN260     -0.2717
    160  NE2       14.9650   13.7990   16.4140 N.am  260  GLN260     -0.0878
    161  N         18.5710    9.1890   15.7830 N.am  261  THR261     -0.1953
    162  CA        19.8050    9.4750   16.5220 C.3   261  THR261      0.1897
    163  C         20.8110    8.3380   16.4460 C.2   261  THR261      0.2313
    164  O         20.4590    7.1850   16.2020 O.2   261  THR261     -0.2863
    165  CB        19.5230    9.7610   18.0210 C.3   261  THR261      0.1794
    166  OG1       19.1270    8.5480   18.6780 O.3   261  THR261     -0.2208
    167  CG2       18.4320   10.8370   18.2010 C.3   261  THR261      0.0378
    168  N         20.0070    5.7160   18.8900 N.3   264  GLN264     -0.1245
    169  CA        19.0250    4.7420   18.3980 C.3   264  GLN264      0.1566
    170  C         19.6500    3.6990   17.4670 C.2   264  GLN264      0.2260
    171  O         19.3120    2.5510   17.4920 O.2   264  GLN264     -0.2867
    172  CB        17.8580    5.4340   17.6880 C.3   264  GLN264      0.0367
    173  CG        16.9680    6.2100   18.6430 C.3   264  GLN264      0.0905
    174  CD        15.9680    7.1390   17.9440 C.2   264  GLN264      0.2608
    175  OE1       16.1560    7.5210   16.7810 O.2   264  GLN264     -0.2717
    176  NE2       14.8930    7.4800   18.6470 N.am  264  GLN264     -0.0878
@<TRIPOS>BOND
     1     7     6    1
     2     6     8    1
     3     6     5    1
     4     1     2    1
     5     5     2    1
     6     2     3    1
     7    24    22   am
     8    23    22    2
     9    22    21    1
    10    56    55    1
    11     3     9   am
    12     3     4    2
    13    51    50    2
    14    67    68    2
    15    67    66    1
    16     9    10    1
    17    55    54    1
    18    60    59    2
    19    21    18    1
    20    15    14   ar
    21    59    58    1
    22    59    65   am
    23    66    65    1
    24    66    69    1
    25    58    57    1
    26    58    61    1
    27    17    18    1
    28    50    57   am
    29    50    49    1
    30    53    54    1
    31    53    52    1
    32    10    11    1
    33    10    13    1
    34    18    19    1
    35    14    16   ar
    36    14    13    1
    37    11    12    2
    38    61    62    1
    39    49    52    1
    40    49    48    1
    41    70    69    1
    42   135   133    1
    43    39    38    2
    44    69    71    1
    45    19    20    2
    46    19    25   am
    47   128   127    2
    48    62    64   ar
    49    62    63   ar
    50    48    38   am
    51    38    37    1
    52   133   130    1
    53   133   134    1
    54   136   134    1
    55    25    26    1
    56   123   122    2
    57   127   129   am
    58   127   126    1
    59   130   129    1
    60   130   131    1
    61    36    37    1
    62    36    27   am
    63    37    40    1
    64   126   125    1
    65   132   131    2
    66   131   137   am
    67   122   125   am
    68   122   121    1
    69    40    41    1
    70    26    27    1
    71    26    29    1
    72    27    28    2
    73    29    30    1
    74   121   124    1
    75   121   120    1
    76   137   138    1
    77    41    43   ar
    78    41    42   ar
    79   152   153    1
    80    43    45   ar
    81   153   154    1
    82   153   156    1
    83   155   154    2
    84   117   116    2
    85   138   139    1
    86   154   161   am
    87    30    31    1
    88   120   116   am
    89   140   139    2
    90    42    44   ar
    91   108   109    1
    92   156   157    1
    93   113   112    1
    94   139   141   am
    95   116   115    1
    96   157   158    1
    97    45    46   ar
    98    31    32    1
    99   143   144    2
   100   143   142    1
   101    32    33    2
   102   161   162    1
   103   141   142    1
   104   111   110    2
   105   164   163    2
   106    44    46   ar
   107   109   110    1
   108   109   112    1
   109   110   114   am
   110   158   160   am
   111   158   159    2
   112   163   162    1
   113    46    47    1
   114   162   165    1
   115    33    35    1
   116    33    34    1
   117   115   114    1
   118   115   118    1
   119   142   145    1
   120   175   174    2
   121   170   171    2
   122   170   169    1
   123   172   169    1
   124   172   173    1
   125   119   118    1
   126   145   146    1
   127   174   173    1
   128   174   176   am
   129   165   167    1
   130   165   166    1
   131   169   168    1
   132    86    85    2
   133   146   147    1
   134   148   147    1
   135   148   149    2
   136   151   149    1
   137    85    84    1
   138   149   150    1
   139   101    98    1
   140   101   102    1
   141    98    97    1
   142    98    99    1
   143    84    87    1
   144    84    83    1
   145    97    94   am
   146    90    91    1
   147    90    89    1
   148    87    88    1
   149    96    93    1
   150    99   100    2
   151   104   102   ar
   152   104   106   ar
   153   102   103   ar
   154    93    94    1
   155    93    92    1
   156    94    95    2
   157    89    88    1
   158   106   107   ar
   159   103   105   ar
   160   107   105   ar
   161    82    80    1
   162    80    79    2
   163    80    81    1
   164    79    78    1
   165    72    73    1
   166    76    73    1
   167    76    77    1
   168    75    74    2
   169    78    77    1
   170    74    73    1
