@<TRIPOS>MOLECULE
tmp/4rhaA00.pdb
 93 88 0 0 0
SMALL
GASTEIGER

@<TRIPOS>ATOM
      1  N         40.9890   16.7510   10.5020 N.3    34  TYR34      -0.1241
      2  CA        40.0430   16.1110    9.5910 C.3    34  TYR34       0.1605
      3  C         40.7730   15.1930    8.6170 C.2    34  TYR34       0.2264
      4  O         40.3550   14.0480    8.3730 O.2    34  TYR34      -0.2867
      5  CB        39.1860   17.1390    8.8380 C.3    34  TYR34       0.0534
      6  CG        38.2160   16.4210    7.9460 C.ar   34  TYR34      -0.0201
      7  CD1       37.0910   15.7680    8.4830 C.ar   34  TYR34      -0.0009
      8  CD2       38.4610   16.2860    6.5940 C.ar   34  TYR34      -0.0009
      9  CE1       36.2170   15.0580    7.6620 C.ar   34  TYR34       0.0417
     10  CE2       37.5970   15.5810    5.7820 C.ar   34  TYR34       0.0417
     11  CZ        36.4890   14.9670    6.3220 C.ar   34  TYR34       0.1957
     12  OH        35.6490   14.2600    5.4930 O.3    34  TYR34      -0.2866
     13  N         41.4600   12.1370   10.4510 N.3    37  LEU37      -0.1231
     14  CA        40.1910   11.4510   10.7500 C.3    37  LEU37       0.1693
     15  C         39.6880   10.7260    9.5070 C.2    37  LEU37       0.2592
     16  O         39.1450    9.6230    9.6040 O.2    37  LEU37      -0.2718
     17  CB        39.1090   12.4080   11.2450 C.3    37  LEU37       0.0284
     18  CG        39.3220   13.0730   12.6070 C.3    37  LEU37       0.0019
     19  CD1       38.1590   13.9710   13.0080 C.3    37  LEU37       0.0001
     20  CD2       39.5800   12.0080   13.6580 C.3    37  LEU37       0.0001
     21  N         39.9070   11.3240    8.3360 N.am   38  SER38      -0.1952
     22  CA        39.3060   10.8100    7.1140 C.3    38  SER38       0.1924
     23  C         40.0200    9.5330    6.6900 C.2    38  SER38       0.2314
     24  O         39.5100    8.7860    5.8570 O.2    38  SER38      -0.2863
     25  CB        39.2930   11.8840    6.0180 C.3    38  SER38       0.2116
     26  OG        40.6060   12.1710    5.5980 O.3    38  SER38      -0.2180
     27  N         40.8890    7.1560    9.1850 N.3    40  LEU40      -0.1245
     28  CA        40.4210    6.1150   10.1030 C.3    40  LEU40       0.1561
     29  C         39.2140    5.4180    9.4700 C.2    40  LEU40       0.2260
     30  O         38.2170    6.0620    9.1790 O.2    40  LEU40      -0.2867
     31  CB        40.0270    6.7230   11.4550 C.3    40  LEU40       0.0270
     32  CG        41.1710    7.2380   12.3280 C.3    40  LEU40       0.0019
     33  CD1       40.5830    7.9250   13.5380 C.3    40  LEU40       0.0001
     34  CD2       42.0800    6.1260   12.7830 C.3    40  LEU40       0.0001
     35  N         35.8440    3.7350    9.0900 N.3    42  PRO42      -0.2116
     36  CA        34.6460    3.6320    9.9540 C.3    42  PRO42       0.1372
     37  C         34.2040    2.1880   10.2270 C.2    42  PRO42       0.2244
     38  O         33.9160    1.8390   11.3730 O.2    42  PRO42      -0.2868
     39  CB        33.5550    4.3800    9.1620 C.3    42  PRO42       0.0268
     40  CG        34.2700    5.1670    8.1180 C.3    42  PRO42       0.0207
     41  CD        35.5560    4.4470    7.8290 C.3    42  PRO42       0.0892
     42  N         31.3440    3.8300   13.7440 N.3    43  GLY43      -0.1210
     43  CA        32.1170    5.0580   14.0890 C.3    43  GLY43       0.1956
     44  C         31.3250    6.2620   14.6190 C.2    43  GLY43       0.2613
     45  O         30.2540    6.5840   14.1270 O.2    43  GLY43      -0.2717
     46  N         31.8310    6.9230   15.6540 N.am   44  SER44      -0.1938
     47  CA        31.2100    8.1570   16.1300 C.3    44  SER44       0.2055
     48  C         32.2260    9.0200   16.8400 C.2    44  SER44       0.2642
     49  O         33.2840    8.5310   17.2560 O.2    44  SER44      -0.2714
     50  CB        30.0750    7.8910   17.0770 C.3    44  SER44       0.2130
     51  OG        30.5510    7.1440   18.1260 O.3    44  SER44      -0.2179
     52  N         31.8830   10.2860   16.9830 N.am   45  VAL45      -0.1977
     53  CA        32.8140   11.2880   17.4700 C.3    45  VAL45       0.1596
     54  C         32.1580   12.0960   18.5660 C.2    45  VAL45       0.2287
     55  O         30.9970   12.5530   18.4120 O.2    45  VAL45      -0.2864
     56  CB        33.2280   12.2700   16.3530 C.3    45  VAL45       0.0276
     57  CG1       34.2590   13.2430   16.8460 C.3    45  VAL45       0.0022
     58  CG2       33.7730   11.4920   15.1460 C.3    45  VAL45       0.0022
     59  N         33.0600   17.1970    6.4150 N.3    79  GLY79      -0.1210
     60  CA        32.6180   15.8960    5.9600 C.3    79  GLY79       0.1956
     61  C         32.2740   14.8620    7.0250 C.2    79  GLY79       0.2612
     62  O         31.9280   13.7290    6.6740 O.2    79  GLY79      -0.2717
     63  N         32.3270   15.2210    8.2930 N.am   80  ILE80      -0.1966
     64  CA        31.8980   14.2640    9.3540 C.3    80  ILE80       0.1712
     65  C         30.3670   14.2740    9.3380 C.2    80  ILE80       0.2458
     66  O         29.7630   15.3200    9.4930 O.2    80  ILE80      -0.2730
     67  CB        32.4200   14.5990   10.7450 C.3    80  ILE80       0.0289
     68  CG1       33.9530   14.6040   10.7510 C.3    80  ILE80       0.0022
     69  CG2       31.8760   13.5700   11.7360 C.3    80  ILE80       0.0023
     70  CD1       34.5400   14.6910   12.1250 C.3    80  ILE80       0.0001
     71  N         29.7370   13.1180    9.1340 N.am   81  PRO81      -0.2727
     72  CA        28.2780   13.1600    9.0740 C.3    81  PRO81       0.1402
     73  C         27.6570   13.6790   10.3630 C.2    81  PRO81       0.2269
     74  O         28.0930   13.3230   11.4590 O.2    81  PRO81      -0.2865
     75  CB        27.8660   11.7070    8.8220 C.3    81  PRO81       0.0296
     76  CG        29.1040   11.0510    8.3400 C.3    81  PRO81       0.0237
     77  CD        30.2690   11.7630    8.9280 C.3    81  PRO81       0.0939
     78  N         26.7060   11.4980   13.4520 N.3    84  LYS84      -0.1245
     79  CA        27.7770   10.6860   14.0120 C.3    84  LYS84       0.1561
     80  C         28.6930   11.5140   14.9150 C.2    84  LYS84       0.2260
     81  O         29.7620   11.0170   15.3320 O.2    84  LYS84      -0.2867
     82  CB        28.6310   10.0690   12.9020 C.3    84  LYS84       0.0271
     83  CG        27.8840    9.1370   11.9460 C.3    84  LYS84       0.0035
     84  CD        27.1060    8.0580   12.6720 C.3    84  LYS84       0.0206
     85  CE        26.5140    7.0430   11.6930 C.3    84  LYS84       0.1093
     86  NZ        26.0000    5.8690   12.4550 N.3    84  LYS84      -0.1314
     87  N         37.2280    9.6680   19.0060 N.3   123  VAL123     -0.1245
     88  CA        36.6980    8.9210   17.8680 C.3   123  VAL123      0.1561
     89  C         36.5760    7.4710   18.2670 C.2   123  VAL123      0.2260
     90  O         37.5820    6.7840   18.5780 O.2   123  VAL123     -0.2867
     91  CB        37.6090    9.0730   16.6360 C.3   123  VAL123      0.0252
     92  CG1       36.9990    8.4000   15.4200 C.3   123  VAL123      0.0019
     93  CG2       37.9100   10.5330   16.3840 C.3   123  VAL123      0.0019
@<TRIPOS>BOND
     1    12    11    1
     2    26    25    1
     3    10    11   ar
     4    10     8   ar
     5    24    23    2
     6    60    59    1
     7    60    61    1
     8    25    22    1
     9    11     9   ar
    10     8     6   ar
    11    62    61    2
    12    23    22    1
    13    61    63   am
    14    22    21    1
    15     9     7   ar
    16    41    40    1
    17    41    35    1
    18     6     7   ar
    19     6     5    1
    20    40    39    1
    21    63    64    1
    22    21    15   am
    23    76    75    1
    24    76    77    1
    25     4     3    2
    26     3     2    1
    27    75    72    1
    28     5     2    1
    29    77    71    1
    30    72    71    1
    31    72    73    1
    32    35    36    1
    33    71    65   am
    34    39    36    1
    35    30    29    2
    36    27    28    1
    37    65    64    1
    38    65    66    2
    39    64    67    1
    40    29    28    1
    41    15    16    2
    42    15    14    1
    43     2     1    1
    44    36    37    1
    45    28    31    1
    46    37    38    2
    47    73    74    2
    48    13    14    1
    49    67    68    1
    50    67    69    1
    51    14    17    1
    52    68    70    1
    53    17    18    1
    54    31    32    1
    55    85    86    1
    56    85    84    1
    57    83    84    1
    58    83    82    1
    59    32    34    1
    60    32    33    1
    61    18    19    1
    62    18    20    1
    63    82    79    1
    64    78    79    1
    65    42    43    1
    66    79    80    1
    67    43    44    1
    68    45    44    2
    69    44    46   am
    70    80    81    2
    71    58    56    1
    72    92    91    1
    73    46    47    1
    74    47    48    1
    75    47    50    1
    76    56    57    1
    77    56    53    1
    78    93    91    1
    79    91    88    1
    80    48    52   am
    81    48    49    2
    82    52    53    1
    83    50    51    1
    84    53    54    1
    85    88    89    1
    86    88    87    1
    87    89    90    2
    88    55    54    2
