@<TRIPOS>MOLECULE
tmp/4rheB00.pdb
 116 108 0 0 0
SMALL
GASTEIGER

@<TRIPOS>ATOM
      1  N          6.9960   -2.0040  -16.1510 N.3    12  THR12      -0.1203
      2  CA         6.2850   -0.6980  -16.4130 C.3    12  THR12       0.1994
      3  C          7.0570    0.4460  -15.7800 C.2    12  THR12       0.2618
      4  O          8.1190    0.2280  -15.1740 O.2    12  THR12      -0.2717
      5  CB         4.8480   -0.6850  -15.9070 C.3    12  THR12       0.1784
      6  OG1        4.8180   -0.6930  -14.4890 O.3    12  THR12      -0.2211
      7  CG2        4.1150   -1.8590  -16.3180 C.3    12  THR12       0.0376
      8  N          6.5900    1.6770  -15.9700 N.am   13  GLY13      -0.1942
      9  CA         7.4170    2.7850  -15.7280 C.3    13  GLY13       0.2014
     10  C          7.3390    3.2600  -14.2710 C.2    13  GLY13       0.2639
     11  O          7.1800    4.4420  -14.0350 O.2    13  GLY13      -0.2714
     12  N          7.4360    2.3740  -13.3000 N.am   14  ALA14      -0.1963
     13  CA         7.6830    2.8220  -11.9370 C.3    14  ALA14       0.1728
     14  C          9.1630    2.7110  -11.6300 C.2    14  ALA14       0.2616
     15  O          9.9030    1.9580  -12.2610 O.2    14  ALA14      -0.2715
     16  CB         6.8600    2.0290  -10.9700 C.3    14  ALA14       0.0334
     17  N          9.5900    3.4400  -10.5980 N.am   15  SER15      -0.1950
     18  CA        10.9210    3.3280  -10.1040 C.3    15  SER15       0.1924
     19  C         11.0590    1.8980   -9.5500 C.2    15  SER15       0.2314
     20  O         10.0540    1.1910   -9.2610 O.2    15  SER15      -0.2863
     21  CB        11.2130    4.4810   -9.0940 C.3    15  SER15       0.2116
     22  OG        12.5870    4.5350   -8.7830 O.3    15  SER15      -0.2180
     23  N          6.9460   -1.6340  -21.2080 N.3    39  SER39      -0.1217
     24  CA         6.2900   -0.4590  -21.7380 C.3    39  SER39       0.1889
     25  C          7.3340    0.5830  -22.1160 C.2    39  SER39       0.2288
     26  O          8.5120    0.5020  -21.7470 O.2    39  SER39      -0.2866
     27  CB         5.3270    0.1410  -20.7290 C.3    39  SER39       0.2089
     28  OG         6.0520    0.6850  -19.6590 O.3    39  SER39      -0.2183
     29  N          7.5000    3.6800  -21.0510 N.3    41  ALA41      -0.1245
     30  CA         7.9380    4.3520  -19.8270 C.3    41  ALA41       0.1562
     31  C          8.8540    3.4330  -19.0400 C.2    41  ALA41       0.2260
     32  O          9.8240    3.8620  -18.4340 O.2    41  ALA41      -0.2867
     33  CB         6.7880    4.8040  -18.9710 C.3    41  ALA41       0.0290
     34  N         12.4190    3.7280  -20.2470 N.3    44  ILE44      -0.1231
     35  CA        13.0120    4.9770  -19.8040 C.3    44  ILE44       0.1692
     36  C         13.5260    4.7990  -18.3650 C.2    44  ILE44       0.2591
     37  O         14.6470    5.1520  -18.0440 O.2    44  ILE44      -0.2718
     38  CB        11.9900    6.1450  -19.8870 C.3    44  ILE44       0.0266
     39  CG1       11.8260    6.6390  -21.3590 C.3    44  ILE44       0.0019
     40  CG2       12.4630    7.2660  -18.9860 C.3    44  ILE44       0.0020
     41  CD1       10.5040    7.3770  -21.6230 C.3    44  ILE44       0.0001
     42  N         12.7390    4.1490  -17.5090 N.am   45  VAL45      -0.1980
     43  CA        13.1930    3.9960  -16.1370 C.3    45  VAL45       0.1595
     44  C         14.4030    3.0540  -16.1060 C.2    45  VAL45       0.2287
     45  O         15.3520    3.3230  -15.3560 O.2    45  VAL45      -0.2864
     46  CB        12.0900    3.4940  -15.1980 C.3    45  VAL45       0.0276
     47  CG1       12.6150    3.3460  -13.7950 C.3    45  VAL45       0.0022
     48  CG2       10.9480    4.5040  -15.1240 C.3    45  VAL45       0.0022
     49  N         17.5130    5.0540  -17.2270 N.3    48  THR48      -0.1203
     50  CA        18.0050    6.0050  -16.2660 C.3    48  THR48       0.1994
     51  C         18.4180    5.3640  -14.9510 C.2    48  THR48       0.2617
     52  O         19.4550    5.7070  -14.4370 O.2    48  THR48      -0.2717
     53  CB        17.0030    7.1620  -16.0690 C.3    48  THR48       0.1784
     54  OG1       15.7460    6.6730  -15.5870 O.3    48  THR48      -0.2211
     55  CG2       16.7720    7.8250  -17.4140 C.3    48  THR48       0.0376
     56  N         17.6960    4.3900  -14.4170 N.am   49  GLU49      -0.1979
     57  CA        18.1240    3.8390  -13.1060 C.3    49  GLU49       0.1602
     58  C         19.2950    2.8280  -13.1850 C.2    49  GLU49       0.2287
     59  O         20.1040    2.7280  -12.2710 O.2    49  GLU49      -0.2864
     60  CB        16.9510    3.1820  -12.3710 C.3    49  GLU49       0.0415
     61  CG        15.9120    4.2230  -11.9330 C.3    49  GLU49       0.1163
     62  CD        14.7180    3.6900  -11.1390 C.2    49  GLU49       0.3649
     63  OE1       14.6550    2.4360  -10.8700 O.co2  49  GLU49      -0.2457
     64  OE2       13.8800    4.5810  -10.7650 O.co2  49  GLU49      -0.2457
     65  N          3.6630    0.4680  -12.1230 N.3   104  SER104     -0.1202
     66  CA         3.2980    1.8780  -11.9040 C.3   104  SER104      0.2020
     67  C          1.8890    1.9320  -11.4260 C.2   104  SER104      0.2619
     68  O          1.1480    0.9850  -11.6360 O.2   104  SER104     -0.2717
     69  CB         3.3940    2.6410  -13.1970 C.3   104  SER104      0.2103
     70  OG         2.4220    2.1210  -14.1060 O.3   104  SER104     -0.2182
     71  N          1.5060    2.9710  -10.7000 N.am  105  THR105     -0.1938
     72  CA         0.1120    3.0520  -10.2500 C.3   105  THR105      0.2028
     73  C         -0.8950    3.1900  -11.4510 C.2   105  THR105      0.2643
     74  O         -2.0520    2.7790  -11.3680 O.2   105  THR105     -0.2714
     75  CB        -0.1310    4.1240   -9.1810 C.3   105  THR105      0.1808
     76  OG1        0.0840    5.4050   -9.7550 O.3   105  THR105     -0.2208
     77  CG2        0.8250    3.9440   -7.9310 C.3   105  THR105      0.0379
     78  N         -0.4130    3.6840  -12.5620 N.am  106  GLY106     -0.1939
     79  CA        -1.2010    3.7780  -13.8330 C.3   106  GLY106      0.2014
     80  C         -1.5280    2.4570  -14.4730 C.2   106  GLY106      0.2639
     81  O         -2.6590    2.2240  -14.8620 O.2   106  GLY106     -0.2714
     82  N         -0.5400    1.5520  -14.5350 N.am  107  THR107     -0.1950
     83  CA        -0.8190    0.2160  -14.9980 C.3   107  THR107      0.1897
     84  C         -1.6660   -0.5770  -14.0160 C.2   107  THR107      0.2313
     85  O         -2.5400   -1.2790  -14.4540 O.2   107  THR107     -0.2863
     86  CB         0.4590   -0.4950  -15.4230 C.3   107  THR107      0.1794
     87  OG1        0.8710    0.1200  -16.6120 O.3   107  THR107     -0.2208
     88  CG2        0.2240   -2.0040  -15.7310 C.3   107  THR107      0.0378
     89  N         -3.4800   -2.4860  -24.2210 N.3   118  ASN118     -0.1240
     90  CA        -2.2380   -2.8750  -24.8480 C.3   118  ASN118      0.1653
     91  C         -1.9490   -4.3310  -24.3980 C.2   118  ASN118      0.2266
     92  O         -2.7140   -4.8940  -23.6210 O.2   118  ASN118     -0.2867
     93  CB        -1.1140   -1.9330  -24.4160 C.3   118  ASN118      0.1155
     94  CG        -1.0740   -1.7160  -22.9150 C.2   118  ASN118      0.2627
     95  OD1       -1.2360   -2.6280  -22.1270 O.2   118  ASN118     -0.2716
     96  ND2       -0.8700   -0.4930  -22.5210 N.am  118  ASN118     -0.0877
     97  N          5.2750    0.3890   -6.8920 N.3   139  ARG139     -0.1231
     98  CA         6.2470    1.2840   -6.2940 C.3   139  ARG139      0.1694
     99  C          5.7110    2.7270   -6.3850 C.2   139  ARG139      0.2591
    100  O          5.6490    3.3440   -7.4820 O.2   139  ARG139     -0.2718
    101  CB         7.5830    1.1370   -6.9760 C.3   139  ARG139      0.0321
    102  CG         8.8260    1.5230   -6.1400 C.3   139  ARG139      0.0489
    103  CD         8.8360    2.8230   -5.3800 C.3   139  ARG139      0.2205
    104  NE         8.6640    4.0170   -6.2060 N.pl3 139  ARG139     -0.0865
    105  CZ         8.5400    5.2620   -5.7660 C.cat 139  ARG139      0.5346
    106  NH1        8.6020    5.6080   -4.4680 N.pl3 139  ARG139      0.1354
    107  NH2        8.3220    6.1980   -6.6740 N.pl3 139  ARG139      0.1354
    108  N          5.2550    3.2370   -5.2510 N.am  140  GLU140     -0.1979
    109  CA         4.7620    4.6050   -5.1680 C.3   140  GLU140      0.1602
    110  C          4.5830    4.9370   -3.6650 C.2   140  GLU140      0.2287
    111  O          4.1840    4.0510   -2.8800 O.2   140  GLU140     -0.2864
    112  CB         3.4310    4.7620   -5.9110 C.3   140  GLU140      0.0415
    113  CG         2.9030    6.2180   -5.8790 C.3   140  GLU140      0.1163
    114  CD         3.8950    7.2320   -6.5280 C.2   140  GLU140      0.3649
    115  OE1        3.8330    7.4590   -7.8010 O.co2 140  GLU140     -0.2457
    116  OE2        4.7630    7.7810   -5.7840 O.co2 140  GLU140     -0.2457
@<TRIPOS>BOND
     1    90    93    1
     2    90    91    1
     3    90    89    1
     4    93    94    1
     5    91    92    2
     6    94    96   am
     7    94    95    2
     8    25    26    2
     9    25    24    1
    10    24    23    1
    11    24    27    1
    12    41    39    1
    13    39    38    1
    14    29    30    1
    15    27    28    1
    16    34    35    1
    17    38    35    1
    18    38    40    1
    19    30    31    1
    20    30    33    1
    21    35    36    1
    22    31    32    2
    23    36    37    2
    24    36    42   am
    25    42    43    1
    26    55    53    1
    27    49    50    1
    28    87    86    1
    29     2     1    1
    30     2     5    1
    31     2     3    1
    32     7     5    1
    33    50    53    1
    34    50    51    1
    35    43    44    1
    36    43    46    1
    37    44    45    2
    38    53    54    1
    39     8     3   am
    40     8     9    1
    41     5     6    1
    42     3     4    2
    43    88    86    1
    44     9    10    1
    45    86    83    1
    46    46    48    1
    47    46    47    1
    48    83    82    1
    49    83    84    1
    50    51    52    2
    51    51    56   am
    52    81    80    2
    53    82    80   am
    54    80    79    1
    55    85    84    2
    56    56    57    1
    57    10    11    2
    58    10    12   am
    59    70    69    1
    60    79    78    1
    61    12    13    1
    62    69    66    1
    63    58    57    1
    64    58    59    2
    65    57    60    1
    66    78    73   am
    67    60    61    1
    68    15    14    2
    69    65    66    1
    70    13    14    1
    71    13    16    1
    72    61    62    1
    73    66    67    1
    74    68    67    2
    75    14    17   am
    76    73    74    2
    77    73    72    1
    78    67    71   am
    79    62    63   ar
    80    62    64   ar
    81    71    72    1
    82    17    18    1
    83    72    75    1
    84    18    19    1
    85    18    21    1
    86    76    75    1
    87    19    20    2
    88    75    77    1
    89    21    22    1
    90   115   114   ar
    91   100    99    2
    92   101    98    1
    93   101   102    1
    94    97    98    1
    95   107   105    1
    96   114   113    1
    97   114   116   ar
    98    99    98    1
    99    99   108   am
   100   104   105    2
   101   104   103    1
   102   102   103    1
   103   112   113    1
   104   112   109    1
   105   105   106    1
   106   108   109    1
   107   109   110    1
   108   110   111    2
